MODEL 1
REMARK VINA RESULT: -7.809243076      0.000      0.000
REMARK  5 active torsions:
REMARK  status: ('A' for Active; 'I' for Inactive)
REMARK    1  A    between atoms: C2_3  and  O1_6 
REMARK    2  A    between atoms: O1_6  and  S1_7 
REMARK    3  A    between atoms: S1_7  and  S2_10 
REMARK    4  A    between atoms: S2_10  and  C4_11 
REMARK    5  A    between atoms: C6_18  and  N5_19 
REMARK       I    between atoms: N5_19  and  C7_21 
REMARK       I    between atoms: C7_21  and  N6_22 
REMARK       I    between atoms: C7_21  and  N7_26 
ROOT
HETATM    1  N1  UNL     1      13.768 -14.256 -17.214  1.00  0.00    -0.193 NA
HETATM    2  C1  UNL     1      14.243 -14.215 -16.176  1.00  0.00     0.107 C 
HETATM    3  C2  UNL     1      14.848 -14.189 -14.843  1.00  0.00     0.355 C 
HETATM    4  C3  UNL     1      16.312 -14.317 -14.924  1.00  0.00     0.107 C 
HETATM    5  N2  UNL     1      17.459 -14.405 -14.976  1.00  0.00    -0.193 NA
ENDROOT
BRANCH   3   6
HETATM    6  O1  UNL     1      14.585 -12.915 -14.314  1.00  0.00    -0.232 OA
BRANCH   6   7
HETATM    7  S1  UNL     1      14.505 -12.938 -12.655  1.00  0.00     0.333 S 
HETATM    8  O2  UNL     1      15.376 -11.954 -11.955  1.00  0.00    -0.186 OA
HETATM    9  O3  UNL     1      14.895 -14.279 -12.219  1.00  0.00    -0.186 OA
BRANCH   7  10
HETATM   10  S2  UNL     1      12.637 -12.178 -12.367  1.00  0.00     0.069 SA
BRANCH  10  11
HETATM   11  C4  UNL     1      12.359 -10.590 -12.932  1.00  0.00     0.164 A 
HETATM   12  N3  UNL     1      12.899 -10.126 -14.077  1.00  0.00    -0.321 N 
HETATM   13  C5  UNL     1      12.733  -8.905 -14.586  1.00  0.00     0.131 A 
ATOM     14  H3  UNL     1      13.491 -10.769 -14.603  1.00  0.00     0.169 HD
HETATM   15  N4  UNL     1      13.303  -8.536 -15.707  1.00  0.00    -0.383 N 
HETATM   16  C6  UNL     1      11.946  -8.009 -13.914  1.00  0.00     0.117 A 
ATOM     17  H42 UNL     1      13.889  -9.204 -16.208  1.00  0.00     0.157 HD
ATOM     18  H41 UNL     1      13.175  -7.602 -16.098  1.00  0.00     0.157 HD
HETATM   19  C8  UNL     1      11.377  -8.457 -12.734  1.00  0.00     0.148 A 
HETATM   20  N8  UNL     1      10.557  -7.504 -12.045  1.00  0.00    -0.080 NA
HETATM   21  N9  UNL     1      11.576  -9.694 -12.265  1.00  0.00    -0.322 N 
ATOM     22  H9  UNL     1      11.133  -9.974 -11.390  1.00  0.00     0.169 HD
BRANCH  16  23
HETATM   23  N5  UNL     1      11.731  -6.704 -14.410  1.00  0.00    -0.335 N 
HETATM   24  C7  UNL     1      12.593  -5.576 -14.182  1.00  0.00     0.480 C 
HETATM   25  N6  UNL     1      12.771  -5.224 -12.816  1.00  0.00    -0.033 N 
HETATM   26  N7  UNL     1      12.059  -4.417 -14.890  1.00  0.00    -0.033 N 
ATOM     27  H63 UNL     1      11.867  -5.073 -12.370  1.00  0.00     0.278 HD
ATOM     28  H62 UNL     1      13.098  -6.032 -12.284  1.00  0.00     0.278 HD
ATOM     29  H61 UNL     1      13.382  -4.424 -12.655  1.00  0.00     0.278 HD
ATOM     30  H73 UNL     1      11.915  -4.602 -15.884  1.00  0.00     0.278 HD
ATOM     31  H72 UNL     1      11.089  -4.222 -14.639  1.00  0.00     0.278 HD
ATOM     32  H71 UNL     1      12.670  -3.617 -14.730  1.00  0.00     0.278 HD
ATOM     33  H5  UNL     1      10.897  -6.549 -14.975  1.00  0.00     0.163 HD
ENDBRANCH  16  23
ENDBRANCH  10  11
ENDBRANCH   7  10
ENDBRANCH   6   7
ENDBRANCH   3   6
TORSDOF 5
ENDMDL
MODEL 2
REMARK VINA RESULT: -7.681360656      1.026      1.803
REMARK  5 active torsions:
REMARK  status: ('A' for Active; 'I' for Inactive)
REMARK    1  A    between atoms: C2_3  and  O1_6 
REMARK    2  A    between atoms: O1_6  and  S1_7 
REMARK    3  A    between atoms: S1_7  and  S2_10 
REMARK    4  A    between atoms: S2_10  and  C4_11 
REMARK    5  A    between atoms: C6_18  and  N5_19 
REMARK       I    between atoms: N5_19  and  C7_21 
REMARK       I    between atoms: C7_21  and  N6_22 
REMARK       I    between atoms: C7_21  and  N7_26 
ROOT
HETATM    1  N1  UNL     1      17.154 -14.558 -14.658  1.00  0.00    -0.193 NA
HETATM    2  C1  UNL     1      16.190 -14.129 -14.222  1.00  0.00     0.107 C 
HETATM    3  C2  UNL     1      14.953 -13.560 -13.683  1.00  0.00     0.355 C 
HETATM    4  C3  UNL     1      13.775 -14.294 -14.175  1.00  0.00     0.107 C 
HETATM    5  N2  UNL     1      12.847 -14.868 -14.544  1.00  0.00    -0.193 NA
ENDROOT
BRANCH   3   6
HETATM    6  O1  UNL     1      14.998 -13.758 -12.294  1.00  0.00    -0.232 OA
BRANCH   6   7
HETATM    7  S1  UNL     1      14.662 -12.362 -11.458  1.00  0.00     0.333 S 
HETATM    8  O2  UNL     1      15.383 -11.145 -11.925  1.00  0.00    -0.186 OA
HETATM    9  O3  UNL     1      15.023 -12.595 -10.060  1.00  0.00    -0.186 OA
BRANCH   7  10
HETATM   10  S2  UNL     1      12.750 -12.020 -12.068  1.00  0.00     0.069 SA
BRANCH  10  11
HETATM   11  C4  UNL     1      12.412 -10.473 -12.708  1.00  0.00     0.164 A 
HETATM   12  N3  UNL     1      12.911 -10.055 -13.889  1.00  0.00    -0.321 N 
HETATM   13  C5  UNL     1      12.698  -8.869 -14.457  1.00  0.00     0.131 A 
ATOM     14  H3  UNL     1      13.508 -10.709 -14.395  1.00  0.00     0.169 HD
HETATM   15  N4  UNL     1      13.229  -8.544 -15.610  1.00  0.00    -0.383 N 
HETATM   16  C6  UNL     1      11.902  -7.959 -13.813  1.00  0.00     0.117 A 
ATOM     17  H42 UNL     1      13.822  -9.221 -16.090  1.00  0.00     0.157 HD
ATOM     18  H41 UNL     1      13.066  -7.636 -16.046  1.00  0.00     0.157 HD
HETATM   19  C8  UNL     1      11.375  -8.360 -12.597  1.00  0.00     0.148 A 
HETATM   20  N8  UNL     1      10.545  -7.394 -11.938  1.00  0.00    -0.080 NA
HETATM   21  N9  UNL     1      11.620  -9.564 -12.069  1.00  0.00    -0.322 N 
ATOM     22  H9  UNL     1      11.206  -9.809 -11.169  1.00  0.00     0.169 HD
BRANCH  16  23
HETATM   23  N5  UNL     1      11.638  -6.689 -14.371  1.00  0.00    -0.335 N 
HETATM   24  C7  UNL     1      12.463  -5.523 -14.211  1.00  0.00     0.480 C 
HETATM   25  N6  UNL     1      12.643  -5.097 -12.866  1.00  0.00    -0.033 N 
HETATM   26  N7  UNL     1      11.883  -4.420 -14.970  1.00  0.00    -0.033 N 
ATOM     27  H63 UNL     1      11.739  -4.953 -12.417  1.00  0.00     0.278 HD
ATOM     28  H62 UNL     1      13.004  -5.865 -12.298  1.00  0.00     0.278 HD
ATOM     29  H61 UNL     1      13.229  -4.270 -12.753  1.00  0.00     0.278 HD
ATOM     30  H73 UNL     1      11.735  -4.659 -15.950  1.00  0.00     0.278 HD
ATOM     31  H72 UNL     1      10.910  -4.245 -14.717  1.00  0.00     0.278 HD
ATOM     32  H71 UNL     1      12.468  -3.593 -14.856  1.00  0.00     0.278 HD
ATOM     33  H5  UNL     1      10.793  -6.590 -14.933  1.00  0.00     0.163 HD
ENDBRANCH  16  23
ENDBRANCH  10  11
ENDBRANCH   7  10
ENDBRANCH   6   7
ENDBRANCH   3   6
TORSDOF 5
ENDMDL
MODEL 3
REMARK VINA RESULT: -7.639069389      0.653      1.970
REMARK  5 active torsions:
REMARK  status: ('A' for Active; 'I' for Inactive)
REMARK    1  A    between atoms: C2_3  and  O1_6 
REMARK    2  A    between atoms: O1_6  and  S1_7 
REMARK    3  A    between atoms: S1_7  and  S2_10 
REMARK    4  A    between atoms: S2_10  and  C4_11 
REMARK    5  A    between atoms: C6_18  and  N5_19 
REMARK       I    between atoms: N5_19  and  C7_21 
REMARK       I    between atoms: C7_21  and  N6_22 
REMARK       I    between atoms: C7_21  and  N7_26 
ROOT
HETATM    1  N1  UNL     1      13.877 -14.289 -17.483  1.00  0.00    -0.193 NA
HETATM    2  C1  UNL     1      14.256 -14.278 -16.406  1.00  0.00     0.107 C 
HETATM    3  C2  UNL     1      14.736 -14.292 -15.023  1.00  0.00     0.355 C 
HETATM    4  C3  UNL     1      16.203 -14.417 -14.974  1.00  0.00     0.107 C 
HETATM    5  N2  UNL     1      17.350 -14.503 -14.923  1.00  0.00    -0.193 NA
ENDROOT
BRANCH   3   6
HETATM    6  O1  UNL     1      14.423 -13.035 -14.482  1.00  0.00    -0.232 OA
BRANCH   6   7
HETATM    7  S1  UNL     1      14.177 -13.111 -12.841  1.00  0.00     0.333 S 
HETATM    8  O2  UNL     1      15.034 -12.209 -12.021  1.00  0.00    -0.186 OA
HETATM    9  O3  UNL     1      14.440 -14.488 -12.425  1.00  0.00    -0.186 OA
BRANCH   7  10
HETATM   10  S2  UNL     1      12.341 -12.242 -12.704  1.00  0.00     0.069 SA
BRANCH  10  11
HETATM   11  C4  UNL     1      12.254 -10.570 -13.046  1.00  0.00     0.164 A 
HETATM   12  N3  UNL     1      11.562  -9.709 -12.271  1.00  0.00    -0.321 N 
HETATM   13  C5  UNL     1      11.444  -8.396 -12.466  1.00  0.00     0.131 A 
ATOM     14  H3  UNL     1      11.085 -10.101 -11.459  1.00  0.00     0.169 HD
HETATM   15  N4  UNL     1      10.745  -7.633 -11.662  1.00  0.00    -0.383 N 
HETATM   16  C6  UNL     1      12.070  -7.828 -13.544  1.00  0.00     0.117 A 
ATOM     17  H42 UNL     1      10.279  -8.057 -10.859  1.00  0.00     0.157 HD
ATOM     18  H41 UNL     1      10.655  -6.628 -11.811  1.00  0.00     0.157 HD
HETATM   19  C8  UNL     1      12.788  -8.687 -14.358  1.00  0.00     0.148 A 
HETATM   20  N8  UNL     1      13.435  -8.074 -15.481  1.00  0.00    -0.080 NA
HETATM   21  N9  UNL     1      12.875 -10.000 -14.118  1.00  0.00    -0.322 N 
ATOM     22  H9  UNL     1      13.418 -10.589 -14.751  1.00  0.00     0.169 HD
BRANCH  16  23
HETATM   23  N5  UNL     1      11.983  -6.441 -13.797  1.00  0.00    -0.335 N 
HETATM   24  C7  UNL     1      11.004  -5.809 -14.639  1.00  0.00     0.480 C 
HETATM   25  N6  UNL     1      11.012  -6.241 -15.994  1.00  0.00    -0.033 N 
HETATM   26  N7  UNL     1      11.214  -4.366 -14.614  1.00  0.00    -0.033 N 
ATOM     27  H63 UNL     1      11.944  -6.132 -16.393  1.00  0.00     0.278 HD
ATOM     28  H62 UNL     1      10.916  -7.256 -16.041  1.00  0.00     0.278 HD
ATOM     29  H61 UNL     1      10.318  -5.793 -16.591  1.00  0.00     0.278 HD
ATOM     30  H73 UNL     1      11.210  -3.990 -13.665  1.00  0.00     0.278 HD
ATOM     31  H72 UNL     1      12.168  -4.108 -14.867  1.00  0.00     0.278 HD
ATOM     32  H71 UNL     1      10.519  -3.918 -15.211  1.00  0.00     0.278 HD
ATOM     33  H5  UNL     1      12.670  -5.839 -13.345  1.00  0.00     0.163 HD
ENDBRANCH  16  23
ENDBRANCH  10  11
ENDBRANCH   7  10
ENDBRANCH   6   7
ENDBRANCH   3   6
TORSDOF 5
ENDMDL
MODEL 4
REMARK VINA RESULT: -7.602626568      3.223      7.288
REMARK  5 active torsions:
REMARK  status: ('A' for Active; 'I' for Inactive)
REMARK    1  A    between atoms: C2_3  and  O1_6 
REMARK    2  A    between atoms: O1_6  and  S1_7 
REMARK    3  A    between atoms: S1_7  and  S2_10 
REMARK    4  A    between atoms: S2_10  and  C4_11 
REMARK    5  A    between atoms: C6_18  and  N5_19 
REMARK       I    between atoms: N5_19  and  C7_21 
REMARK       I    between atoms: C7_21  and  N6_22 
REMARK       I    between atoms: C7_21  and  N7_26 
ROOT
HETATM    1  N1  UNL     1      13.482  -7.096 -15.297  1.00  0.00    -0.193 NA
HETATM    2  C1  UNL     1      12.810  -7.017 -14.376  1.00  0.00     0.107 C 
HETATM    3  C2  UNL     1      11.968  -6.901 -13.185  1.00  0.00     0.355 C 
HETATM    4  C3  UNL     1      11.018  -5.783 -13.315  1.00  0.00     0.107 C 
HETATM    5  N2  UNL     1      10.263  -4.919 -13.410  1.00  0.00    -0.193 NA
ENDROOT
BRANCH   3   6
HETATM    6  O1  UNL     1      11.200  -8.075 -13.126  1.00  0.00    -0.232 OA
BRANCH   6   7
HETATM    7  S1  UNL     1      10.999  -8.606 -11.565  1.00  0.00     0.333 S 
HETATM    8  O2  UNL     1       9.782  -8.107 -10.867  1.00  0.00    -0.186 OA
HETATM    9  O3  UNL     1      12.169  -8.171 -10.803  1.00  0.00    -0.186 OA
BRANCH   7  10
HETATM   10  S2  UNL     1      10.560 -10.567 -11.898  1.00  0.00     0.069 SA
BRANCH  10  11
HETATM   11  C4  UNL     1      11.879 -11.606 -12.216  1.00  0.00     0.164 A 
HETATM   12  N3  UNL     1      11.727 -12.798 -12.829  1.00  0.00    -0.321 N 
HETATM   13  C5  UNL     1      12.698 -13.665 -13.113  1.00  0.00     0.131 A 
ATOM     14  H3  UNL     1      10.779 -13.060 -13.101  1.00  0.00     0.169 HD
HETATM   15  N4  UNL     1      12.459 -14.808 -13.709  1.00  0.00    -0.383 N 
HETATM   16  C6  UNL     1      13.986 -13.354 -12.767  1.00  0.00     0.117 A 
ATOM     17  H42 UNL     1      11.499 -15.040 -13.967  1.00  0.00     0.157 HD
ATOM     18  H41 UNL     1      13.202 -15.471 -13.927  1.00  0.00     0.157 HD
HETATM   19  C8  UNL     1      14.173 -12.136 -12.135  1.00  0.00     0.148 A 
HETATM   20  N8  UNL     1      15.528 -11.828 -11.780  1.00  0.00    -0.080 NA
HETATM   21  N9  UNL     1      13.162 -11.300 -11.872  1.00  0.00    -0.322 N 
ATOM     22  H9  UNL     1      13.355 -10.415 -11.404  1.00  0.00     0.169 HD
BRANCH  16  23
HETATM   23  N5  UNL     1      15.055 -14.233 -13.048  1.00  0.00    -0.335 N 
HETATM   24  C7  UNL     1      15.915 -14.156 -14.197  1.00  0.00     0.480 C 
HETATM   25  N6  UNL     1      15.251 -14.270 -15.449  1.00  0.00    -0.033 N 
HETATM   26  N7  UNL     1      16.922 -15.208 -14.111  1.00  0.00    -0.033 N 
ATOM     27  H63 UNL     1      14.699 -15.126 -15.480  1.00  0.00     0.278 HD
ATOM     28  H62 UNL     1      14.506 -13.576 -15.519  1.00  0.00     0.278 HD
ATOM     29  H61 UNL     1      15.862 -14.215 -16.265  1.00  0.00     0.278 HD
ATOM     30  H73 UNL     1      17.443 -15.176 -13.234  1.00  0.00     0.278 HD
ATOM     31  H72 UNL     1      16.507 -16.133 -13.998  1.00  0.00     0.278 HD
ATOM     32  H71 UNL     1      17.532 -15.153 -14.926  1.00  0.00     0.278 HD
ATOM     33  H5  UNL     1      15.232 -14.984 -12.381  1.00  0.00     0.163 HD
ENDBRANCH  16  23
ENDBRANCH  10  11
ENDBRANCH   7  10
ENDBRANCH   6   7
ENDBRANCH   3   6
TORSDOF 5
ENDMDL
MODEL 5
REMARK VINA RESULT: -7.518263407      2.915      4.137
REMARK  5 active torsions:
REMARK  status: ('A' for Active; 'I' for Inactive)
REMARK    1  A    between atoms: C2_3  and  O1_6 
REMARK    2  A    between atoms: O1_6  and  S1_7 
REMARK    3  A    between atoms: S1_7  and  S2_10 
REMARK    4  A    between atoms: S2_10  and  C4_11 
REMARK    5  A    between atoms: C6_18  and  N5_19 
REMARK       I    between atoms: N5_19  and  C7_21 
REMARK       I    between atoms: C7_21  and  N6_22 
REMARK       I    between atoms: C7_21  and  N7_26 
ROOT
HETATM    1  N1  UNL     1      18.066 -14.135 -14.950  1.00  0.00    -0.193 NA
HETATM    2  C1  UNL     1      17.034 -14.483 -15.294  1.00  0.00     0.107 C 
HETATM    3  C2  UNL     1      15.714 -14.914 -15.757  1.00  0.00     0.355 C 
HETATM    4  C3  UNL     1      15.805 -16.170 -16.520  1.00  0.00     0.107 C 
HETATM    5  N2  UNL     1      15.862 -17.158 -17.109  1.00  0.00    -0.193 NA
ENDROOT
BRANCH   3   6
HETATM    6  O1  UNL     1      14.963 -15.198 -14.605  1.00  0.00    -0.232 OA
BRANCH   6   7
HETATM    7  S1  UNL     1      13.517 -14.380 -14.591  1.00  0.00     0.333 S 
HETATM    8  O2  UNL     1      12.374 -15.107 -13.972  1.00  0.00    -0.186 OA
HETATM    9  O3  UNL     1      13.169 -14.088 -15.981  1.00  0.00    -0.186 OA
BRANCH   7  10
HETATM   10  S2  UNL     1      13.929 -12.930 -13.222  1.00  0.00     0.069 SA
BRANCH  10  11
HETATM   11  C4  UNL     1      12.590 -12.121 -12.534  1.00  0.00     0.164 A 
HETATM   12  N3  UNL     1      12.029 -11.037 -13.107  1.00  0.00    -0.321 N 
HETATM   13  C5  UNL     1      10.988 -10.350 -12.638  1.00  0.00     0.131 A 
ATOM     14  H3  UNL     1      12.440 -10.713 -13.983  1.00  0.00     0.169 HD
HETATM   15  N4  UNL     1      10.508  -9.301 -13.261  1.00  0.00    -0.383 N 
HETATM   16  C6  UNL     1      10.404 -10.751 -11.466  1.00  0.00     0.117 A 
ATOM     17  H42 UNL     1      10.943  -9.003 -14.135  1.00  0.00     0.157 HD
ATOM     18  H41 UNL     1       9.711  -8.775 -12.903  1.00  0.00     0.157 HD
HETATM   19  C8  UNL     1      10.959 -11.861 -10.854  1.00  0.00     0.148 A 
HETATM   20  N8  UNL     1      10.335 -12.265  -9.627  1.00  0.00    -0.080 NA
HETATM   21  N9  UNL     1      12.007 -12.516 -11.367  1.00  0.00    -0.322 N 
ATOM     22  H9  UNL     1      12.377 -13.329 -10.874  1.00  0.00     0.169 HD
BRANCH  16  23
HETATM   23  N5  UNL     1       9.295 -10.063 -10.925  1.00  0.00    -0.335 N 
HETATM   24  C7  UNL     1       9.368  -8.965 -10.000  1.00  0.00     0.480 C 
HETATM   25  N6  UNL     1      10.017  -9.261  -8.770  1.00  0.00    -0.033 N 
HETATM   26  N7  UNL     1       8.018  -8.496  -9.709  1.00  0.00    -0.033 N 
ATOM     27  H63 UNL     1       9.579 -10.067  -8.325  1.00  0.00     0.278 HD
ATOM     28  H62 UNL     1      10.949  -9.638  -8.944  1.00  0.00     0.278 HD
ATOM     29  H61 UNL     1      10.069  -8.482  -8.114  1.00  0.00     0.278 HD
ATOM     30  H73 UNL     1       7.499  -8.257 -10.554  1.00  0.00     0.278 HD
ATOM     31  H72 UNL     1       7.411  -9.245  -9.375  1.00  0.00     0.278 HD
ATOM     32  H71 UNL     1       8.070  -7.717  -9.053  1.00  0.00     0.278 HD
ATOM     33  H5  UNL     1       8.367 -10.370 -11.214  1.00  0.00     0.163 HD
ENDBRANCH  16  23
ENDBRANCH  10  11
ENDBRANCH   7  10
ENDBRANCH   6   7
ENDBRANCH   3   6
TORSDOF 5
ENDMDL
