MODEL 1
REMARK VINA RESULT: -8.273251543      0.000      0.000
REMARK  9 active torsions:
REMARK  status: ('A' for Active; 'I' for Inactive)
REMARK    1  A    between atoms: N1_2  and  C2_3 
REMARK    2  A    between atoms: N1_2  and  C8_16 
REMARK    3  A    between atoms: C3_8  and  N4_9 
REMARK    4  A    between atoms: C10_25  and  N9_26 
REMARK    5  A    between atoms: N9_26  and  N10_28 
REMARK    6  A    between atoms: N10_28  and  N11_30 
REMARK    7  A    between atoms: N11_30  and  N12_32 
REMARK    8  A    between atoms: N12_32  and  N13_34 
REMARK    9  A    between atoms: N13_34  and  O2_36 
ROOT
HETATM    1  C8  UNL     1      13.591 -10.432 -12.240  1.00  0.00     0.183 A 
HETATM    2  N6  UNL     1      14.504 -10.765 -11.338  1.00  0.00    -0.278 N 
ATOM      3  H6  UNL     1      14.460 -11.682 -10.892  1.00  0.00     0.189 HD
HETATM    4  N7  UNL     1      15.457  -9.935 -11.012  1.00  0.00    -0.250 N 
ATOM      5  H7  UNL     1      16.152 -10.204 -10.316  1.00  0.00     0.192 HD
HETATM    6  C9  UNL     1      15.521  -8.738 -11.590  1.00  0.00     0.340 A 
HETATM    7  O1  UNL     1      16.423  -7.921 -11.297  1.00  0.00    -0.245 OA
HETATM    8  N8  UNL     1      14.620  -8.334 -12.520  1.00  0.00    -0.289 N 
ATOM      9  H8  UNL     1      14.684  -7.412 -12.952  1.00  0.00     0.172 HD
HETATM   10  C10 UNL     1      13.652  -9.184 -12.848  1.00  0.00     0.172 A 
ENDROOT
BRANCH   1  11
HETATM   11  N1  UNL     1      12.565 -11.353 -12.550  1.00  0.00    -0.166 N 
HETATM   12  C1  UNL     1      11.209 -11.013 -12.189  1.00  0.00     0.177 C 
BRANCH  11  13
HETATM   13  C2  UNL     1      12.848 -12.575 -13.206  1.00  0.00     0.715 A 
HETATM   14  N2  UNL     1      12.500 -13.825 -12.792  1.00  0.00    -0.117 N 
HETATM   15  N3  UNL     1      12.944 -14.717 -13.647  1.00  0.00    -0.117 N 
ATOM     16  H2  UNL     1      11.973 -14.036 -11.945  1.00  0.00     0.206 HD
HETATM   17  C3  UNL     1      13.593 -14.103 -14.644  1.00  0.00     0.709 A 
ATOM     18  H3  UNL     1      12.815 -15.725 -13.564  1.00  0.00     0.206 HD
HETATM   19  N5  UNL     1      13.521 -12.777 -14.352  1.00  0.00    -0.019 N 
ATOM     20  H5  UNL     1      13.924 -12.035 -14.924  1.00  0.00     0.203 HD
BRANCH  17  21
HETATM   21  N4  UNL     1      14.235 -14.704 -15.778  1.00  0.00    -0.216 N 
HETATM   22  C4  UNL     1      15.325 -15.637 -15.791  1.00  0.00     0.141 C 
HETATM   23  C5  UNL     1      15.285 -16.275 -17.152  1.00  0.00     0.022 C 
HETATM   24  C6  UNL     1      14.750 -15.174 -18.037  1.00  0.00     0.022 C 
HETATM   25  C7  UNL     1      13.831 -14.416 -17.141  1.00  0.00     0.141 C 
ENDBRANCH  17  21
ENDBRANCH  11  13
ENDBRANCH   1  11
BRANCH  10  26
HETATM   26  N9  UNL     1      12.743  -8.954 -13.710  1.00  0.00    -0.266 N 
ATOM     27  H9  UNL     1      11.829  -8.639 -13.383  1.00  0.00     0.190 HD
BRANCH  26  28
HETATM   28  N10 UNL     1      12.942  -9.114 -15.065  1.00  0.00    -0.225 N 
ATOM     29  H10 UNL     1      12.484  -9.876 -15.566  1.00  0.00     0.210 HD
BRANCH  28  30
HETATM   30  N11 UNL     1      13.799  -8.200 -15.764  1.00  0.00    -0.212 N 
ATOM     31  H11 UNL     1      14.589  -8.521 -16.324  1.00  0.00     0.211 HD
BRANCH  30  32
HETATM   32  N12 UNL     1      13.509  -6.947 -15.642  1.00  0.00    -0.207 N 
ATOM     33  H12 UNL     1      14.031  -6.374 -14.979  1.00  0.00     0.212 HD
BRANCH  32  34
HETATM   34  N13 UNL     1      12.498  -6.370 -16.399  1.00  0.00    -0.194 N 
ATOM     35  H13 UNL     1      12.701  -5.918 -17.291  1.00  0.00     0.217 HD
BRANCH  34  36
HETATM   36  O2  UNL     1      11.237  -6.425 -15.916  1.00  0.00    -0.273 OA
ATOM     37  H2  UNL     1      10.584  -5.860 -16.313  1.00  0.00     0.246 HD
ENDBRANCH  34  36
ENDBRANCH  32  34
ENDBRANCH  30  32
ENDBRANCH  28  30
ENDBRANCH  26  28
ENDBRANCH  10  26
TORSDOF 9
ENDMDL
MODEL 2
REMARK VINA RESULT: -8.224645713      2.470      4.309
REMARK  9 active torsions:
REMARK  status: ('A' for Active; 'I' for Inactive)
REMARK    1  A    between atoms: N1_2  and  C2_3 
REMARK    2  A    between atoms: N1_2  and  C8_16 
REMARK    3  A    between atoms: C3_8  and  N4_9 
REMARK    4  A    between atoms: C10_25  and  N9_26 
REMARK    5  A    between atoms: N9_26  and  N10_28 
REMARK    6  A    between atoms: N10_28  and  N11_30 
REMARK    7  A    between atoms: N11_30  and  N12_32 
REMARK    8  A    between atoms: N12_32  and  N13_34 
REMARK    9  A    between atoms: N13_34  and  O2_36 
ROOT
HETATM    1  C8  UNL     1      12.637 -10.397 -13.119  1.00  0.00     0.183 A 
HETATM    2  N6  UNL     1      13.419  -9.560 -13.786  1.00  0.00    -0.278 N 
ATOM      3  H6  UNL     1      14.409  -9.776 -13.897  1.00  0.00     0.189 HD
HETATM    4  N7  UNL     1      12.936  -8.463 -14.302  1.00  0.00    -0.250 N 
ATOM      5  H7  UNL     1      13.549  -7.827 -14.813  1.00  0.00     0.192 HD
HETATM    6  C9  UNL     1      11.645  -8.174 -14.163  1.00  0.00     0.340 A 
HETATM    7  O1  UNL     1      11.155  -7.129 -14.647  1.00  0.00    -0.245 OA
HETATM    8  N8  UNL     1      10.790  -8.987 -13.493  1.00  0.00    -0.289 N 
ATOM      9  H8  UNL     1       9.803  -8.750 -13.394  1.00  0.00     0.172 HD
HETATM   10  C10 UNL     1      11.286 -10.104 -12.970  1.00  0.00     0.172 A 
ENDROOT
BRANCH   1  11
HETATM   11  N1  UNL     1      13.203 -11.565 -12.559  1.00  0.00    -0.166 N 
HETATM   12  C1  UNL     1      13.696 -11.504 -11.203  1.00  0.00     0.177 C 
BRANCH  11  13
HETATM   13  C2  UNL     1      13.278 -12.771 -13.297  1.00  0.00     0.715 A 
HETATM   14  N2  UNL     1      12.629 -13.937 -13.025  1.00  0.00    -0.117 N 
HETATM   15  N3  UNL     1      12.951 -14.845 -13.918  1.00  0.00    -0.117 N 
ATOM     16  H2  UNL     1      11.989 -14.084 -12.245  1.00  0.00     0.206 HD
HETATM   17  C3  UNL     1      13.811 -14.323 -14.802  1.00  0.00     0.709 A 
ATOM     18  H3  UNL     1      12.599 -15.802 -13.936  1.00  0.00     0.206 HD
HETATM   19  N5  UNL     1      13.999 -13.038 -14.399  1.00  0.00    -0.019 N 
ATOM     20  H5  UNL     1      14.607 -12.367 -14.869  1.00  0.00     0.203 HD
BRANCH  17  21
HETATM   21  N4  UNL     1      14.416 -14.972 -15.930  1.00  0.00    -0.216 N 
HETATM   22  C4  UNL     1      15.489 -15.925 -15.937  1.00  0.00     0.141 C 
HETATM   23  C5  UNL     1      15.405 -16.606 -17.275  1.00  0.00     0.022 C 
HETATM   24  C6  UNL     1      14.868 -15.525 -18.183  1.00  0.00     0.022 C 
HETATM   25  C7  UNL     1      13.985 -14.722 -17.292  1.00  0.00     0.141 C 
ENDBRANCH  17  21
ENDBRANCH  11  13
ENDBRANCH   1  11
BRANCH  10  26
HETATM   26  N9  UNL     1      10.610 -10.969 -12.326  1.00  0.00    -0.266 N 
ATOM     27  H9  UNL     1      10.988 -11.912 -12.230  1.00  0.00     0.190 HD
BRANCH  26  28
HETATM   28  N10 UNL     1       9.389 -10.685 -11.752  1.00  0.00    -0.225 N 
ATOM     29  H10 UNL     1       8.552 -10.617 -12.332  1.00  0.00     0.210 HD
BRANCH  28  30
HETATM   30  N11 UNL     1       9.305 -10.487 -10.334  1.00  0.00    -0.212 N 
ATOM     31  H11 UNL     1       9.588  -9.612  -9.892  1.00  0.00     0.211 HD
BRANCH  30  32
HETATM   32  N12 UNL     1       8.849 -11.483  -9.650  1.00  0.00    -0.207 N 
ATOM     33  H12 UNL     1       7.870 -11.488  -9.362  1.00  0.00     0.212 HD
BRANCH  32  34
HETATM   34  N13 UNL     1       9.670 -12.548  -9.301  1.00  0.00    -0.194 N 
ATOM     35  H13 UNL     1       9.448 -13.145  -8.504  1.00  0.00     0.217 HD
BRANCH  34  36
HETATM   36  O2  UNL     1      10.774 -12.766 -10.050  1.00  0.00    -0.273 OA
ATOM     37  H2  UNL     1      11.361 -13.463  -9.783  1.00  0.00     0.246 HD
ENDBRANCH  34  36
ENDBRANCH  32  34
ENDBRANCH  30  32
ENDBRANCH  28  30
ENDBRANCH  26  28
ENDBRANCH  10  26
TORSDOF 9
ENDMDL
MODEL 3
REMARK VINA RESULT: -8.221509695      2.275      3.214
REMARK  9 active torsions:
REMARK  status: ('A' for Active; 'I' for Inactive)
REMARK    1  A    between atoms: N1_2  and  C2_3 
REMARK    2  A    between atoms: N1_2  and  C8_16 
REMARK    3  A    between atoms: C3_8  and  N4_9 
REMARK    4  A    between atoms: C10_25  and  N9_26 
REMARK    5  A    between atoms: N9_26  and  N10_28 
REMARK    6  A    between atoms: N10_28  and  N11_30 
REMARK    7  A    between atoms: N11_30  and  N12_32 
REMARK    8  A    between atoms: N12_32  and  N13_34 
REMARK    9  A    between atoms: N13_34  and  O2_36 
ROOT
HETATM    1  C8  UNL     1      11.987 -11.776 -11.714  1.00  0.00     0.183 A 
HETATM    2  N6  UNL     1      11.609 -12.370 -10.590  1.00  0.00    -0.278 N 
ATOM      3  H6  UNL     1      12.213 -13.073 -10.164  1.00  0.00     0.189 HD
HETATM    4  N7  UNL     1      10.474 -12.066 -10.023  1.00  0.00    -0.250 N 
ATOM      5  H7  UNL     1      10.194 -12.531  -9.159  1.00  0.00     0.192 HD
HETATM    6  C9  UNL     1       9.681 -11.150 -10.572  1.00  0.00     0.340 A 
HETATM    7  O1  UNL     1       8.586 -10.839 -10.050  1.00  0.00    -0.245 OA
HETATM    8  N8  UNL     1      10.007 -10.504 -11.720  1.00  0.00    -0.289 N 
ATOM      9  H8  UNL     1       9.386  -9.805 -12.128  1.00  0.00     0.172 HD
HETATM   10  C10 UNL     1      11.165 -10.817 -12.293  1.00  0.00     0.172 A 
ENDROOT
BRANCH   1  11
HETATM   11  N1  UNL     1      13.215 -12.148 -12.306  1.00  0.00    -0.166 N 
HETATM   12  C1  UNL     1      14.397 -11.391 -11.965  1.00  0.00     0.177 C 
BRANCH  11  13
HETATM   13  C2  UNL     1      13.296 -13.240 -13.204  1.00  0.00     0.715 A 
HETATM   14  N2  UNL     1      12.605 -14.410 -13.130  1.00  0.00    -0.117 N 
HETATM   15  N3  UNL     1      12.947 -15.194 -14.127  1.00  0.00    -0.117 N 
ATOM     16  H2  UNL     1      11.923 -14.644 -12.409  1.00  0.00     0.206 HD
HETATM   17  C3  UNL     1      13.863 -14.582 -14.888  1.00  0.00     0.709 A 
ATOM     18  H3  UNL     1      12.572 -16.127 -14.297  1.00  0.00     0.206 HD
HETATM   19  N5  UNL     1      14.065 -13.373 -14.298  1.00  0.00    -0.019 N 
ATOM     20  H5  UNL     1      14.712 -12.662 -14.640  1.00  0.00     0.203 HD
BRANCH  17  21
HETATM   21  N4  UNL     1      14.507 -15.085 -16.067  1.00  0.00    -0.216 N 
HETATM   22  C4  UNL     1      15.620 -15.986 -16.157  1.00  0.00     0.141 C 
HETATM   23  C5  UNL     1      15.579 -16.529 -17.559  1.00  0.00     0.022 C 
HETATM   24  C6  UNL     1      15.005 -15.384 -18.359  1.00  0.00     0.022 C 
HETATM   25  C7  UNL     1      14.078 -14.715 -17.403  1.00  0.00     0.141 C 
ENDBRANCH  17  21
ENDBRANCH  11  13
ENDBRANCH   1  11
BRANCH  10  26
HETATM   26  N9  UNL     1      11.613 -10.291 -13.362  1.00  0.00    -0.266 N 
ATOM     27  H9  UNL     1      11.799 -10.895 -14.163  1.00  0.00     0.190 HD
BRANCH  26  28
HETATM   28  N10 UNL     1      11.858  -8.940 -13.483  1.00  0.00    -0.225 N 
ATOM     29  H10 UNL     1      11.121  -8.263 -13.282  1.00  0.00     0.210 HD
BRANCH  28  30
HETATM   30  N11 UNL     1      13.158  -8.493 -13.896  1.00  0.00    -0.212 N 
ATOM     31  H11 UNL     1      13.909  -8.323 -13.226  1.00  0.00     0.211 HD
BRANCH  30  32
HETATM   32  N12 UNL     1      13.319  -8.319 -15.165  1.00  0.00    -0.207 N 
ATOM     33  H12 UNL     1      13.148  -7.400 -15.572  1.00  0.00     0.212 HD
BRANCH  32  34
HETATM   34  N13 UNL     1      13.722  -9.366 -15.985  1.00  0.00    -0.194 N 
ATOM     35  H13 UNL     1      13.921  -9.213 -16.974  1.00  0.00     0.217 HD
BRANCH  34  36
HETATM   36  O2  UNL     1      13.842 -10.592 -15.431  1.00  0.00    -0.273 OA
ATOM     37  H2  UNL     1      13.760 -10.663 -14.487  1.00  0.00     0.246 HD
ENDBRANCH  34  36
ENDBRANCH  32  34
ENDBRANCH  30  32
ENDBRANCH  28  30
ENDBRANCH  26  28
ENDBRANCH  10  26
TORSDOF 9
ENDMDL
MODEL 4
REMARK VINA RESULT: -8.135289987      1.918      2.576
REMARK  9 active torsions:
REMARK  status: ('A' for Active; 'I' for Inactive)
REMARK    1  A    between atoms: N1_2  and  C2_3 
REMARK    2  A    between atoms: N1_2  and  C8_16 
REMARK    3  A    between atoms: C3_8  and  N4_9 
REMARK    4  A    between atoms: C10_25  and  N9_26 
REMARK    5  A    between atoms: N9_26  and  N10_28 
REMARK    6  A    between atoms: N10_28  and  N11_30 
REMARK    7  A    between atoms: N11_30  and  N12_32 
REMARK    8  A    between atoms: N12_32  and  N13_34 
REMARK    9  A    between atoms: N13_34  and  O2_36 
ROOT
HETATM    1  C8  UNL     1      12.297 -11.150 -11.962  1.00  0.00     0.183 A 
HETATM    2  N6  UNL     1      11.654 -11.486 -10.851  1.00  0.00    -0.278 N 
ATOM      3  H6  UNL     1      12.033 -12.220 -10.252  1.00  0.00     0.189 HD
HETATM    4  N7  UNL     1      10.544 -10.890 -10.515  1.00  0.00    -0.250 N 
ATOM      5  H7  UNL     1      10.059 -11.158  -9.658  1.00  0.00     0.192 HD
HETATM    6  C9  UNL     1      10.043  -9.931 -11.290  1.00  0.00     0.340 A 
HETATM    7  O1  UNL     1       8.979  -9.342 -10.993  1.00  0.00    -0.245 OA
HETATM    8  N8  UNL     1      10.649  -9.539 -12.439  1.00  0.00    -0.289 N 
ATOM      9  H8  UNL     1      10.251  -8.803 -13.022  1.00  0.00     0.172 HD
HETATM   10  C10 UNL     1      11.781 -10.149 -12.776  1.00  0.00     0.172 A 
ENDROOT
BRANCH   1  11
HETATM   11  N1  UNL     1      13.486 -11.834 -12.299  1.00  0.00    -0.166 N 
HETATM   12  C1  UNL     1      14.730 -11.360 -11.741  1.00  0.00     0.177 C 
BRANCH  11  13
HETATM   13  C2  UNL     1      13.466 -12.963 -13.154  1.00  0.00     0.715 A 
HETATM   14  N2  UNL     1      12.680 -14.068 -13.030  1.00  0.00    -0.117 N 
HETATM   15  N3  UNL     1      12.946 -14.915 -13.998  1.00  0.00    -0.117 N 
ATOM     16  H2  UNL     1      11.988 -14.216 -12.295  1.00  0.00     0.206 HD
HETATM   17  C3  UNL     1      13.902 -14.412 -14.788  1.00  0.00     0.709 A 
ATOM     18  H3  UNL     1      12.492 -15.819 -14.128  1.00  0.00     0.206 HD
HETATM   19  N5  UNL     1      14.210 -13.202 -14.247  1.00  0.00    -0.019 N 
ATOM     20  H5  UNL     1      14.911 -12.563 -14.621  1.00  0.00     0.203 HD
BRANCH  17  21
HETATM   21  N4  UNL     1      14.489 -15.013 -15.951  1.00  0.00    -0.216 N 
HETATM   22  C4  UNL     1      15.555 -15.972 -16.014  1.00  0.00     0.141 C 
HETATM   23  C5  UNL     1      15.450 -16.590 -17.381  1.00  0.00     0.022 C 
HETATM   24  C6  UNL     1      14.912 -15.465 -18.233  1.00  0.00     0.022 C 
HETATM   25  C7  UNL     1      14.045 -14.697 -17.295  1.00  0.00     0.141 C 
ENDBRANCH  17  21
ENDBRANCH  11  13
ENDBRANCH   1  11
BRANCH  10  26
HETATM   26  N9  UNL     1      12.469  -9.885 -13.814  1.00  0.00    -0.266 N 
ATOM     27  H9  UNL     1      13.092 -10.604 -14.183  1.00  0.00     0.190 HD
BRANCH  26  28
HETATM   28  N10 UNL     1      12.408  -8.669 -14.460  1.00  0.00    -0.225 N 
ATOM     29  H10 UNL     1      11.658  -8.010 -14.246  1.00  0.00     0.210 HD
BRANCH  28  30
HETATM   30  N11 UNL     1      13.406  -8.337 -15.435  1.00  0.00    -0.212 N 
ATOM     31  H11 UNL     1      13.909  -9.053 -15.960  1.00  0.00     0.211 HD
BRANCH  30  32
HETATM   32  N12 UNL     1      13.630  -7.077 -15.609  1.00  0.00    -0.207 N 
ATOM     33  H12 UNL     1      14.460  -6.653 -15.195  1.00  0.00     0.212 HD
BRANCH  32  34
HETATM   34  N13 UNL     1      12.758  -6.291 -16.352  1.00  0.00    -0.194 N 
ATOM     35  H13 UNL     1      13.097  -5.704 -17.114  1.00  0.00     0.217 HD
BRANCH  34  36
HETATM   36  O2  UNL     1      11.446  -6.328 -16.030  1.00  0.00    -0.273 OA
ATOM     37  H2  UNL     1      10.978  -7.144 -16.163  1.00  0.00     0.246 HD
ENDBRANCH  34  36
ENDBRANCH  32  34
ENDBRANCH  30  32
ENDBRANCH  28  30
ENDBRANCH  26  28
ENDBRANCH  10  26
TORSDOF 9
ENDMDL
MODEL 5
REMARK VINA RESULT: -8.090577425      1.669      4.106
REMARK  9 active torsions:
REMARK  status: ('A' for Active; 'I' for Inactive)
REMARK    1  A    between atoms: N1_2  and  C2_3 
REMARK    2  A    between atoms: N1_2  and  C8_16 
REMARK    3  A    between atoms: C3_8  and  N4_9 
REMARK    4  A    between atoms: C10_25  and  N9_26 
REMARK    5  A    between atoms: N9_26  and  N10_28 
REMARK    6  A    between atoms: N10_28  and  N11_30 
REMARK    7  A    between atoms: N11_30  and  N12_32 
REMARK    8  A    between atoms: N12_32  and  N13_34 
REMARK    9  A    between atoms: N13_34  and  O2_36 
ROOT
HETATM    1  C8  UNL     1      12.752 -10.201 -13.116  1.00  0.00     0.183 A 
HETATM    2  N6  UNL     1      12.252  -9.579 -14.176  1.00  0.00    -0.278 N 
ATOM      3  H6  UNL     1      11.471  -9.996 -14.682  1.00  0.00     0.189 HD
HETATM    4  N7  UNL     1      12.748  -8.442 -14.579  1.00  0.00    -0.250 N 
ATOM      5  H7  UNL     1      12.355  -7.974 -15.395  1.00  0.00     0.192 HD
HETATM    6  C9  UNL     1      13.767  -7.891 -13.923  1.00  0.00     0.340 A 
HETATM    7  O1  UNL     1      14.263  -6.801 -14.288  1.00  0.00    -0.245 OA
HETATM    8  N8  UNL     1      14.325  -8.473 -12.832  1.00  0.00    -0.289 N 
ATOM      9  H8  UNL     1      15.107  -8.038 -12.342  1.00  0.00     0.172 HD
HETATM   10  C10 UNL     1      13.816  -9.632 -12.426  1.00  0.00     0.172 A 
ENDROOT
BRANCH   1  11
HETATM   11  N1  UNL     1      12.199 -11.441 -12.724  1.00  0.00    -0.166 N 
HETATM   12  C1  UNL     1      11.121 -11.436 -11.764  1.00  0.00     0.177 C 
BRANCH  11  13
HETATM   13  C2  UNL     1      12.676 -12.660 -13.263  1.00  0.00     0.715 A 
HETATM   14  N2  UNL     1      12.589 -13.894 -12.694  1.00  0.00    -0.117 N 
HETATM   15  N3  UNL     1      13.152 -14.787 -13.476  1.00  0.00    -0.117 N 
ATOM     16  H2  UNL     1      12.151 -14.096 -11.796  1.00  0.00     0.206 HD
HETATM   17  C3  UNL     1      13.627 -14.188 -14.575  1.00  0.00     0.709 A 
ATOM     18  H3  UNL     1      13.218 -15.785 -13.276  1.00  0.00     0.206 HD
HETATM   19  N5  UNL     1      13.321 -12.871 -14.423  1.00  0.00    -0.019 N 
ATOM     20  H5  UNL     1      13.550 -12.142 -15.098  1.00  0.00     0.203 HD
BRANCH  17  21
HETATM   21  N4  UNL     1      14.318 -14.792 -15.678  1.00  0.00    -0.216 N 
HETATM   22  C4  UNL     1      15.506 -15.595 -15.650  1.00  0.00     0.141 C 
HETATM   23  C5  UNL     1      15.519 -16.329 -16.963  1.00  0.00     0.022 C 
HETATM   24  C6  UNL     1      14.850 -15.362 -17.910  1.00  0.00     0.022 C 
HETATM   25  C7  UNL     1      13.864 -14.650 -17.049  1.00  0.00     0.141 C 
ENDBRANCH  17  21
ENDBRANCH  11  13
ENDBRANCH   1  11
BRANCH  10  26
HETATM   26  N9  UNL     1      14.223 -10.291 -11.415  1.00  0.00    -0.266 N 
ATOM     27  H9  UNL     1      14.661 -11.200 -11.570  1.00  0.00     0.190 HD
BRANCH  26  28
HETATM   28  N10 UNL     1      14.096  -9.829 -10.123  1.00  0.00    -0.225 N 
ATOM     29  H10 UNL     1      14.313  -8.857  -9.900  1.00  0.00     0.210 HD
BRANCH  28  30
HETATM   30  N11 UNL     1      13.656 -10.727  -9.093  1.00  0.00    -0.212 N 
ATOM     31  H11 UNL     1      12.681 -11.016  -9.008  1.00  0.00     0.211 HD
BRANCH  30  32
HETATM   32  N12 UNL     1      14.569 -11.147  -8.282  1.00  0.00    -0.207 N 
ATOM     33  H12 UNL     1      14.724 -10.654  -7.402  1.00  0.00     0.212 HD
BRANCH  32  34
HETATM   34  N13 UNL     1      15.342 -12.260  -8.588  1.00  0.00    -0.194 N 
ATOM     35  H13 UNL     1      15.432 -13.035  -7.932  1.00  0.00     0.217 HD
BRANCH  34  36
HETATM   36  O2  UNL     1      15.971 -12.281  -9.784  1.00  0.00    -0.273 OA
ATOM     37  H2  UNL     1      16.919 -12.219  -9.788  1.00  0.00     0.246 HD
ENDBRANCH  34  36
ENDBRANCH  32  34
ENDBRANCH  30  32
ENDBRANCH  28  30
ENDBRANCH  26  28
ENDBRANCH  10  26
TORSDOF 9
ENDMDL
