MODEL 1
REMARK VINA RESULT: -7.945502194      0.000      0.000
REMARK  8 active torsions:
REMARK  status: ('A' for Active; 'I' for Inactive)
REMARK    1  A    between atoms: N1_1  and  C1_4 
REMARK    2  A    between atoms: C4_10  and  N4_11 
REMARK    3  A    between atoms: N4_11  and  N5_13 
REMARK    4  A    between atoms: C7_20  and  C8_21 
REMARK    5  A    between atoms: C8_21  and  N7_22 
REMARK    6  A    between atoms: C8_21  and  N8_26 
REMARK    7  A    between atoms: N9_31  and  C10_32 
REMARK    8  A    between atoms: C11_34  and  N10_35 
ROOT
HETATM    1  N5  UNL     1      13.490 -10.637 -14.511  1.00  0.00    -0.131 N 
ATOM      2  H5  UNL     1      14.277 -10.510 -15.147  1.00  0.00     0.205 HD
HETATM    3  C5  UNL     1      12.967  -9.536 -14.434  1.00  0.00     0.708 A 
HETATM    4  N6  UNL     1      13.531  -8.503 -15.162  1.00  0.00    -0.153 N 
ATOM      5  H6  UNL     1      14.358  -8.700 -15.725  1.00  0.00     0.187 HD
HETATM    6  C6  UNL     1      13.043  -7.262 -15.163  1.00  0.00     0.271 A 
HETATM    7  O1  UNL     1      13.571  -6.322 -15.838  1.00  0.00    -0.267 OA
HETATM    8  C7  UNL     1      11.928  -6.942 -14.419  1.00  0.00     0.084 A 
HETATM    9  C9  UNL     1      11.366  -7.957 -13.695  1.00  0.00     0.134 A 
HETATM   10  N9  UNL     1      11.885  -9.212 -13.713  1.00  0.00    -0.132 N 
ENDROOT
BRANCH   1  11
HETATM   11  N4  UNL     1      13.530 -11.899 -14.175  1.00  0.00    -0.284 N 
ATOM     12  H4  UNL     1      12.937 -12.156 -13.386  1.00  0.00     0.187 HD
BRANCH  11  13
HETATM   13  C4  UNL     1      14.275 -12.967 -14.741  1.00  0.00     0.088 A 
HETATM   14  C3  UNL     1      14.068 -13.383 -16.030  1.00  0.00     0.079 A 
HETATM   15  C2  UNL     1      14.810 -14.438 -16.580  1.00  0.00     0.120 A 
HETATM   16  N2  UNL     1      15.733 -15.045 -15.827  1.00  0.00    -0.329 N 
HETATM   17  N3  UNL     1      14.626 -14.906 -17.909  1.00  0.00    -0.083 NA
HETATM   18  C1  UNL     1      15.960 -14.652 -14.537  1.00  0.00     0.136 A 
ATOM     19  H2  UNL     1      16.275 -15.815 -16.221  1.00  0.00     0.168 HD
HETATM   20  C11 UNL     1      15.223 -13.599 -13.985  1.00  0.00     0.174 A 
BRANCH  18  21
HETATM   21  N1  UNL     1      16.841 -15.239 -13.835  1.00  0.00    -0.383 N 
ATOM     22  H12 UNL     1      16.682 -16.196 -13.521  1.00  0.00     0.157 HD
ATOM     23  H11 UNL     1      17.704 -14.756 -13.585  1.00  0.00     0.157 HD
ENDBRANCH  18  21
BRANCH  20  24
HETATM   24  N10 UNL     1      15.527 -13.252 -12.644  1.00  0.00    -0.109 N 
HETATM   25  O3  UNL     1      15.421 -14.086 -11.716  1.00  0.00    -0.532 OA
HETATM   26  O4  UNL     1      15.949 -11.994 -12.329  1.00  0.00    -0.532 OA
ENDBRANCH  20  24
ENDBRANCH  11  13
ENDBRANCH   1  11
BRANCH  10  27
HETATM   27  C10 UNL     1      11.207 -10.152 -12.916  1.00  0.00     0.376 C 
HETATM   28  O2  UNL     1      11.814 -10.806 -11.991  1.00  0.00    -0.282 OA
ENDBRANCH  10  27
BRANCH   8  29
HETATM   29  C8  UNL     1      11.396  -5.556 -14.413  1.00  0.00     0.418 C 
BRANCH  29  30
HETATM   30  N7  UNL     1      10.443  -5.350 -15.519  1.00  0.00    -0.046 N 
ATOM     31  H73 UNL     1      10.704  -5.888 -16.346  1.00  0.00     0.277 HD
ATOM     32  H72 UNL     1       9.543  -5.789 -15.326  1.00  0.00     0.277 HD
ATOM     33  H71 UNL     1      10.340  -4.358 -15.734  1.00  0.00     0.277 HD
ENDBRANCH  29  30
BRANCH  29  34
HETATM   34  N8  UNL     1      10.610  -5.292 -13.218  1.00  0.00    -0.046 N 
ATOM     35  H83 UNL     1       9.628  -5.533 -13.355  1.00  0.00     0.277 HD
ATOM     36  H82 UNL     1      10.832  -5.952 -12.472  1.00  0.00     0.277 HD
ATOM     37  H81 UNL     1      10.718  -4.327 -12.906  1.00  0.00     0.277 HD
ENDBRANCH  29  34
ENDBRANCH   8  29
TORSDOF 8
ENDMDL
MODEL 2
REMARK VINA RESULT: -7.690797652      3.162      7.772
REMARK  8 active torsions:
REMARK  status: ('A' for Active; 'I' for Inactive)
REMARK    1  A    between atoms: N1_1  and  C1_4 
REMARK    2  A    between atoms: C4_10  and  N4_11 
REMARK    3  A    between atoms: N4_11  and  N5_13 
REMARK    4  A    between atoms: C7_20  and  C8_21 
REMARK    5  A    between atoms: C8_21  and  N7_22 
REMARK    6  A    between atoms: C8_21  and  N8_26 
REMARK    7  A    between atoms: N9_31  and  C10_32 
REMARK    8  A    between atoms: C11_34  and  N10_35 
ROOT
HETATM    1  N5  UNL     1      12.266 -13.097 -11.648  1.00  0.00    -0.131 N 
ATOM      2  H5  UNL     1      11.459 -13.578 -12.046  1.00  0.00     0.205 HD
HETATM    3  C5  UNL     1      13.194 -13.375 -12.392  1.00  0.00     0.708 A 
HETATM    4  N6  UNL     1      12.929 -14.192 -13.476  1.00  0.00    -0.153 N 
ATOM      5  H6  UNL     1      11.976 -14.534 -13.606  1.00  0.00     0.187 HD
HETATM    6  C6  UNL     1      13.860 -14.555 -14.359  1.00  0.00     0.271 A 
HETATM    7  O1  UNL     1      13.601 -15.307 -15.352  1.00  0.00    -0.267 OA
HETATM    8  C7  UNL     1      15.162 -14.123 -14.230  1.00  0.00     0.084 A 
HETATM    9  C9  UNL     1      15.433 -13.316 -13.160  1.00  0.00     0.134 A 
HETATM   10  N9  UNL     1      14.464 -12.962 -12.275  1.00  0.00    -0.132 N 
ENDROOT
BRANCH   1  11
HETATM   11  N4  UNL     1      11.804 -12.484 -10.591  1.00  0.00    -0.284 N 
ATOM     12  H4  UNL     1      12.271 -12.721  -9.715  1.00  0.00     0.187 HD
BRANCH  11  13
HETATM   13  C4  UNL     1      10.752 -11.539 -10.476  1.00  0.00     0.088 A 
HETATM   14  C3  UNL     1       9.613 -11.814  -9.765  1.00  0.00     0.079 A 
HETATM   15  C2  UNL     1       8.580 -10.873  -9.657  1.00  0.00     0.120 A 
HETATM   16  N2  UNL     1       8.714  -9.687 -10.262  1.00  0.00    -0.329 N 
HETATM   17  N3  UNL     1       7.380 -11.116  -8.936  1.00  0.00    -0.083 NA
HETATM   18  C1  UNL     1       9.840  -9.385 -10.978  1.00  0.00     0.136 A 
ATOM     19  H2  UNL     1       7.966  -8.998 -10.188  1.00  0.00     0.168 HD
HETATM   20  C11 UNL     1      10.873 -10.322 -11.088  1.00  0.00     0.174 A 
BRANCH  18  21
HETATM   21  N1  UNL     1       9.952  -8.255 -11.546  1.00  0.00    -0.383 N 
ATOM     22  H12 UNL     1      10.847  -7.980 -11.950  1.00  0.00     0.157 HD
ATOM     23  H11 UNL     1       9.153  -7.624 -11.598  1.00  0.00     0.157 HD
ENDBRANCH  18  21
BRANCH  20  24
HETATM   24  N10 UNL     1      12.006  -9.925 -11.842  1.00  0.00    -0.109 N 
HETATM   25  O3  UNL     1      12.133 -10.251 -13.046  1.00  0.00    -0.532 OA
HETATM   26  O4  UNL     1      12.991  -9.170 -11.277  1.00  0.00    -0.532 OA
ENDBRANCH  20  24
ENDBRANCH  11  13
ENDBRANCH   1  11
BRANCH  10  27
HETATM   27  C10 UNL     1      14.889 -12.134 -11.221  1.00  0.00     0.376 C 
HETATM   28  O2  UNL     1      14.618 -12.417  -9.998  1.00  0.00    -0.282 OA
ENDBRANCH  10  27
BRANCH   8  29
HETATM   29  C8  UNL     1      16.197 -14.540 -15.209  1.00  0.00     0.418 C 
BRANCH  29  30
HETATM   30  N7  UNL     1      17.552 -14.358 -14.658  1.00  0.00    -0.046 N 
ATOM     31  H73 UNL     1      17.823 -13.374 -14.643  1.00  0.00     0.277 HD
ATOM     32  H72 UNL     1      17.577 -14.540 -13.655  1.00  0.00     0.277 HD
ATOM     33  H71 UNL     1      18.232 -14.927 -15.162  1.00  0.00     0.277 HD
ENDBRANCH  29  30
BRANCH  29  34
HETATM   34  N8  UNL     1      16.119 -15.965 -15.491  1.00  0.00    -0.046 N 
ATOM     35  H83 UNL     1      15.152 -16.272 -15.599  1.00  0.00     0.277 HD
ATOM     36  H82 UNL     1      16.458 -16.179 -16.429  1.00  0.00     0.277 HD
ATOM     37  H81 UNL     1      16.608 -16.512 -14.782  1.00  0.00     0.277 HD
ENDBRANCH  29  34
ENDBRANCH   8  29
TORSDOF 8
ENDMDL
MODEL 3
REMARK VINA RESULT: -7.488816882      2.316      7.349
REMARK  8 active torsions:
REMARK  status: ('A' for Active; 'I' for Inactive)
REMARK    1  A    between atoms: N1_1  and  C1_4 
REMARK    2  A    between atoms: C4_10  and  N4_11 
REMARK    3  A    between atoms: N4_11  and  N5_13 
REMARK    4  A    between atoms: C7_20  and  C8_21 
REMARK    5  A    between atoms: C8_21  and  N7_22 
REMARK    6  A    between atoms: C8_21  and  N8_26 
REMARK    7  A    between atoms: N9_31  and  C10_32 
REMARK    8  A    between atoms: C11_34  and  N10_35 
ROOT
HETATM    1  N5  UNL     1      13.842 -11.349 -14.185  1.00  0.00    -0.131 N 
ATOM      2  H5  UNL     1      13.500 -10.927 -15.049  1.00  0.00     0.205 HD
HETATM    3  C5  UNL     1      14.242 -12.455 -14.514  1.00  0.00     0.708 A 
HETATM    4  N6  UNL     1      14.135 -12.810 -15.847  1.00  0.00    -0.153 N 
ATOM      5  H6  UNL     1      13.723 -12.140 -16.496  1.00  0.00     0.187 HD
HETATM    6  C6  UNL     1      14.546 -13.986 -16.322  1.00  0.00     0.271 A 
HETATM    7  O1  UNL     1      14.442 -14.298 -17.551  1.00  0.00    -0.267 OA
HETATM    8  C7  UNL     1      15.109 -14.927 -15.488  1.00  0.00     0.084 A 
HETATM    9  C9  UNL     1      15.217 -14.585 -14.168  1.00  0.00     0.134 A 
HETATM   10  N9  UNL     1      14.790 -13.378 -13.711  1.00  0.00    -0.132 N 
ENDROOT
BRANCH   1  11
HETATM   11  N4  UNL     1      13.638 -10.443 -13.266  1.00  0.00    -0.284 N 
ATOM     12  H4  UNL     1      14.478 -10.113 -12.790  1.00  0.00     0.187 HD
BRANCH  11  13
HETATM   13  C4  UNL     1      12.426  -9.848 -12.830  1.00  0.00     0.088 A 
HETATM   14  C3  UNL     1      12.168  -8.516 -13.025  1.00  0.00     0.079 A 
HETATM   15  C2  UNL     1      10.966  -7.938 -12.591  1.00  0.00     0.120 A 
HETATM   16  N2  UNL     1      10.062  -8.706 -11.974  1.00  0.00    -0.329 N 
HETATM   17  N3  UNL     1      10.658  -6.563 -12.767  1.00  0.00    -0.083 NA
HETATM   18  C1  UNL     1      10.293 -10.038 -11.765  1.00  0.00     0.136 A 
ATOM     19  H2  UNL     1       9.186  -8.292 -11.654  1.00  0.00     0.168 HD
HETATM   20  C11 UNL     1      11.490 -10.618 -12.197  1.00  0.00     0.174 A 
BRANCH  18  21
HETATM   21  N1  UNL     1       9.423 -10.754 -11.178  1.00  0.00    -0.383 N 
ATOM     22  H12 UNL     1       8.823 -11.370 -11.726  1.00  0.00     0.157 HD
ATOM     23  H11 UNL     1       9.323 -10.713 -10.164  1.00  0.00     0.157 HD
ENDBRANCH  18  21
BRANCH  20  24
HETATM   24  N10 UNL     1      11.645 -12.005 -11.946  1.00  0.00    -0.109 N 
HETATM   25  O3  UNL     1      11.459 -12.854 -12.848  1.00  0.00    -0.532 OA
HETATM   26  O4  UNL     1      12.006 -12.454 -10.709  1.00  0.00    -0.532 OA
ENDBRANCH  20  24
ENDBRANCH  11  13
ENDBRANCH   1  11
BRANCH  10  27
HETATM   27  C10 UNL     1      14.958 -13.167 -12.331  1.00  0.00     0.376 C 
HETATM   28  O2  UNL     1      15.666 -12.192 -11.885  1.00  0.00    -0.282 OA
ENDBRANCH  10  27
BRANCH   8  29
HETATM   29  C8  UNL     1      15.553 -16.239 -16.020  1.00  0.00     0.418 C 
BRANCH  29  30
HETATM   30  N7  UNL     1      14.445 -16.942 -16.691  1.00  0.00    -0.046 N 
ATOM     31  H73 UNL     1      13.538 -16.562 -16.417  1.00  0.00     0.277 HD
ATOM     32  H72 UNL     1      14.410 -16.724 -17.687  1.00  0.00     0.277 HD
ATOM     33  H71 UNL     1      14.496 -17.948 -16.528  1.00  0.00     0.277 HD
ENDBRANCH  29  30
BRANCH  29  34
HETATM   34  N8  UNL     1      16.553 -16.079 -17.065  1.00  0.00    -0.046 N 
ATOM     35  H83 UNL     1      17.229 -15.353 -16.826  1.00  0.00     0.277 HD
ATOM     36  H82 UNL     1      17.186 -16.877 -17.102  1.00  0.00     0.277 HD
ATOM     37  H81 UNL     1      16.120 -15.902 -17.971  1.00  0.00     0.277 HD
ENDBRANCH  29  34
ENDBRANCH   8  29
TORSDOF 8
ENDMDL
MODEL 4
REMARK VINA RESULT: -7.470753695      2.138      7.690
REMARK  8 active torsions:
REMARK  status: ('A' for Active; 'I' for Inactive)
REMARK    1  A    between atoms: N1_1  and  C1_4 
REMARK    2  A    between atoms: C4_10  and  N4_11 
REMARK    3  A    between atoms: N4_11  and  N5_13 
REMARK    4  A    between atoms: C7_20  and  C8_21 
REMARK    5  A    between atoms: C8_21  and  N7_22 
REMARK    6  A    between atoms: C8_21  and  N8_26 
REMARK    7  A    between atoms: N9_31  and  C10_32 
REMARK    8  A    between atoms: C11_34  and  N10_35 
ROOT
HETATM    1  N5  UNL     1      13.672 -12.133 -14.512  1.00  0.00    -0.131 N 
ATOM      2  H5  UNL     1      13.094 -11.766 -15.269  1.00  0.00     0.205 HD
HETATM    3  C5  UNL     1      14.192 -13.137 -14.974  1.00  0.00     0.708 A 
HETATM    4  N6  UNL     1      13.888 -13.478 -16.280  1.00  0.00    -0.153 N 
ATOM      5  H6  UNL     1      13.240 -12.886 -16.799  1.00  0.00     0.187 HD
HETATM    6  C6  UNL     1      14.402 -14.546 -16.891  1.00  0.00     0.271 A 
HETATM    7  O1  UNL     1      14.113 -14.848 -18.093  1.00  0.00    -0.267 OA
HETATM    8  C7  UNL     1      15.280 -15.381 -16.236  1.00  0.00     0.084 A 
HETATM    9  C9  UNL     1      15.585 -15.051 -14.944  1.00  0.00     0.134 A 
HETATM   10  N9  UNL     1      15.046 -13.957 -14.346  1.00  0.00    -0.132 N 
ENDROOT
BRANCH   1  11
HETATM   11  N4  UNL     1      13.495 -11.301 -13.520  1.00  0.00    -0.284 N 
ATOM     12  H4  UNL     1      14.231 -11.307 -12.814  1.00  0.00     0.187 HD
BRANCH  11  13
HETATM   13  C4  UNL     1      12.435 -10.389 -13.278  1.00  0.00     0.088 A 
HETATM   14  C3  UNL     1      11.405 -10.694 -12.427  1.00  0.00     0.079 A 
HETATM   15  C2  UNL     1      10.363  -9.785 -12.194  1.00  0.00     0.120 A 
HETATM   16  N2  UNL     1      10.380  -8.602 -12.817  1.00  0.00    -0.329 N 
HETATM   17  N3  UNL     1       9.273 -10.061 -11.325  1.00  0.00    -0.083 NA
HETATM   18  C1  UNL     1      11.395  -8.271 -13.671  1.00  0.00     0.136 A 
ATOM     19  H2  UNL     1       9.625  -7.937 -12.653  1.00  0.00     0.168 HD
HETATM   20  C11 UNL     1      12.437  -9.174 -13.906  1.00  0.00     0.174 A 
BRANCH  18  21
HETATM   21  N1  UNL     1      11.398  -7.143 -14.255  1.00  0.00    -0.383 N 
ATOM     22  H12 UNL     1      11.678  -6.308 -13.740  1.00  0.00     0.157 HD
ATOM     23  H11 UNL     1      11.121  -7.070 -15.234  1.00  0.00     0.157 HD
ENDBRANCH  18  21
BRANCH  20  24
HETATM   24  N10 UNL     1      13.452  -8.748 -14.801  1.00  0.00    -0.109 N 
HETATM   25  O3  UNL     1      13.735  -9.411 -15.826  1.00  0.00    -0.532 OA
HETATM   26  O4  UNL     1      14.146  -7.597 -14.570  1.00  0.00    -0.532 OA
ENDBRANCH  20  24
ENDBRANCH  11  13
ENDBRANCH   1  11
BRANCH  10  27
HETATM   27  C10 UNL     1      15.445 -13.746 -13.014  1.00  0.00     0.376 C 
HETATM   28  O2  UNL     1      15.982 -12.638 -12.644  1.00  0.00    -0.282 OA
ENDBRANCH  10  27
BRANCH   8  29
HETATM   29  C8  UNL     1      15.840 -16.575 -16.917  1.00  0.00     0.418 C 
BRANCH  29  30
HETATM   30  N7  UNL     1      14.916 -17.720 -16.825  1.00  0.00    -0.046 N 
ATOM     31  H73 UNL     1      15.392 -18.603 -17.009  1.00  0.00     0.277 HD
ATOM     32  H72 UNL     1      14.631 -17.896 -15.861  1.00  0.00     0.277 HD
ATOM     33  H71 UNL     1      14.110 -17.592 -17.438  1.00  0.00     0.277 HD
ENDBRANCH  29  30
BRANCH  29  34
HETATM   34  N8  UNL     1      15.983 -16.352 -18.348  1.00  0.00    -0.046 N 
ATOM     35  H83 UNL     1      15.580 -15.458 -18.629  1.00  0.00     0.277 HD
ATOM     36  H82 UNL     1      16.954 -16.174 -18.602  1.00  0.00     0.277 HD
ATOM     37  H81 UNL     1      15.590 -17.124 -18.887  1.00  0.00     0.277 HD
ENDBRANCH  29  34
ENDBRANCH   8  29
TORSDOF 8
ENDMDL
MODEL 5
REMARK VINA RESULT: -7.458101467      2.395      3.968
REMARK  8 active torsions:
REMARK  status: ('A' for Active; 'I' for Inactive)
REMARK    1  A    between atoms: N1_1  and  C1_4 
REMARK    2  A    between atoms: C4_10  and  N4_11 
REMARK    3  A    between atoms: N4_11  and  N5_13 
REMARK    4  A    between atoms: C7_20  and  C8_21 
REMARK    5  A    between atoms: C8_21  and  N7_22 
REMARK    6  A    between atoms: C8_21  and  N8_26 
REMARK    7  A    between atoms: N9_31  and  C10_32 
REMARK    8  A    between atoms: C11_34  and  N10_35 
ROOT
HETATM    1  N5  UNL     1      12.638 -12.311 -13.337  1.00  0.00    -0.131 N 
ATOM      2  H5  UNL     1      12.643 -13.255 -12.950  1.00  0.00     0.205 HD
HETATM    3  C5  UNL     1      11.934 -11.664 -12.577  1.00  0.00     0.708 A 
HETATM    4  N6  UNL     1      11.382 -12.322 -11.492  1.00  0.00    -0.153 N 
ATOM      5  H6  UNL     1      11.578 -13.316 -11.376  1.00  0.00     0.187 HD
HETATM    6  C6  UNL     1      10.605 -11.717 -10.592  1.00  0.00     0.271 A 
HETATM    7  O1  UNL     1      10.105 -12.335  -9.599  1.00  0.00    -0.267 OA
HETATM    8  C7  UNL     1      10.308 -10.376 -10.704  1.00  0.00     0.084 A 
HETATM    9  C9  UNL     1      10.848  -9.719 -11.774  1.00  0.00     0.134 A 
HETATM   10  N9  UNL     1      11.637 -10.361 -12.676  1.00  0.00    -0.132 N 
ENDROOT
BRANCH   1  11
HETATM   11  N4  UNL     1      13.387 -12.382 -14.405  1.00  0.00    -0.284 N 
ATOM     12  H4  UNL     1      13.324 -11.580 -15.032  1.00  0.00     0.187 HD
BRANCH  11  13
HETATM   13  C4  UNL     1      14.274 -13.407 -14.826  1.00  0.00     0.088 A 
HETATM   14  C3  UNL     1      14.151 -14.006 -16.052  1.00  0.00     0.079 A 
HETATM   15  C2  UNL     1      15.034 -15.017 -16.458  1.00  0.00     0.120 A 
HETATM   16  N2  UNL     1      16.011 -15.399 -15.627  1.00  0.00    -0.329 N 
HETATM   17  N3  UNL     1      14.942 -15.669 -17.716  1.00  0.00    -0.083 NA
HETATM   18  C1  UNL     1      16.157 -14.819 -14.397  1.00  0.00     0.136 A 
ATOM     19  H2  UNL     1      16.656 -16.135 -15.915  1.00  0.00     0.168 HD
HETATM   20  C11 UNL     1      15.279 -13.810 -13.989  1.00  0.00     0.174 A 
BRANCH  18  21
HETATM   21  N1  UNL     1      17.090 -15.193 -13.620  1.00  0.00    -0.383 N 
ATOM     22  H12 UNL     1      17.684 -15.978 -13.886  1.00  0.00     0.157 HD
ATOM     23  H11 UNL     1      17.245 -14.711 -12.735  1.00  0.00     0.157 HD
ENDBRANCH  18  21
BRANCH  20  24
HETATM   24  N10 UNL     1      15.506 -13.259 -12.702  1.00  0.00    -0.109 N 
HETATM   25  O3  UNL     1      16.151 -12.195 -12.555  1.00  0.00    -0.532 OA
HETATM   26  O4  UNL     1      15.021 -13.873 -11.585  1.00  0.00    -0.532 OA
ENDBRANCH  20  24
ENDBRANCH  11  13
ENDBRANCH   1  11
BRANCH  10  27
HETATM   27  C10 UNL     1      12.117  -9.560 -13.728  1.00  0.00     0.376 C 
HETATM   28  O2  UNL     1      13.374  -9.464 -13.975  1.00  0.00    -0.282 OA
ENDBRANCH  10  27
BRANCH   8  29
HETATM   29  C8  UNL     1       9.433  -9.711  -9.706  1.00  0.00     0.418 C 
BRANCH  29  30
HETATM   30  N7  UNL     1       8.116 -10.368  -9.634  1.00  0.00    -0.046 N 
ATOM     31  H73 UNL     1       7.356  -9.706  -9.790  1.00  0.00     0.277 HD
ATOM     32  H72 UNL     1       7.956 -10.979 -10.435  1.00  0.00     0.277 HD
ATOM     33  H71 UNL     1       8.003 -10.868  -8.752  1.00  0.00     0.277 HD
ENDBRANCH  29  30
BRANCH  29  34
HETATM   34  N8  UNL     1       9.967  -9.842  -8.359  1.00  0.00    -0.046 N 
ATOM     35  H83 UNL     1       9.436  -9.284  -7.691  1.00  0.00     0.277 HD
ATOM     36  H82 UNL     1       9.783 -10.768  -7.973  1.00  0.00     0.277 HD
ATOM     37  H81 UNL     1      10.961  -9.615  -8.329  1.00  0.00     0.277 HD
ENDBRANCH  29  34
ENDBRANCH   8  29
TORSDOF 8
ENDMDL
