MODEL 1
REMARK VINA RESULT: -7.544829676      0.000      0.000
REMARK  15 active torsions:
REMARK  status: ('A' for Active; 'I' for Inactive)
REMARK    1  A    between atoms: C2_2  and  O2_4 
REMARK    2  A    between atoms: O2_4  and  C3_5 
REMARK    3  A    between atoms: C4_6  and  O3_7 
REMARK    4  A    between atoms: C17_22  and  C18_23 
REMARK    5  A    between atoms: C18_23  and  O5_24 
REMARK    6  A    between atoms: O5_24  and  C19_25 
REMARK    7  A    between atoms: C19_25  and  C21_27 
REMARK    8  A    between atoms: C22_28  and  O6_29 
REMARK    9  A    between atoms: C22_28  and  C29_37 
REMARK   10  A    between atoms: O6_29  and  C23_30 
REMARK   11  A    between atoms: C23_30  and  C24_32 
REMARK   12  A    between atoms: C24_32  and  C25_33 
REMARK   13  A    between atoms: C25_33  and  C26_34 
REMARK   14  A    between atoms: C29_37  and  O8_40 
REMARK   15  A    between atoms: C33_44  and  O9_45 
ROOT
HETATM    1  C3  UNL     1      40.983   9.155  -3.763  1.00  0.00     0.169 C 
HETATM    2  C4  UNL     1      41.040   8.926  -5.232  1.00  0.00     0.170 C 
HETATM    3  C5  UNL     1      42.406   9.083  -5.793  1.00  0.00     0.004 C 
HETATM    4  C6  UNL     1      43.434   9.657  -5.185  1.00  0.00    -0.018 C 
HETATM    5  C7  UNL     1      43.227  10.191  -3.839  1.00  0.00    -0.008 C 
HETATM    6  C8  UNL     1      42.435  11.488  -4.029  1.00  0.00     0.021 C 
HETATM    7  C9  UNL     1      42.347   9.183  -3.100  1.00  0.00     0.031 C 
HETATM    8  C10 UNL     1      43.032   7.865  -3.051  1.00  0.00     0.011 C 
HETATM    9  C11 UNL     1      44.527   7.907  -3.214  1.00  0.00     0.042 C 
HETATM   10  C12 UNL     1      45.146   9.170  -2.607  1.00  0.00     0.099 A 
HETATM   11  O4  UNL     1      46.246   9.674  -3.302  1.00  0.00    -0.376 OA
HETATM   12  C13 UNL     1      45.621  10.838  -3.779  1.00  0.00     0.182 A 
HETATM   13  C14 UNL     1      44.429  10.408  -2.985  1.00  0.00     0.026 A 
HETATM   14  C15 UNL     1      44.122  11.316  -1.831  1.00  0.00     0.016 C 
HETATM   15  C16 UNL     1      45.284  11.974  -1.180  1.00  0.00     0.009 C 
HETATM   16  C17 UNL     1      46.420  11.175  -0.730  1.00  0.00     0.030 C 
HETATM   17  C32 UNL     1      46.247   9.755  -0.364  1.00  0.00     0.120 C 
HETATM   18 CL1  UNL     1      47.815   8.971   0.024  1.00  0.00    -0.122 Cl
HETATM   19  C33 UNL     1      45.395   8.892  -1.177  1.00  0.00     0.172 C 
ENDROOT
BRANCH  16  20
HETATM   20  C18 UNL     1      47.197  11.868   0.420  1.00  0.00     0.174 C 
BRANCH  20  21
HETATM   21  O5  UNL     1      46.405  12.848   0.988  1.00  0.00    -0.382 OA
BRANCH  21  22
HETATM   22  C19 UNL     1      46.403  12.867   2.356  1.00  0.00     0.142 C 
HETATM   23  C20 UNL     1      47.059  11.669   2.989  1.00  0.00     0.044 C 
BRANCH  22  24
HETATM   24  C21 UNL     1      46.994  14.084   2.959  1.00  0.00     0.040 C 
HETATM   25  C22 UNL     1      46.333  15.207   3.158  1.00  0.00     0.089 C 
BRANCH  25  26
HETATM   26  O6  UNL     1      45.004  15.368   2.818  1.00  0.00    -0.280 OA
BRANCH  26  27
HETATM   27  C23 UNL     1      44.497  16.006   1.729  1.00  0.00     0.263 C 
HETATM   28  O7  UNL     1      44.141  17.191   1.803  1.00  0.00    -0.265 OA
BRANCH  27  29
HETATM   29  C24 UNL     1      44.387  15.232   0.450  1.00  0.00     0.112 C 
BRANCH  29  30
HETATM   30  C25 UNL     1      44.008  16.186  -0.640  1.00  0.00     0.013 C 
BRANCH  30  31
HETATM   31  C26 UNL     1      44.250  15.621  -2.017  1.00  0.00    -0.022 C 
HETATM   32  C27 UNL     1      42.989  15.025  -2.601  1.00  0.00     0.009 C 
HETATM   33  C28 UNL     1      44.717  16.686  -2.988  1.00  0.00     0.009 C 
ENDBRANCH  30  31
ENDBRANCH  29  30
ENDBRANCH  27  29
ENDBRANCH  26  27
ENDBRANCH  25  26
BRANCH  25  34
HETATM   34  C29 UNL     1      47.038  16.359   3.774  1.00  0.00     0.099 C 
HETATM   35  C30 UNL     1      46.411  16.692   5.096  1.00  0.00     0.053 C 
HETATM   36  C31 UNL     1      48.514  16.019   3.945  1.00  0.00     0.053 C 
BRANCH  34  37
HETATM   37  O8  UNL     1      46.981  17.456   2.924  1.00  0.00    -0.384 OA
ATOM     38  H8  UNL     1      46.530  18.173   3.353  1.00  0.00     0.211 HD
ENDBRANCH  34  37
ENDBRANCH  25  34
ENDBRANCH  22  24
ENDBRANCH  21  22
ENDBRANCH  20  21
ENDBRANCH  16  20
BRANCH  19  39
HETATM   39  O9  UNL     1      44.223   8.535  -0.498  1.00  0.00    -0.391 OA
ATOM     40  H9  UNL     1      43.758   7.831  -0.935  1.00  0.00     0.210 HD
ENDBRANCH  19  39
BRANCH   1  41
HETATM   41  O2  UNL     1      40.133   8.220  -3.164  1.00  0.00    -0.313 OA
BRANCH  41  42
HETATM   42  C2  UNL     1      38.822   8.555  -2.876  1.00  0.00     0.255 C 
HETATM   43  C1  UNL     1      38.166   9.793  -3.357  1.00  0.00     0.126 C 
HETATM   44  O1  UNL     1      38.100   7.785  -2.159  1.00  0.00    -0.266 OA
ENDBRANCH  41  42
ENDBRANCH   1  41
BRANCH   2  45
HETATM   45  O3  UNL     1      40.487   7.684  -5.580  1.00  0.00    -0.389 OA
ATOM     46  H3  UNL     1      40.870   7.345  -6.380  1.00  0.00     0.210 HD
ENDBRANCH   2  45
TORSDOF 15
ENDMDL
MODEL 2
REMARK VINA RESULT: -7.035377163      6.782     10.320
REMARK  15 active torsions:
REMARK  status: ('A' for Active; 'I' for Inactive)
REMARK    1  A    between atoms: C2_2  and  O2_4 
REMARK    2  A    between atoms: O2_4  and  C3_5 
REMARK    3  A    between atoms: C4_6  and  O3_7 
REMARK    4  A    between atoms: C17_22  and  C18_23 
REMARK    5  A    between atoms: C18_23  and  O5_24 
REMARK    6  A    between atoms: O5_24  and  C19_25 
REMARK    7  A    between atoms: C19_25  and  C21_27 
REMARK    8  A    between atoms: C22_28  and  O6_29 
REMARK    9  A    between atoms: C22_28  and  C29_37 
REMARK   10  A    between atoms: O6_29  and  C23_30 
REMARK   11  A    between atoms: C23_30  and  C24_32 
REMARK   12  A    between atoms: C24_32  and  C25_33 
REMARK   13  A    between atoms: C25_33  and  C26_34 
REMARK   14  A    between atoms: C29_37  and  O8_40 
REMARK   15  A    between atoms: C33_44  and  O9_45 
ROOT
HETATM    1  C3  UNL     1      52.122   2.461   4.260  1.00  0.00     0.169 C 
HETATM    2  C4  UNL     1      52.901   2.675   5.509  1.00  0.00     0.170 C 
HETATM    3  C5  UNL     1      52.956   4.100   5.923  1.00  0.00     0.004 C 
HETATM    4  C6  UNL     1      52.643   5.142   5.166  1.00  0.00    -0.018 C 
HETATM    5  C7  UNL     1      52.201   4.888   3.795  1.00  0.00    -0.008 C 
HETATM    6  C8  UNL     1      53.469   4.524   3.016  1.00  0.00     0.021 C 
HETATM    7  C9  UNL     1      51.291   3.662   3.850  1.00  0.00     0.031 C 
HETATM    8  C10 UNL     1      50.134   3.939   4.739  1.00  0.00     0.011 C 
HETATM    9  C11 UNL     1      49.809   5.393   4.943  1.00  0.00     0.042 C 
HETATM   10  C12 UNL     1      50.101   6.238   3.699  1.00  0.00     0.099 A 
HETATM   11  O4  UNL     1      50.566   7.527   3.963  1.00  0.00    -0.376 OA
HETATM   12  C13 UNL     1      51.876   7.330   3.498  1.00  0.00     0.182 A 
HETATM   13  C14 UNL     1      51.427   5.958   3.104  1.00  0.00     0.026 A 
HETATM   14  C15 UNL     1      51.401   5.743   1.620  1.00  0.00     0.016 C 
HETATM   15  C16 UNL     1      51.078   6.928   0.786  1.00  0.00     0.009 C 
HETATM   16  C17 UNL     1      49.881   7.716   1.065  1.00  0.00     0.030 C 
HETATM   17  C32 UNL     1      48.710   7.103   1.724  1.00  0.00     0.120 C 
HETATM   18 CL1  UNL     1      47.431   8.314   2.071  1.00  0.00    -0.122 Cl
HETATM   19  C33 UNL     1      48.901   6.180   2.839  1.00  0.00     0.172 C 
ENDROOT
BRANCH  16  20
HETATM   20  C18 UNL     1      49.375   8.469  -0.193  1.00  0.00     0.174 C 
BRANCH  20  21
HETATM   21  O5  UNL     1      50.061   9.662  -0.325  1.00  0.00    -0.382 OA
BRANCH  21  22
HETATM   22  C19 UNL     1      49.275  10.758  -0.546  1.00  0.00     0.142 C 
HETATM   23  C20 UNL     1      49.679  11.573  -1.747  1.00  0.00     0.044 C 
BRANCH  22  24
HETATM   24  C21 UNL     1      47.826  10.470  -0.658  1.00  0.00     0.040 C 
HETATM   25  C22 UNL     1      46.882  11.198  -0.095  1.00  0.00     0.089 C 
BRANCH  25  26
HETATM   26  O6  UNL     1      47.150  12.318   0.668  1.00  0.00    -0.280 OA
BRANCH  26  27
HETATM   27  C23 UNL     1      46.894  12.502   1.990  1.00  0.00     0.263 C 
HETATM   28  O7  UNL     1      47.078  11.584   2.801  1.00  0.00    -0.265 OA
BRANCH  27  29
HETATM   29  C24 UNL     1      46.386  13.844   2.426  1.00  0.00     0.112 C 
BRANCH  29  30
HETATM   30  C25 UNL     1      47.090  14.218   3.694  1.00  0.00     0.013 C 
BRANCH  30  31
HETATM   31  C26 UNL     1      47.164  15.710   3.898  1.00  0.00    -0.022 C 
HETATM   32  C27 UNL     1      48.596  16.199   3.901  1.00  0.00     0.009 C 
HETATM   33  C28 UNL     1      46.450  16.466   2.796  1.00  0.00     0.009 C 
ENDBRANCH  30  31
ENDBRANCH  29  30
ENDBRANCH  27  29
ENDBRANCH  26  27
ENDBRANCH  25  26
BRANCH  25  34
HETATM   34  C29 UNL     1      45.463  10.806  -0.282  1.00  0.00     0.099 C 
HETATM   35  C30 UNL     1      44.790  11.761  -1.224  1.00  0.00     0.053 C 
HETATM   36  C31 UNL     1      45.395   9.380  -0.815  1.00  0.00     0.053 C 
BRANCH  34  37
HETATM   37  O8  UNL     1      44.810  10.801   0.944  1.00  0.00    -0.384 OA
ATOM     38  H8  UNL     1      43.886  10.622   0.817  1.00  0.00     0.211 HD
ENDBRANCH  34  37
ENDBRANCH  25  34
ENDBRANCH  22  24
ENDBRANCH  21  22
ENDBRANCH  20  21
ENDBRANCH  16  20
BRANCH  19  39
HETATM   39  O9  UNL     1      48.572   4.866   2.483  1.00  0.00    -0.391 OA
ATOM     40  H9  UNL     1      48.423   4.775   1.550  1.00  0.00     0.210 HD
ENDBRANCH  19  39
BRANCH   1  41
HETATM   41  O2  UNL     1      51.344   1.304   4.372  1.00  0.00    -0.313 OA
BRANCH  41  42
HETATM   42  C2  UNL     1      51.810   0.100   3.874  1.00  0.00     0.255 C 
HETATM   43  C1  UNL     1      51.718  -0.290   2.448  1.00  0.00     0.126 C 
HETATM   44  O1  UNL     1      52.358  -0.752   4.650  1.00  0.00    -0.266 OA
ENDBRANCH  41  42
ENDBRANCH   1  41
BRANCH   2  45
HETATM   45  O3  UNL     1      52.434   1.860   6.551  1.00  0.00    -0.389 OA
ATOM     46  H3  UNL     1      52.377   2.340   7.369  1.00  0.00     0.210 HD
ENDBRANCH   2  45
TORSDOF 15
ENDMDL
MODEL 3
REMARK VINA RESULT: -6.658610168      7.826     11.378
REMARK  15 active torsions:
REMARK  status: ('A' for Active; 'I' for Inactive)
REMARK    1  A    between atoms: C2_2  and  O2_4 
REMARK    2  A    between atoms: O2_4  and  C3_5 
REMARK    3  A    between atoms: C4_6  and  O3_7 
REMARK    4  A    between atoms: C17_22  and  C18_23 
REMARK    5  A    between atoms: C18_23  and  O5_24 
REMARK    6  A    between atoms: O5_24  and  C19_25 
REMARK    7  A    between atoms: C19_25  and  C21_27 
REMARK    8  A    between atoms: C22_28  and  O6_29 
REMARK    9  A    between atoms: C22_28  and  C29_37 
REMARK   10  A    between atoms: O6_29  and  C23_30 
REMARK   11  A    between atoms: C23_30  and  C24_32 
REMARK   12  A    between atoms: C24_32  and  C25_33 
REMARK   13  A    between atoms: C25_33  and  C26_34 
REMARK   14  A    between atoms: C29_37  and  O8_40 
REMARK   15  A    between atoms: C33_44  and  O9_45 
ROOT
HETATM    1  C3  UNL     1      52.924   1.703   5.243  1.00  0.00     0.169 C 
HETATM    2  C4  UNL     1      52.759   1.845   6.715  1.00  0.00     0.170 C 
HETATM    3  C5  UNL     1      52.042   3.086   7.103  1.00  0.00     0.004 C 
HETATM    4  C6  UNL     1      51.823   4.133   6.322  1.00  0.00    -0.018 C 
HETATM    5  C7  UNL     1      52.323   4.084   4.948  1.00  0.00    -0.008 C 
HETATM    6  C8  UNL     1      53.836   4.302   5.055  1.00  0.00     0.021 C 
HETATM    7  C9  UNL     1      52.068   2.665   4.441  1.00  0.00     0.031 C 
HETATM    8  C10 UNL     1      50.612   2.373   4.488  1.00  0.00     0.011 C 
HETATM    9  C11 UNL     1      49.710   3.578   4.485  1.00  0.00     0.042 C 
HETATM   10  C12 UNL     1      50.284   4.734   3.660  1.00  0.00     0.099 A 
HETATM   11  O4  UNL     1      50.008   6.006   4.164  1.00  0.00    -0.376 OA
HETATM   12  C13 UNL     1      51.321   6.319   4.553  1.00  0.00     0.182 A 
HETATM   13  C14 UNL     1      51.709   5.005   3.950  1.00  0.00     0.026 A 
HETATM   14  C15 UNL     1      52.570   5.141   2.729  1.00  0.00     0.016 C 
HETATM   15  C16 UNL     1      52.330   6.336   1.881  1.00  0.00     0.009 C 
HETATM   16  C17 UNL     1      50.981   6.647   1.418  1.00  0.00     0.030 C 
HETATM   17  C32 UNL     1      49.974   5.579   1.257  1.00  0.00     0.120 C 
HETATM   18 CL1  UNL     1      48.367   6.243   0.807  1.00  0.00    -0.122 Cl
HETATM   19  C33 UNL     1      49.864   4.523   2.259  1.00  0.00     0.172 C 
ENDROOT
BRANCH  16  20
HETATM   20  C18 UNL     1      50.994   7.485   0.113  1.00  0.00     0.174 C 
BRANCH  20  21
HETATM   21  O5  UNL     1      51.372   8.783   0.401  1.00  0.00    -0.382 OA
BRANCH  21  22
HETATM   22  C19 UNL     1      50.638   9.751  -0.227  1.00  0.00     0.142 C 
HETATM   23  C20 UNL     1      51.413  10.549  -1.243  1.00  0.00     0.044 C 
BRANCH  22  24
HETATM   24  C21 UNL     1      49.399   9.264  -0.878  1.00  0.00     0.040 C 
HETATM   25  C22 UNL     1      48.188   9.681  -0.566  1.00  0.00     0.089 C 
BRANCH  25  26
HETATM   26  O6  UNL     1      47.945  10.624   0.413  1.00  0.00    -0.280 OA
BRANCH  26  27
HETATM   27  C23 UNL     1      47.368  10.430   1.628  1.00  0.00     0.263 C 
HETATM   28  O7  UNL     1      47.461   9.336   2.201  1.00  0.00    -0.265 OA
BRANCH  27  29
HETATM   29  C24 UNL     1      46.623  11.577   2.243  1.00  0.00     0.112 C 
BRANCH  29  30
HETATM   30  C25 UNL     1      45.248  11.611   1.650  1.00  0.00     0.013 C 
BRANCH  30  31
HETATM   31  C26 UNL     1      44.812  13.004   1.274  1.00  0.00    -0.022 C 
HETATM   32  C27 UNL     1      45.602  14.053   2.024  1.00  0.00     0.009 C 
HETATM   33  C28 UNL     1      45.017  13.280  -0.202  1.00  0.00     0.009 C 
ENDBRANCH  30  31
ENDBRANCH  29  30
ENDBRANCH  27  29
ENDBRANCH  26  27
ENDBRANCH  25  26
BRANCH  25  34
HETATM   34  C29 UNL     1      47.023   9.117  -1.293  1.00  0.00     0.099 C 
HETATM   35  C30 UNL     1      46.307  10.209  -2.033  1.00  0.00     0.053 C 
HETATM   36  C31 UNL     1      47.499   8.033  -2.253  1.00  0.00     0.053 C 
BRANCH  34  37
HETATM   37  O8  UNL     1      46.161   8.500  -0.396  1.00  0.00    -0.384 OA
ATOM     38  H8  UNL     1      45.344   8.981  -0.350  1.00  0.00     0.211 HD
ENDBRANCH  34  37
ENDBRANCH  25  34
ENDBRANCH  22  24
ENDBRANCH  21  22
ENDBRANCH  20  21
ENDBRANCH  16  20
BRANCH  19  39
HETATM   39  O9  UNL     1      50.300   3.290   1.759  1.00  0.00    -0.391 OA
ATOM     40  H9  UNL     1      51.246   3.247   1.688  1.00  0.00     0.210 HD
ENDBRANCH  19  39
BRANCH   1  41
HETATM   41  O2  UNL     1      52.712   0.375   4.861  1.00  0.00    -0.313 OA
BRANCH  41  42
HETATM   42  C2  UNL     1      53.778  -0.418   4.475  1.00  0.00     0.255 C 
HETATM   43  C1  UNL     1      55.035   0.118   3.904  1.00  0.00     0.126 C 
HETATM   44  O1  UNL     1      53.718  -1.686   4.600  1.00  0.00    -0.266 OA
ENDBRANCH  41  42
ENDBRANCH   1  41
BRANCH   2  45
HETATM   45  O3  UNL     1      52.152   0.710   7.275  1.00  0.00    -0.389 OA
ATOM     46  H3  UNL     1      52.322   0.649   8.207  1.00  0.00     0.210 HD
ENDBRANCH   2  45
TORSDOF 15
ENDMDL
MODEL 4
REMARK VINA RESULT: -6.591961019      5.919     10.084
REMARK  15 active torsions:
REMARK  status: ('A' for Active; 'I' for Inactive)
REMARK    1  A    between atoms: C2_2  and  O2_4 
REMARK    2  A    between atoms: O2_4  and  C3_5 
REMARK    3  A    between atoms: C4_6  and  O3_7 
REMARK    4  A    between atoms: C17_22  and  C18_23 
REMARK    5  A    between atoms: C18_23  and  O5_24 
REMARK    6  A    between atoms: O5_24  and  C19_25 
REMARK    7  A    between atoms: C19_25  and  C21_27 
REMARK    8  A    between atoms: C22_28  and  O6_29 
REMARK    9  A    between atoms: C22_28  and  C29_37 
REMARK   10  A    between atoms: O6_29  and  C23_30 
REMARK   11  A    between atoms: C23_30  and  C24_32 
REMARK   12  A    between atoms: C24_32  and  C25_33 
REMARK   13  A    between atoms: C25_33  and  C26_34 
REMARK   14  A    between atoms: C29_37  and  O8_40 
REMARK   15  A    between atoms: C33_44  and  O9_45 
ROOT
HETATM    1  C3  UNL     1      51.434   3.714   4.530  1.00  0.00     0.169 C 
HETATM    2  C4  UNL     1      52.875   3.972   4.798  1.00  0.00     0.170 C 
HETATM    3  C5  UNL     1      53.406   5.139   4.048  1.00  0.00     0.004 C 
HETATM    4  C6  UNL     1      52.821   5.732   3.018  1.00  0.00    -0.018 C 
HETATM    5  C7  UNL     1      51.535   5.207   2.561  1.00  0.00    -0.008 C 
HETATM    6  C8  UNL     1      51.862   3.913   1.810  1.00  0.00     0.021 C 
HETATM    7  C9  UNL     1      50.736   4.856   3.816  1.00  0.00     0.031 C 
HETATM    8  C10 UNL     1      50.549   6.075   4.645  1.00  0.00     0.011 C 
HETATM    9  C11 UNL     1      50.670   7.382   3.911  1.00  0.00     0.042 C 
HETATM   10  C12 UNL     1      50.160   7.292   2.469  1.00  0.00     0.099 A 
HETATM   11  O4  UNL     1      50.864   8.070   1.549  1.00  0.00    -0.376 OA
HETATM   12  C13 UNL     1      51.461   7.006   0.853  1.00  0.00     0.182 A 
HETATM   13  C14 UNL     1      50.667   6.105   1.746  1.00  0.00     0.026 A 
HETATM   14  C15 UNL     1      49.608   5.329   1.019  1.00  0.00     0.016 C 
HETATM   15  C16 UNL     1      48.984   5.998  -0.150  1.00  0.00     0.009 C 
HETATM   16  C17 UNL     1      48.431   7.343  -0.017  1.00  0.00     0.030 C 
HETATM   17  C32 UNL     1      47.947   7.833   1.289  1.00  0.00     0.120 C 
HETATM   18 CL1  UNL     1      47.443   9.555   1.209  1.00  0.00    -0.122 Cl
HETATM   19  C33 UNL     1      48.705   7.545   2.503  1.00  0.00     0.172 C 
ENDROOT
BRANCH  16  20
HETATM   20  C18 UNL     1      47.324   7.622  -1.067  1.00  0.00     0.174 C 
BRANCH  20  21
HETATM   21  O5  UNL     1      47.757   8.595  -1.947  1.00  0.00    -0.382 OA
BRANCH  21  22
HETATM   22  C19 UNL     1      46.785   9.112  -2.759  1.00  0.00     0.142 C 
HETATM   23  C20 UNL     1      47.145   9.120  -4.221  1.00  0.00     0.044 C 
BRANCH  22  24
HETATM   24  C21 UNL     1      45.457   8.472  -2.620  1.00  0.00     0.040 C 
HETATM   25  C22 UNL     1      44.311   9.111  -2.753  1.00  0.00     0.089 C 
BRANCH  25  26
HETATM   26  O6  UNL     1      44.230  10.460  -3.038  1.00  0.00    -0.280 OA
BRANCH  26  27
HETATM   27  C23 UNL     1      44.371  11.501  -2.173  1.00  0.00     0.263 C 
HETATM   28  O7  UNL     1      44.245  12.668  -2.569  1.00  0.00    -0.265 OA
BRANCH  27  29
HETATM   29  C24 UNL     1      44.678  11.186  -0.740  1.00  0.00     0.112 C 
BRANCH  29  30
HETATM   30  C25 UNL     1      45.651  12.208  -0.238  1.00  0.00     0.013 C 
BRANCH  30  31
HETATM   31  C26 UNL     1      45.207  12.847   1.053  1.00  0.00    -0.022 C 
HETATM   32  C27 UNL     1      46.351  12.963   2.036  1.00  0.00     0.009 C 
HETATM   33  C28 UNL     1      44.679  14.251   0.835  1.00  0.00     0.009 C 
ENDBRANCH  30  31
ENDBRANCH  29  30
ENDBRANCH  27  29
ENDBRANCH  26  27
ENDBRANCH  25  26
BRANCH  25  34
HETATM   34  C29 UNL     1      43.043   8.357  -2.591  1.00  0.00     0.099 C 
HETATM   35  C30 UNL     1      41.875   9.261  -2.856  1.00  0.00     0.053 C 
HETATM   36  C31 UNL     1      43.034   7.167  -3.544  1.00  0.00     0.053 C 
BRANCH  34  37
HETATM   37  O8  UNL     1      42.965   7.835  -1.307  1.00  0.00    -0.384 OA
ATOM     38  H8  UNL     1      42.606   6.956  -1.337  1.00  0.00     0.211 HD
ENDBRANCH  34  37
ENDBRANCH  25  34
ENDBRANCH  22  24
ENDBRANCH  21  22
ENDBRANCH  20  21
ENDBRANCH  16  20
BRANCH  19  39
HETATM   39  O9  UNL     1      48.032   6.635   3.329  1.00  0.00    -0.391 OA
ATOM     40  H9  UNL     1      47.343   6.174   2.865  1.00  0.00     0.210 HD
ENDBRANCH  19  39
BRANCH   1  41
HETATM   41  O2  UNL     1      50.780   3.365   5.714  1.00  0.00    -0.313 OA
BRANCH  41  42
HETATM   42  C2  UNL     1      49.954   2.255   5.754  1.00  0.00     0.255 C 
HETATM   43  C1  UNL     1      49.992   1.241   6.832  1.00  0.00     0.126 C 
HETATM   44  O1  UNL     1      49.096   2.055   4.831  1.00  0.00    -0.266 OA
ENDBRANCH  41  42
ENDBRANCH   1  41
BRANCH   2  45
HETATM   45  O3  UNL     1      53.126   4.093   6.173  1.00  0.00    -0.389 OA
ATOM     46  H3  UNL     1      54.041   3.935   6.373  1.00  0.00     0.210 HD
ENDBRANCH   2  45
TORSDOF 15
ENDMDL
MODEL 5
REMARK VINA RESULT: -6.545216112      8.592     12.084
REMARK  15 active torsions:
REMARK  status: ('A' for Active; 'I' for Inactive)
REMARK    1  A    between atoms: C2_2  and  O2_4 
REMARK    2  A    between atoms: O2_4  and  C3_5 
REMARK    3  A    between atoms: C4_6  and  O3_7 
REMARK    4  A    between atoms: C17_22  and  C18_23 
REMARK    5  A    between atoms: C18_23  and  O5_24 
REMARK    6  A    between atoms: O5_24  and  C19_25 
REMARK    7  A    between atoms: C19_25  and  C21_27 
REMARK    8  A    between atoms: C22_28  and  O6_29 
REMARK    9  A    between atoms: C22_28  and  C29_37 
REMARK   10  A    between atoms: O6_29  and  C23_30 
REMARK   11  A    between atoms: C23_30  and  C24_32 
REMARK   12  A    between atoms: C24_32  and  C25_33 
REMARK   13  A    between atoms: C25_33  and  C26_34 
REMARK   14  A    between atoms: C29_37  and  O8_40 
REMARK   15  A    between atoms: C33_44  and  O9_45 
ROOT
HETATM    1  C3  UNL     1      54.308   1.416   4.946  1.00  0.00     0.169 C 
HETATM    2  C4  UNL     1      54.179   0.999   6.369  1.00  0.00     0.170 C 
HETATM    3  C5  UNL     1      52.856   1.335   6.955  1.00  0.00     0.004 C 
HETATM    4  C6  UNL     1      51.969   2.175   6.441  1.00  0.00    -0.018 C 
HETATM    5  C7  UNL     1      52.301   2.842   5.183  1.00  0.00    -0.008 C 
HETATM    6  C8  UNL     1      53.322   3.923   5.548  1.00  0.00     0.021 C 
HETATM    7  C9  UNL     1      52.988   1.797   4.303  1.00  0.00     0.031 C 
HETATM    8  C10 UNL     1      52.066   0.655   4.073  1.00  0.00     0.011 C 
HETATM    9  C11 UNL     1      50.604   0.959   4.250  1.00  0.00     0.042 C 
HETATM   10  C12 UNL     1      50.249   2.389   3.832  1.00  0.00     0.099 A 
HETATM   11  O4  UNL     1      49.251   2.993   4.598  1.00  0.00    -0.376 OA
HETATM   12  C13 UNL     1      50.076   3.938   5.230  1.00  0.00     0.182 A 
HETATM   13  C14 UNL     1      51.181   3.402   4.375  1.00  0.00     0.026 A 
HETATM   14  C15 UNL     1      51.679   4.387   3.359  1.00  0.00     0.016 C 
HETATM   15  C16 UNL     1      50.677   5.339   2.815  1.00  0.00     0.009 C 
HETATM   16  C17 UNL     1      49.419   4.844   2.264  1.00  0.00     0.030 C 
HETATM   17  C32 UNL     1      49.326   3.482   1.701  1.00  0.00     0.120 C 
HETATM   18 CL1  UNL     1      47.646   3.075   1.216  1.00  0.00    -0.122 Cl
HETATM   19  C33 UNL     1      49.981   2.367   2.378  1.00  0.00     0.172 C 
ENDROOT
BRANCH  16  20
HETATM   20  C18 UNL     1      48.812   5.826   1.228  1.00  0.00     0.174 C 
BRANCH  20  21
HETATM   21  O5  UNL     1      48.558   7.041   1.837  1.00  0.00    -0.382 OA
BRANCH  21  22
HETATM   22  C19 UNL     1      48.793   8.138   1.054  1.00  0.00     0.142 C 
HETATM   23  C20 UNL     1      50.150   8.150   0.402  1.00  0.00     0.044 C 
BRANCH  22  24
HETATM   24  C21 UNL     1      47.779   8.376   0.001  1.00  0.00     0.040 C 
HETATM   25  C22 UNL     1      46.798   9.251   0.103  1.00  0.00     0.089 C 
BRANCH  25  26
HETATM   26  O6  UNL     1      46.612  10.045   1.218  1.00  0.00    -0.280 OA
BRANCH  26  27
HETATM   27  C23 UNL     1      47.040  11.322   1.409  1.00  0.00     0.263 C 
HETATM   28  O7  UNL     1      47.762  11.875   0.568  1.00  0.00    -0.265 OA
BRANCH  27  29
HETATM   29  C24 UNL     1      46.610  12.026   2.660  1.00  0.00     0.112 C 
BRANCH  29  30
HETATM   30  C25 UNL     1      47.257  13.377   2.680  1.00  0.00     0.013 C 
BRANCH  30  31
HETATM   31  C26 UNL     1      46.279  14.485   2.975  1.00  0.00    -0.022 C 
HETATM   32  C27 UNL     1      46.967  15.830   3.040  1.00  0.00     0.009 C 
HETATM   33  C28 UNL     1      45.213  14.595   1.903  1.00  0.00     0.009 C 
ENDBRANCH  30  31
ENDBRANCH  29  30
ENDBRANCH  27  29
ENDBRANCH  26  27
ENDBRANCH  25  26
BRANCH  25  34
HETATM   34  C29 UNL     1      45.844   9.399  -1.024  1.00  0.00     0.099 C 
HETATM   35  C30 UNL     1      46.224   8.470  -2.139  1.00  0.00     0.053 C 
HETATM   36  C31 UNL     1      44.430   9.107  -0.535  1.00  0.00     0.053 C 
BRANCH  34  37
HETATM   37  O8  UNL     1      45.844  10.713  -1.472  1.00  0.00    -0.384 OA
ATOM     38  H8  UNL     1      46.372  10.786  -2.258  1.00  0.00     0.211 HD
ENDBRANCH  34  37
ENDBRANCH  25  34
ENDBRANCH  22  24
ENDBRANCH  21  22
ENDBRANCH  20  21
ENDBRANCH  16  20
BRANCH  19  39
HETATM   39  O9  UNL     1      51.077   1.890   1.648  1.00  0.00    -0.391 OA
ATOM     40  H9  UNL     1      50.837   1.647   0.762  1.00  0.00     0.210 HD
ENDBRANCH  19  39
BRANCH   1  41
HETATM   41  O2  UNL     1      54.976   0.429   4.216  1.00  0.00    -0.313 OA
BRANCH  41  42
HETATM   42  C2  UNL     1      56.278   0.636   3.793  1.00  0.00     0.255 C 
HETATM   43  C1  UNL     1      56.664   1.661   2.797  1.00  0.00     0.126 C 
HETATM   44  O1  UNL     1      57.230  -0.072   4.261  1.00  0.00    -0.266 OA
ENDBRANCH  41  42
ENDBRANCH   1  41
BRANCH   2  45
HETATM   45  O3  UNL     1      54.478  -0.362   6.534  1.00  0.00    -0.389 OA
ATOM     46  H3  UNL     1      55.384  -0.547   6.319  1.00  0.00     0.210 HD
ENDBRANCH   2  45
TORSDOF 15
ENDMDL
