MODEL 1
REMARK VINA RESULT: -6.784371109      0.000      0.000
REMARK  3 active torsions:
REMARK  status: ('A' for Active; 'I' for Inactive)
REMARK    1  A    between atoms: C4_9  and  C5_10 
REMARK    2  A    between atoms: C5_10  and  C6_11 
REMARK    3  A    between atoms: C6_11  and  N4_12 
REMARK       I    between atoms: N4_12  and  C7_14 
ROOT
HETATM    1  N1  UNL     1     -20.906  -0.253  59.768  1.00  0.00    -0.191 NA
HETATM    2  C1  UNL     1     -21.857   0.296  59.411  1.00  0.00     0.103 C 
HETATM    3  C2  UNL     1     -23.050   0.977  58.973  1.00  0.00     0.085 A 
HETATM    4  C3  UNL     1     -24.032   0.501  58.127  1.00  0.00     0.131 A 
HETATM    5  N2  UNL     1     -24.946   1.494  58.010  1.00  0.00    -0.310 N 
ATOM      6  H2  UNL     1     -25.798   1.456  57.451  1.00  0.00     0.186 HD
HETATM    7  N3  UNL     1     -24.550   2.518  58.741  1.00  0.00    -0.304 N 
ATOM      8  H3  UNL     1     -25.062   3.396  58.827  1.00  0.00     0.186 HD
HETATM    9  C4  UNL     1     -23.397   2.259  59.352  1.00  0.00     0.049 A 
ENDROOT
BRANCH   9  10
HETATM   10  C5  UNL     1     -22.603   3.127  60.264  1.00  0.00     0.080 C 
BRANCH  10  11
HETATM   11  C6  UNL     1     -23.228   3.219  61.631  1.00  0.00     0.128 C 
BRANCH  11  12
HETATM   12  N4  UNL     1     -23.028   1.998  62.389  1.00  0.00    -0.364 N 
HETATM   13  C7  UNL     1     -24.121   1.113  62.580  1.00  0.00     0.181 C 
HETATM   14  N5  UNL     1     -25.291   1.554  62.893  1.00  0.00    -0.374 N 
HETATM   15  N6  UNL     1     -24.002  -0.308  62.442  1.00  0.00    -0.064 NA
ATOM     16  H52 UNL     1     -25.376   2.565  62.991  1.00  0.00     0.158 HD
ATOM     17  H51 UNL     1     -26.076   0.917  63.031  1.00  0.00     0.158 HD
ATOM     18  H4  UNL     1     -22.112   1.778  62.779  1.00  0.00     0.162 HD
ENDBRANCH  11  12
ENDBRANCH  10  11
ENDBRANCH   9  10
TORSDOF 3
ENDMDL
MODEL 2
REMARK VINA RESULT: -6.677557934      0.780      1.162
REMARK  3 active torsions:
REMARK  status: ('A' for Active; 'I' for Inactive)
REMARK    1  A    between atoms: C4_9  and  C5_10 
REMARK    2  A    between atoms: C5_10  and  C6_11 
REMARK    3  A    between atoms: C6_11  and  N4_12 
REMARK       I    between atoms: N4_12  and  C7_14 
ROOT
HETATM    1  N1  UNL     1     -20.811   0.019  59.769  1.00  0.00    -0.191 NA
HETATM    2  C1  UNL     1     -21.803   0.501  59.428  1.00  0.00     0.103 C 
HETATM    3  C2  UNL     1     -23.046   1.100  59.009  1.00  0.00     0.085 A 
HETATM    4  C3  UNL     1     -24.023   0.545  58.204  1.00  0.00     0.131 A 
HETATM    5  N2  UNL     1     -24.997   1.480  58.092  1.00  0.00    -0.310 N 
ATOM      6  H2  UNL     1     -25.861   1.378  57.559  1.00  0.00     0.186 HD
HETATM    7  N3  UNL     1     -24.642   2.544  58.785  1.00  0.00    -0.304 N 
ATOM      8  H3  UNL     1     -25.202   3.392  58.866  1.00  0.00     0.186 HD
HETATM    9  C4  UNL     1     -23.458   2.369  59.368  1.00  0.00     0.049 A 
ENDROOT
BRANCH   9  10
HETATM   10  C5  UNL     1     -22.691   3.305  60.234  1.00  0.00     0.080 C 
BRANCH  10  11
HETATM   11  C6  UNL     1     -22.811   2.942  61.691  1.00  0.00     0.128 C 
BRANCH  11  12
HETATM   12  N4  UNL     1     -24.155   3.174  62.187  1.00  0.00    -0.364 N 
HETATM   13  C7  UNL     1     -24.854   2.114  62.822  1.00  0.00     0.181 C 
HETATM   14  N5  UNL     1     -24.841   0.920  62.338  1.00  0.00    -0.374 N 
HETATM   15  N6  UNL     1     -25.610   2.296  64.026  1.00  0.00    -0.064 NA
ATOM     16  H52 UNL     1     -24.303   0.791  61.481  1.00  0.00     0.158 HD
ATOM     17  H51 UNL     1     -25.344   0.159  62.794  1.00  0.00     0.158 HD
ATOM     18  H4  UNL     1     -24.592   4.089  62.079  1.00  0.00     0.162 HD
ENDBRANCH  11  12
ENDBRANCH  10  11
ENDBRANCH   9  10
TORSDOF 3
ENDMDL
MODEL 3
REMARK VINA RESULT: -6.571979206      1.713      3.744
REMARK  3 active torsions:
REMARK  status: ('A' for Active; 'I' for Inactive)
REMARK    1  A    between atoms: C4_9  and  C5_10 
REMARK    2  A    between atoms: C5_10  and  C6_11 
REMARK    3  A    between atoms: C6_11  and  N4_12 
REMARK       I    between atoms: N4_12  and  C7_14 
ROOT
HETATM    1  N1  UNL     1     -22.878   0.276  63.400  1.00  0.00    -0.191 NA
HETATM    2  C1  UNL     1     -23.539   1.137  63.008  1.00  0.00     0.103 C 
HETATM    3  C2  UNL     1     -24.359   2.219  62.522  1.00  0.00     0.085 A 
HETATM    4  C3  UNL     1     -25.488   2.754  63.113  1.00  0.00     0.131 A 
HETATM    5  N2  UNL     1     -25.911   3.745  62.291  1.00  0.00    -0.310 N 
ATOM      6  H2  UNL     1     -26.727   4.337  62.445  1.00  0.00     0.186 HD
HETATM    7  N3  UNL     1     -25.092   3.816  61.260  1.00  0.00    -0.304 N 
ATOM      8  H3  UNL     1     -25.188   4.481  60.494  1.00  0.00     0.186 HD
HETATM    9  C4  UNL     1     -24.124   2.907  61.348  1.00  0.00     0.049 A 
ENDROOT
BRANCH   9  10
HETATM   10  C5  UNL     1     -22.999   2.641  60.410  1.00  0.00     0.080 C 
BRANCH  10  11
HETATM   11  C6  UNL     1     -23.494   2.226  59.049  1.00  0.00     0.128 C 
BRANCH  11  12
HETATM   12  N4  UNL     1     -24.481   1.166  59.145  1.00  0.00    -0.364 N 
HETATM   13  C7  UNL     1     -24.063  -0.142  59.503  1.00  0.00     0.181 C 
HETATM   14  N5  UNL     1     -23.005  -0.670  58.990  1.00  0.00    -0.374 N 
HETATM   15  N6  UNL     1     -24.778  -0.954  60.443  1.00  0.00    -0.064 NA
ATOM     16  H52 UNL     1     -22.496  -0.092  58.321  1.00  0.00     0.158 HD
ATOM     17  H51 UNL     1     -22.706  -1.610  59.247  1.00  0.00     0.158 HD
ATOM     18  H4  UNL     1     -25.464   1.360  58.956  1.00  0.00     0.162 HD
ENDBRANCH  11  12
ENDBRANCH  10  11
ENDBRANCH   9  10
TORSDOF 3
ENDMDL
MODEL 4
REMARK VINA RESULT: -6.552044465      1.612      4.096
REMARK  3 active torsions:
REMARK  status: ('A' for Active; 'I' for Inactive)
REMARK    1  A    between atoms: C4_9  and  C5_10 
REMARK    2  A    between atoms: C5_10  and  C6_11 
REMARK    3  A    between atoms: C6_11  and  N4_12 
REMARK       I    between atoms: N4_12  and  C7_14 
ROOT
HETATM    1  N1  UNL     1     -22.767   0.131  63.365  1.00  0.00    -0.191 NA
HETATM    2  C1  UNL     1     -23.507   0.976  63.098  1.00  0.00     0.103 C 
HETATM    3  C2  UNL     1     -24.428   2.038  62.772  1.00  0.00     0.085 A 
HETATM    4  C3  UNL     1     -25.651   2.305  63.357  1.00  0.00     0.131 A 
HETATM    5  N2  UNL     1     -26.145   3.393  62.720  1.00  0.00    -0.310 N 
ATOM      6  H2  UNL     1     -27.038   3.844  62.918  1.00  0.00     0.186 HD
HETATM    7  N3  UNL     1     -25.279   3.772  61.800  1.00  0.00    -0.304 N 
ATOM      8  H3  UNL     1     -25.412   4.570  61.179  1.00  0.00     0.186 HD
HETATM    9  C4  UNL     1     -24.210   2.980  61.786  1.00  0.00     0.049 A 
ENDROOT
BRANCH   9  10
HETATM   10  C5  UNL     1     -23.004   3.048  60.917  1.00  0.00     0.080 C 
BRANCH  10  11
HETATM   11  C6  UNL     1     -23.310   2.621  59.505  1.00  0.00     0.128 C 
BRANCH  11  12
HETATM   12  N4  UNL     1     -22.881   1.257  59.258  1.00  0.00    -0.364 N 
HETATM   13  C7  UNL     1     -21.496   0.948  59.286  1.00  0.00     0.181 C 
HETATM   14  N5  UNL     1     -20.630   1.714  58.719  1.00  0.00    -0.374 N 
HETATM   15  N6  UNL     1     -20.975  -0.219  59.935  1.00  0.00    -0.064 NA
ATOM     16  H52 UNL     1     -21.000   2.545  58.258  1.00  0.00     0.158 HD
ATOM     17  H51 UNL     1     -19.634   1.492  58.739  1.00  0.00     0.158 HD
ATOM     18  H4  UNL     1     -23.569   0.528  59.067  1.00  0.00     0.162 HD
ENDBRANCH  11  12
ENDBRANCH  10  11
ENDBRANCH   9  10
TORSDOF 3
ENDMDL
MODEL 5
REMARK VINA RESULT: -6.521872776      1.615      1.790
REMARK  3 active torsions:
REMARK  status: ('A' for Active; 'I' for Inactive)
REMARK    1  A    between atoms: C4_9  and  C5_10 
REMARK    2  A    between atoms: C5_10  and  C6_11 
REMARK    3  A    between atoms: C6_11  and  N4_12 
REMARK       I    between atoms: N4_12  and  C7_14 
ROOT
HETATM    1  N1  UNL     1     -22.748  -1.716  59.039  1.00  0.00    -0.191 NA
HETATM    2  C1  UNL     1     -23.337  -0.760  58.768  1.00  0.00     0.103 C 
HETATM    3  C2  UNL     1     -24.079   0.431  58.436  1.00  0.00     0.085 A 
HETATM    4  C3  UNL     1     -24.956   0.614  57.384  1.00  0.00     0.131 A 
HETATM    5  N2  UNL     1     -25.404   1.889  57.483  1.00  0.00    -0.310 N 
ATOM      6  H2  UNL     1     -26.069   2.336  56.851  1.00  0.00     0.186 HD
HETATM    7  N3  UNL     1     -24.838   2.455  58.531  1.00  0.00    -0.304 N 
ATOM      8  H3  UNL     1     -25.007   3.415  58.827  1.00  0.00     0.186 HD
HETATM    9  C4  UNL     1     -24.018   1.611  59.152  1.00  0.00     0.049 A 
ENDROOT
BRANCH   9  10
HETATM   10  C5  UNL     1     -23.185   1.834  60.366  1.00  0.00     0.080 C 
BRANCH  10  11
HETATM   11  C6  UNL     1     -23.396   3.210  60.940  1.00  0.00     0.128 C 
BRANCH  11  12
HETATM   12  N4  UNL     1     -23.712   3.152  62.355  1.00  0.00    -0.364 N 
HETATM   13  C7  UNL     1     -25.071   3.162  62.764  1.00  0.00     0.181 C 
HETATM   14  N5  UNL     1     -25.924   3.967  62.229  1.00  0.00    -0.374 N 
HETATM   15  N6  UNL     1     -25.581   2.294  63.784  1.00  0.00    -0.064 NA
ATOM     16  H52 UNL     1     -25.561   4.585  61.503  1.00  0.00     0.158 HD
ATOM     17  H51 UNL     1     -26.900   3.974  62.524  1.00  0.00     0.158 HD
ATOM     18  H4  UNL     1     -22.965   3.103  63.048  1.00  0.00     0.162 HD
ENDBRANCH  11  12
ENDBRANCH  10  11
ENDBRANCH   9  10
TORSDOF 3
ENDMDL
