MODEL 1
REMARK VINA RESULT: -6.686084056      0.000      0.000
REMARK  8 active torsions:
REMARK  status: ('A' for Active; 'I' for Inactive)
REMARK    1  A    between atoms: N1_1  and  C1_5 
REMARK    2  A    between atoms: C3_7  and  C4_8 
REMARK    3  A    between atoms: C4_8  and  N2_9 
REMARK    4  A    between atoms: N2_9  and  C5_11 
REMARK    5  A    between atoms: C5_11  and  N3_13 
REMARK    6  A    between atoms: N3_13  and  C6_15 
REMARK    7  A    between atoms: C12_21  and  C13_22 
REMARK    8  A    between atoms: C13_22  and  O1_23 
ROOT
HETATM    1  C4  UNL     1     -15.610   5.695  13.522  1.00  0.00     0.127 C 
ENDROOT
BRANCH   1   2
HETATM    2  C3  UNL     1     -16.496   4.493  13.540  1.00  0.00     0.013 C 
HETATM    3  C2  UNL     1     -16.890   4.077  12.120  1.00  0.00     0.040 C 
HETATM    4  C1  UNL     1     -16.566   2.653  12.529  1.00  0.00     0.190 C 
HETATM    5  C12 UNL     1     -15.794   3.169  13.733  1.00  0.00     0.045 C 
BRANCH   4   6
HETATM    6  N1  UNL     1     -17.719   1.907  12.968  1.00  0.00    -0.075 N 
ATOM      7  H13 UNL     1     -18.466   2.536  13.263  1.00  0.00     0.274 HD
ATOM      8  H12 UNL     1     -18.180   1.455  12.178  1.00  0.00     0.274 HD
ATOM      9  H11 UNL     1     -17.507   1.228  13.700  1.00  0.00     0.274 HD
ENDBRANCH   4   6
BRANCH   5  10
HETATM   10  C13 UNL     1     -16.214   2.541  15.044  1.00  0.00     0.171 C 
BRANCH  10  11
HETATM   11  O1  UNL     1     -15.353   2.869  16.080  1.00  0.00    -0.400 OA
ATOM     12  H1  UNL     1     -15.820   3.168  16.852  1.00  0.00     0.209 HD
ENDBRANCH  10  11
ENDBRANCH   5  10
ENDBRANCH   1   2
BRANCH   1  13
HETATM   13  N2  UNL     1     -16.139   6.684  14.430  1.00  0.00    -0.367 N 
ATOM     14  H2  UNL     1     -15.927   6.634  15.427  1.00  0.00     0.161 HD
BRANCH  13  15
HETATM   15  C5  UNL     1     -16.947   7.714  13.929  1.00  0.00     0.167 C 
HETATM   16  S1  UNL     1     -17.032   9.117  14.728  1.00  0.00    -0.041 SA
BRANCH  15  17
HETATM   17  N3  UNL     1     -17.678   7.530  12.738  1.00  0.00    -0.363 N 
ATOM     18  H3  UNL     1     -17.177   7.558  11.851  1.00  0.00     0.162 HD
BRANCH  17  19
HETATM   19  C6  UNL     1     -19.108   7.302  12.716  1.00  0.00     0.083 C 
HETATM   20  C7  UNL     1     -19.470   6.708  11.376  1.00  0.00     0.025 C 
HETATM   21  C8  UNL     1     -20.947   6.476  11.259  1.00  0.00     0.002 C 
HETATM   22  C9  UNL     1     -21.408   5.724  12.485  1.00  0.00     0.000 C 
HETATM   23  C10 UNL     1     -20.237   5.180  13.275  1.00  0.00     0.002 C 
HETATM   24  C11 UNL     1     -19.401   6.315  13.848  1.00  0.00     0.025 C 
ENDBRANCH  17  19
ENDBRANCH  15  17
ENDBRANCH  13  15
ENDBRANCH   1  13
TORSDOF 8
ENDMDL
MODEL 2
REMARK VINA RESULT: -6.567072560      1.550      1.893
REMARK  8 active torsions:
REMARK  status: ('A' for Active; 'I' for Inactive)
REMARK    1  A    between atoms: N1_1  and  C1_5 
REMARK    2  A    between atoms: C3_7  and  C4_8 
REMARK    3  A    between atoms: C4_8  and  N2_9 
REMARK    4  A    between atoms: N2_9  and  C5_11 
REMARK    5  A    between atoms: C5_11  and  N3_13 
REMARK    6  A    between atoms: N3_13  and  C6_15 
REMARK    7  A    between atoms: C12_21  and  C13_22 
REMARK    8  A    between atoms: C13_22  and  O1_23 
ROOT
HETATM    1  C4  UNL     1     -15.035   6.169  12.867  1.00  0.00     0.127 C 
ENDROOT
BRANCH   1   2
HETATM    2  C3  UNL     1     -15.009   4.696  13.105  1.00  0.00     0.013 C 
HETATM    3  C2  UNL     1     -15.573   4.350  14.487  1.00  0.00     0.040 C 
HETATM    4  C1  UNL     1     -16.369   3.255  13.804  1.00  0.00     0.190 C 
HETATM    5  C12 UNL     1     -16.124   3.911  12.454  1.00  0.00     0.045 C 
BRANCH   4   6
HETATM    6  N1  UNL     1     -15.723   1.966  13.846  1.00  0.00    -0.075 N 
ATOM      7  H13 UNL     1     -15.401   1.692  12.918  1.00  0.00     0.274 HD
ATOM      8  H12 UNL     1     -14.825   2.027  14.326  1.00  0.00     0.274 HD
ATOM      9  H11 UNL     1     -16.304   1.235  14.258  1.00  0.00     0.274 HD
ENDBRANCH   4   6
BRANCH   5  10
HETATM   10  C13 UNL     1     -15.562   2.971  11.410  1.00  0.00     0.171 C 
BRANCH  10  11
HETATM   11  O1  UNL     1     -16.551   2.210  10.806  1.00  0.00    -0.400 OA
ATOM     12  H1  UNL     1     -16.630   2.397   9.878  1.00  0.00     0.209 HD
ENDBRANCH  10  11
ENDBRANCH   5  10
ENDBRANCH   1   2
BRANCH   1  13
HETATM   13  N2  UNL     1     -15.719   6.812  13.965  1.00  0.00    -0.367 N 
ATOM     14  H2  UNL     1     -15.448   6.613  14.927  1.00  0.00     0.161 HD
BRANCH  13  15
HETATM   15  C5  UNL     1     -16.760   7.711  13.693  1.00  0.00     0.167 C 
HETATM   16  S1  UNL     1     -16.968   8.997  14.651  1.00  0.00    -0.041 SA
BRANCH  15  17
HETATM   17  N3  UNL     1     -17.617   7.497  12.595  1.00  0.00    -0.363 N 
ATOM     18  H3  UNL     1     -17.231   7.578  11.654  1.00  0.00     0.162 HD
BRANCH  17  19
HETATM   19  C6  UNL     1     -19.020   7.167  12.738  1.00  0.00     0.083 C 
HETATM   20  C7  UNL     1     -19.540   6.725  11.392  1.00  0.00     0.025 C 
HETATM   21  C8  UNL     1     -21.004   6.399  11.449  1.00  0.00     0.002 C 
HETATM   22  C9  UNL     1     -21.236   5.463  12.611  1.00  0.00     0.000 C 
HETATM   23  C10 UNL     1     -19.933   4.911  13.149  1.00  0.00     0.002 C 
HETATM   24  C11 UNL     1     -19.087   6.022  13.752  1.00  0.00     0.025 C 
ENDBRANCH  17  19
ENDBRANCH  15  17
ENDBRANCH  13  15
ENDBRANCH   1  13
TORSDOF 8
ENDMDL
MODEL 3
REMARK VINA RESULT: -6.275313081      1.593      2.263
REMARK  8 active torsions:
REMARK  status: ('A' for Active; 'I' for Inactive)
REMARK    1  A    between atoms: N1_1  and  C1_5 
REMARK    2  A    between atoms: C3_7  and  C4_8 
REMARK    3  A    between atoms: C4_8  and  N2_9 
REMARK    4  A    between atoms: N2_9  and  C5_11 
REMARK    5  A    between atoms: C5_11  and  N3_13 
REMARK    6  A    between atoms: N3_13  and  C6_15 
REMARK    7  A    between atoms: C12_21  and  C13_22 
REMARK    8  A    between atoms: C13_22  and  O1_23 
ROOT
HETATM    1  C4  UNL     1     -15.037   6.146  12.894  1.00  0.00     0.127 C 
ENDROOT
BRANCH   1   2
HETATM    2  C3  UNL     1     -14.954   4.669  13.094  1.00  0.00     0.013 C 
HETATM    3  C2  UNL     1     -15.433   4.274  14.494  1.00  0.00     0.040 C 
HETATM    4  C1  UNL     1     -16.230   3.170  13.827  1.00  0.00     0.190 C 
HETATM    5  C12 UNL     1     -16.077   3.865  12.482  1.00  0.00     0.045 C 
BRANCH   4   6
HETATM    6  N1  UNL     1     -15.544   1.902  13.804  1.00  0.00    -0.075 N 
ATOM      7  H13 UNL     1     -16.096   1.201  13.308  1.00  0.00     0.274 HD
ATOM      8  H12 UNL     1     -14.730   1.942  13.190  1.00  0.00     0.274 HD
ATOM      9  H11 UNL     1     -15.282   1.566  14.731  1.00  0.00     0.274 HD
ENDBRANCH   4   6
BRANCH   5  10
HETATM   10  C13 UNL     1     -15.542   2.968  11.388  1.00  0.00     0.171 C 
BRANCH  10  11
HETATM   11  O1  UNL     1     -16.544   2.213  10.795  1.00  0.00    -0.400 OA
ATOM     12  H1  UNL     1     -16.522   1.306  11.077  1.00  0.00     0.209 HD
ENDBRANCH  10  11
ENDBRANCH   5  10
ENDBRANCH   1   2
BRANCH   1  13
HETATM   13  N2  UNL     1     -15.789   6.727  13.980  1.00  0.00    -0.367 N 
ATOM     14  H2  UNL     1     -15.614   6.435  14.942  1.00  0.00     0.161 HD
BRANCH  13  15
HETATM   15  C5  UNL     1     -16.762   7.697  13.700  1.00  0.00     0.167 C 
HETATM   16  S1  UNL     1     -16.901   8.985  14.668  1.00  0.00    -0.041 SA
BRANCH  15  17
HETATM   17  N3  UNL     1     -17.613   7.551  12.586  1.00  0.00    -0.363 N 
ATOM     18  H3  UNL     1     -17.596   8.272  11.864  1.00  0.00     0.162 HD
BRANCH  17  19
HETATM   19  C6  UNL     1     -18.509   6.426  12.416  1.00  0.00     0.083 C 
HETATM   20  C7  UNL     1     -19.404   6.350  13.629  1.00  0.00     0.025 C 
HETATM   21  C8  UNL     1     -20.343   5.183  13.547  1.00  0.00     0.002 C 
HETATM   22  C9  UNL     1     -21.023   5.215  12.199  1.00  0.00     0.000 C 
HETATM   23  C10 UNL     1     -20.796   6.535  11.494  1.00  0.00     0.002 C 
HETATM   24  C11 UNL     1     -19.324   6.717  11.154  1.00  0.00     0.025 C 
ENDBRANCH  17  19
ENDBRANCH  15  17
ENDBRANCH  13  15
ENDBRANCH   1  13
TORSDOF 8
ENDMDL
MODEL 4
REMARK VINA RESULT: -6.234286481      1.418      1.854
REMARK  8 active torsions:
REMARK  status: ('A' for Active; 'I' for Inactive)
REMARK    1  A    between atoms: N1_1  and  C1_5 
REMARK    2  A    between atoms: C3_7  and  C4_8 
REMARK    3  A    between atoms: C4_8  and  N2_9 
REMARK    4  A    between atoms: N2_9  and  C5_11 
REMARK    5  A    between atoms: C5_11  and  N3_13 
REMARK    6  A    between atoms: N3_13  and  C6_15 
REMARK    7  A    between atoms: C12_21  and  C13_22 
REMARK    8  A    between atoms: C13_22  and  O1_23 
ROOT
HETATM    1  C4  UNL     1     -15.295   5.150  14.049  1.00  0.00     0.127 C 
ENDROOT
BRANCH   1   2
HETATM    2  C3  UNL     1     -15.972   4.325  13.005  1.00  0.00     0.013 C 
HETATM    3  C2  UNL     1     -15.149   4.283  11.715  1.00  0.00     0.040 C 
HETATM    4  C1  UNL     1     -15.403   2.788  11.691  1.00  0.00     0.190 C 
HETATM    5  C12 UNL     1     -15.815   2.829  13.154  1.00  0.00     0.045 C 
BRANCH   4   6
HETATM    6  N1  UNL     1     -16.531   2.412  10.875  1.00  0.00    -0.075 N 
ATOM      7  H13 UNL     1     -16.345   1.540  10.379  1.00  0.00     0.274 HD
ATOM      8  H12 UNL     1     -17.314   2.111  11.456  1.00  0.00     0.274 HD
ATOM      9  H11 UNL     1     -16.823   3.142  10.225  1.00  0.00     0.274 HD
ENDBRANCH   4   6
BRANCH   5  10
HETATM   10  C13 UNL     1     -17.158   2.188  13.430  1.00  0.00     0.171 C 
BRANCH  10  11
HETATM   11  O1  UNL     1     -17.034   1.006  14.146  1.00  0.00    -0.400 OA
ATOM     12  H1  UNL     1     -16.393   0.421  13.761  1.00  0.00     0.209 HD
ENDBRANCH  10  11
ENDBRANCH   5  10
ENDBRANCH   1   2
BRANCH   1  13
HETATM   13  N2  UNL     1     -16.121   6.293  14.356  1.00  0.00    -0.367 N 
ATOM     14  H2  UNL     1     -16.632   6.337  15.237  1.00  0.00     0.161 HD
BRANCH  13  15
HETATM   15  C5  UNL     1     -16.214   7.342  13.430  1.00  0.00     0.167 C 
HETATM   16  S1  UNL     1     -14.926   8.283  13.165  1.00  0.00    -0.041 SA
BRANCH  15  17
HETATM   17  N3  UNL     1     -17.419   7.574  12.736  1.00  0.00    -0.363 N 
ATOM     18  H3  UNL     1     -17.580   8.499  12.338  1.00  0.00     0.162 HD
BRANCH  17  19
HETATM   19  C6  UNL     1     -18.439   6.561  12.561  1.00  0.00     0.083 C 
HETATM   20  C7  UNL     1     -19.544   6.830  13.553  1.00  0.00     0.025 C 
HETATM   21  C8  UNL     1     -20.629   5.797  13.460  1.00  0.00     0.002 C 
HETATM   22  C9  UNL     1     -21.031   5.662  12.011  1.00  0.00     0.000 C 
HETATM   23  C10 UNL     1     -20.465   6.786  11.170  1.00  0.00     0.002 C 
HETATM   24  C11 UNL     1     -18.946   6.711  11.125  1.00  0.00     0.025 C 
ENDBRANCH  17  19
ENDBRANCH  15  17
ENDBRANCH  13  15
ENDBRANCH   1  13
TORSDOF 8
ENDMDL
MODEL 5
REMARK VINA RESULT: -6.223344844      1.538      1.841
REMARK  8 active torsions:
REMARK  status: ('A' for Active; 'I' for Inactive)
REMARK    1  A    between atoms: N1_1  and  C1_5 
REMARK    2  A    between atoms: C3_7  and  C4_8 
REMARK    3  A    between atoms: C4_8  and  N2_9 
REMARK    4  A    between atoms: N2_9  and  C5_11 
REMARK    5  A    between atoms: C5_11  and  N3_13 
REMARK    6  A    between atoms: N3_13  and  C6_15 
REMARK    7  A    between atoms: C12_21  and  C13_22 
REMARK    8  A    between atoms: C13_22  and  O1_23 
ROOT
HETATM    1  C4  UNL     1     -15.297   6.512  12.683  1.00  0.00     0.127 C 
ENDROOT
BRANCH   1   2
HETATM    2  C3  UNL     1     -15.073   5.040  12.580  1.00  0.00     0.013 C 
HETATM    3  C2  UNL     1     -13.598   4.689  12.802  1.00  0.00     0.040 C 
HETATM    4  C1  UNL     1     -14.078   3.581  13.719  1.00  0.00     0.190 C 
HETATM    5  C12 UNL     1     -15.447   4.237  13.805  1.00  0.00     0.045 C 
BRANCH   4   6
HETATM    6  N1  UNL     1     -14.188   2.302  13.063  1.00  0.00    -0.075 N 
ATOM      7  H13 UNL     1     -13.992   1.542  13.715  1.00  0.00     0.274 HD
ATOM      8  H12 UNL     1     -15.162   2.089  12.844  1.00  0.00     0.274 HD
ATOM      9  H11 UNL     1     -13.605   2.222  12.229  1.00  0.00     0.274 HD
ENDBRANCH   4   6
BRANCH   5  10
HETATM   10  C13 UNL     1     -16.594   3.303  13.487  1.00  0.00     0.171 C 
BRANCH  10  11
HETATM   11  O1  UNL     1     -17.693   3.528  14.303  1.00  0.00    -0.400 OA
ATOM     12  H1  UNL     1     -17.659   3.010  15.099  1.00  0.00     0.209 HD
ENDBRANCH  10  11
ENDBRANCH   5  10
ENDBRANCH   1   2
BRANCH   1  13
HETATM   13  N2  UNL     1     -15.735   6.830  14.021  1.00  0.00    -0.367 N 
ATOM     14  H2  UNL     1     -15.120   6.663  14.817  1.00  0.00     0.161 HD
BRANCH  13  15
HETATM   15  C5  UNL     1     -17.014   7.371  14.214  1.00  0.00     0.167 C 
HETATM   16  S1  UNL     1     -17.177   8.962  14.449  1.00  0.00    -0.041 SA
BRANCH  15  17
HETATM   17  N3  UNL     1     -18.149   6.535  14.203  1.00  0.00    -0.363 N 
ATOM     18  H3  UNL     1     -18.150   5.709  14.801  1.00  0.00     0.162 HD
BRANCH  17  19
HETATM   19  C6  UNL     1     -19.314   6.793  13.383  1.00  0.00     0.083 C 
HETATM   20  C7  UNL     1     -18.906   6.676  11.934  1.00  0.00     0.025 C 
HETATM   21  C8  UNL     1     -20.055   6.967  11.015  1.00  0.00     0.002 C 
HETATM   22  C9  UNL     1     -21.238   6.140  11.458  1.00  0.00     0.000 C 
HETATM   23  C10 UNL     1     -20.831   5.079  12.458  1.00  0.00     0.002 C 
HETATM   24  C11 UNL     1     -20.340   5.717  13.749  1.00  0.00     0.025 C 
ENDBRANCH  17  19
ENDBRANCH  15  17
ENDBRANCH  13  15
ENDBRANCH   1  13
TORSDOF 8
ENDMDL
