MODEL 1
REMARK VINA RESULT: -8.445517650      0.000      0.000
REMARK  13 active torsions:
REMARK  status: ('A' for Active; 'I' for Inactive)
REMARK    1  A    between atoms: C2_2  and  O1_3 
REMARK    2  A    between atoms: O1_3  and  C3_4 
REMARK    3  A    between atoms: C5_6  and  C6_7 
REMARK    4  A    between atoms: C7_8  and  C8_9 
REMARK    5  A    between atoms: C10_11  and  C11_12 
REMARK    6  A    between atoms: C11_12  and  O2_13 
REMARK    7  A    between atoms: C11_12  and  N1_15 
REMARK    8  A    between atoms: N1_15  and  C12_16 
REMARK    9  A    between atoms: C17_23  and  C18_24 
REMARK   10  A    between atoms: C21_30  and  N2_31 
REMARK   11  A    between atoms: C25_35  and  O5_36 
REMARK   12  A    between atoms: C27_38  and  O6_39 
REMARK   13  A    between atoms: O6_39  and  C28_40 
ROOT
HETATM    1  C8  UNL     1     -13.228  23.135  18.560  1.00  0.00    -0.009 A 
HETATM    2  C9  UNL     1     -12.334  23.153  17.519  1.00  0.00     0.032 A 
HETATM    3  C10 UNL     1     -11.407  24.189  17.325  1.00  0.00     0.052 A 
HETATM    4  C19 UNL     1     -11.366  25.258  18.211  1.00  0.00     0.051 A 
HETATM    5 CL3  UNL     1     -10.249  26.593  18.048  1.00  0.00    -0.083 Cl
HETATM    6  C20 UNL     1     -12.259  25.238  19.244  1.00  0.00     0.055 A 
HETATM    7  C21 UNL     1     -13.170  24.224  19.435  1.00  0.00     0.041 A 
ENDROOT
BRANCH   1   8
HETATM    8  C7  UNL     1     -14.180  22.062  18.786  1.00  0.00     0.014 C 
HETATM    9  C6  UNL     1     -15.164  21.832  17.964  1.00  0.00     0.012 C 
BRANCH   9  10
HETATM   10  C5  UNL     1     -16.161  20.773  18.124  1.00  0.00    -0.031 A 
HETATM   11  C4  UNL     1     -16.356  19.783  17.170  1.00  0.00     0.051 A 
HETATM   12  C3  UNL     1     -17.292  18.793  17.292  1.00  0.00     0.105 A 
HETATM   13  C27 UNL     1     -18.075  18.789  18.423  1.00  0.00     0.135 A 
HETATM   14  C25 UNL     1     -17.948  19.730  19.416  1.00  0.00     0.105 A 
HETATM   15  C24 UNL     1     -16.970  20.718  19.229  1.00  0.00     0.051 A 
BRANCH  12  16
HETATM   16  O1  UNL     1     -17.470  17.826  16.343  1.00  0.00    -0.349 OA
BRANCH  16  17
HETATM   17  C2  UNL     1     -17.747  17.967  14.993  1.00  0.00     0.171 C 
HETATM   18  C1  UNL     1     -18.874  17.131  14.469  1.00  0.00     0.034 C 
ENDBRANCH  16  17
ENDBRANCH  12  16
BRANCH  13  19
HETATM   19  O6  UNL     1     -19.027  17.799  18.565  1.00  0.00    -0.346 OA
BRANCH  19  20
HETATM   20  C28 UNL     1     -20.282  17.973  17.937  1.00  0.00     0.171 C 
HETATM   21  C29 UNL     1     -20.894  16.634  17.564  1.00  0.00     0.034 C 
ENDBRANCH  19  20
ENDBRANCH  13  19
BRANCH  14  22
HETATM   22  O5  UNL     1     -18.745  19.690  20.524  1.00  0.00    -0.353 OA
HETATM   23  C26 UNL     1     -19.919  20.416  20.746  1.00  0.00     0.210 C 
ENDBRANCH  14  22
ENDBRANCH   9  10
ENDBRANCH   1   8
BRANCH   7  24
HETATM   24  N2  UNL     1     -14.107  24.271  20.498  1.00  0.00    -0.389 N 
HETATM   25  C22 UNL     1     -15.290  25.134  20.353  1.00  0.00     0.149 C 
HETATM   26  C23 UNL     1     -13.993  23.541  21.726  1.00  0.00     0.149 C 
ENDBRANCH   7  24
BRANCH   3  27
HETATM   27  C11 UNL     1     -10.498  24.178  16.204  1.00  0.00     0.227 C 
BRANCH  27  28
HETATM   28  O2  UNL     1      -9.451  23.430  16.489  1.00  0.00    -0.335 OA
ATOM     29  H2  UNL     1      -8.795  23.523  15.808  1.00  0.00     0.220 HD
ENDBRANCH  27  28
BRANCH  27  30
HETATM   30  N1  UNL     1     -10.585  24.801  14.989  1.00  0.00    -0.379 NA
BRANCH  30  31
HETATM   31  C12 UNL     1     -10.743  25.414  13.810  1.00  0.00     0.129 A 
HETATM   32  C13 UNL     1     -11.032  24.683  12.628  1.00  0.00     0.048 A 
HETATM   33  C14 UNL     1     -11.078  25.194  11.373  1.00  0.00     0.029 A 
HETATM   34  C15 UNL     1     -10.827  26.522  11.210  1.00  0.00     0.057 A 
HETATM   35 CL1  UNL     1     -10.872  27.229   9.627  1.00  0.00    -0.083 Cl
HETATM   36  C16 UNL     1     -10.538  27.311  12.292  1.00  0.00     0.076 A 
HETATM   37 CL2  UNL     1     -10.226  29.019  12.017  1.00  0.00    -0.081 Cl
HETATM   38  C17 UNL     1     -10.498  26.762  13.576  1.00  0.00     0.104 A 
BRANCH  38  39
HETATM   39  C18 UNL     1     -10.224  27.687  14.626  1.00  0.00     0.214 C 
HETATM   40  O3  UNL     1     -11.039  28.393  15.208  1.00  0.00    -0.644 OA
HETATM   41  O4  UNL     1      -8.893  27.848  15.083  1.00  0.00    -0.644 OA
ENDBRANCH  38  39
ENDBRANCH  30  31
ENDBRANCH  27  30
ENDBRANCH   3  27
TORSDOF 13
ENDMDL
MODEL 2
REMARK VINA RESULT: -8.271073106      0.279      2.259
REMARK  13 active torsions:
REMARK  status: ('A' for Active; 'I' for Inactive)
REMARK    1  A    between atoms: C2_2  and  O1_3 
REMARK    2  A    between atoms: O1_3  and  C3_4 
REMARK    3  A    between atoms: C5_6  and  C6_7 
REMARK    4  A    between atoms: C7_8  and  C8_9 
REMARK    5  A    between atoms: C10_11  and  C11_12 
REMARK    6  A    between atoms: C11_12  and  O2_13 
REMARK    7  A    between atoms: C11_12  and  N1_15 
REMARK    8  A    between atoms: N1_15  and  C12_16 
REMARK    9  A    between atoms: C17_23  and  C18_24 
REMARK   10  A    between atoms: C21_30  and  N2_31 
REMARK   11  A    between atoms: C25_35  and  O5_36 
REMARK   12  A    between atoms: C27_38  and  O6_39 
REMARK   13  A    between atoms: O6_39  and  C28_40 
ROOT
HETATM    1  C8  UNL     1     -13.244  23.136  18.541  1.00  0.00    -0.009 A 
HETATM    2  C9  UNL     1     -12.350  23.158  17.501  1.00  0.00     0.032 A 
HETATM    3  C10 UNL     1     -11.405  24.181  17.325  1.00  0.00     0.052 A 
HETATM    4  C19 UNL     1     -11.346  25.234  18.230  1.00  0.00     0.051 A 
HETATM    5 CL3  UNL     1     -10.206  26.551  18.091  1.00  0.00    -0.083 Cl
HETATM    6  C20 UNL     1     -12.239  25.210  19.263  1.00  0.00     0.055 A 
HETATM    7  C21 UNL     1     -13.167  24.208  19.436  1.00  0.00     0.041 A 
ENDROOT
BRANCH   1   8
HETATM    8  C7  UNL     1     -14.214  22.076  18.748  1.00  0.00     0.014 C 
HETATM    9  C6  UNL     1     -15.110  21.780  17.850  1.00  0.00     0.012 C 
BRANCH   9  10
HETATM   10  C5  UNL     1     -16.119  20.728  17.986  1.00  0.00    -0.031 A 
HETATM   11  C4  UNL     1     -16.956  20.638  19.090  1.00  0.00     0.051 A 
HETATM   12  C3  UNL     1     -17.895  19.655  19.244  1.00  0.00     0.105 A 
HETATM   13  C27 UNL     1     -18.006  18.714  18.248  1.00  0.00     0.135 A 
HETATM   14  C25 UNL     1     -17.218  18.730  17.121  1.00  0.00     0.105 A 
HETATM   15  C24 UNL     1     -16.275  19.763  17.025  1.00  0.00     0.051 A 
BRANCH  12  16
HETATM   16  O1  UNL     1     -18.711  19.581  20.338  1.00  0.00    -0.349 OA
BRANCH  16  17
HETATM   17  C2  UNL     1     -19.889  20.262  20.597  1.00  0.00     0.171 C 
HETATM   18  C1  UNL     1     -21.092  19.408  20.856  1.00  0.00     0.034 C 
ENDBRANCH  16  17
ENDBRANCH  12  16
BRANCH  13  19
HETATM   19  O6  UNL     1     -18.947  17.712  18.385  1.00  0.00    -0.346 OA
BRANCH  19  20
HETATM   20  C28 UNL     1     -20.201  17.871  17.750  1.00  0.00     0.171 C 
HETATM   21  C29 UNL     1     -20.728  16.538  17.248  1.00  0.00     0.034 C 
ENDBRANCH  19  20
ENDBRANCH  13  19
BRANCH  14  22
HETATM   22  O5  UNL     1     -17.361  17.777  16.155  1.00  0.00    -0.353 OA
HETATM   23  C26 UNL     1     -18.033  17.906  14.935  1.00  0.00     0.210 C 
ENDBRANCH  14  22
ENDBRANCH   9  10
ENDBRANCH   1   8
BRANCH   7  24
HETATM   24  N2  UNL     1     -14.104  24.253  20.500  1.00  0.00    -0.389 N 
HETATM   25  C22 UNL     1     -15.295  25.103  20.351  1.00  0.00     0.149 C 
HETATM   26  C23 UNL     1     -13.982  23.530  21.732  1.00  0.00     0.149 C 
ENDBRANCH   7  24
BRANCH   3  27
HETATM   27  C11 UNL     1     -10.496  24.175  16.204  1.00  0.00     0.227 C 
BRANCH  27  28
HETATM   28  O2  UNL     1      -9.443  23.434  16.490  1.00  0.00    -0.335 OA
ATOM     29  H2  UNL     1      -8.820  23.473  15.774  1.00  0.00     0.220 HD
ENDBRANCH  27  28
BRANCH  27  30
HETATM   30  N1  UNL     1     -10.587  24.796  14.988  1.00  0.00    -0.379 NA
BRANCH  30  31
HETATM   31  C12 UNL     1     -10.745  25.423  13.817  1.00  0.00     0.129 A 
HETATM   32  C13 UNL     1     -11.030  24.705  12.625  1.00  0.00     0.048 A 
HETATM   33  C14 UNL     1     -11.075  25.231  11.377  1.00  0.00     0.029 A 
HETATM   34  C15 UNL     1     -10.828  26.562  11.230  1.00  0.00     0.057 A 
HETATM   35 CL1  UNL     1     -10.873  27.289   9.656  1.00  0.00    -0.083 Cl
HETATM   36  C16 UNL     1     -10.544  27.338  12.323  1.00  0.00     0.076 A 
HETATM   37 CL2  UNL     1     -10.237  29.051  12.070  1.00  0.00    -0.081 Cl
HETATM   38  C17 UNL     1     -10.505  26.774  13.600  1.00  0.00     0.104 A 
BRANCH  38  39
HETATM   39  C18 UNL     1     -10.236  27.687  14.662  1.00  0.00     0.214 C 
HETATM   40  O3  UNL     1     -11.055  28.379  15.254  1.00  0.00    -0.644 OA
HETATM   41  O4  UNL     1      -8.906  27.851  15.120  1.00  0.00    -0.644 OA
ENDBRANCH  38  39
ENDBRANCH  30  31
ENDBRANCH  27  30
ENDBRANCH   3  27
TORSDOF 13
ENDMDL
MODEL 3
REMARK VINA RESULT: -8.162188096      1.216      1.827
REMARK  13 active torsions:
REMARK  status: ('A' for Active; 'I' for Inactive)
REMARK    1  A    between atoms: C2_2  and  O1_3 
REMARK    2  A    between atoms: O1_3  and  C3_4 
REMARK    3  A    between atoms: C5_6  and  C6_7 
REMARK    4  A    between atoms: C7_8  and  C8_9 
REMARK    5  A    between atoms: C10_11  and  C11_12 
REMARK    6  A    between atoms: C11_12  and  O2_13 
REMARK    7  A    between atoms: C11_12  and  N1_15 
REMARK    8  A    between atoms: N1_15  and  C12_16 
REMARK    9  A    between atoms: C17_23  and  C18_24 
REMARK   10  A    between atoms: C21_30  and  N2_31 
REMARK   11  A    between atoms: C25_35  and  O5_36 
REMARK   12  A    between atoms: C27_38  and  O6_39 
REMARK   13  A    between atoms: O6_39  and  C28_40 
ROOT
HETATM    1  C8  UNL     1     -13.308  23.276  18.782  1.00  0.00    -0.009 A 
HETATM    2  C9  UNL     1     -12.426  23.399  17.737  1.00  0.00     0.032 A 
HETATM    3  C10 UNL     1     -11.544  24.482  17.604  1.00  0.00     0.052 A 
HETATM    4  C19 UNL     1     -11.535  25.491  18.560  1.00  0.00     0.051 A 
HETATM    5 CL3  UNL     1     -10.473  26.877  18.477  1.00  0.00    -0.083 Cl
HETATM    6  C20 UNL     1     -12.414  25.366  19.597  1.00  0.00     0.055 A 
HETATM    7  C21 UNL     1     -13.282  24.305  19.728  1.00  0.00     0.041 A 
ENDROOT
BRANCH   1   8
HETATM    8  C7  UNL     1     -14.213  22.153  18.944  1.00  0.00     0.014 C 
HETATM    9  C6  UNL     1     -15.250  21.990  18.171  1.00  0.00     0.012 C 
BRANCH   9  10
HETATM   10  C5  UNL     1     -16.207  20.887  18.273  1.00  0.00    -0.031 A 
HETATM   11  C4  UNL     1     -16.350  19.931  17.276  1.00  0.00     0.051 A 
HETATM   12  C3  UNL     1     -17.247  18.901  17.343  1.00  0.00     0.105 A 
HETATM   13  C27 UNL     1     -18.044  18.819  18.461  1.00  0.00     0.135 A 
HETATM   14  C25 UNL     1     -17.968  19.722  19.494  1.00  0.00     0.105 A 
HETATM   15  C24 UNL     1     -17.027  20.754  19.363  1.00  0.00     0.051 A 
BRANCH  12  16
HETATM   16  O1  UNL     1     -17.375  17.968  16.352  1.00  0.00    -0.349 OA
BRANCH  16  17
HETATM   17  C2  UNL     1     -17.708  18.149  15.020  1.00  0.00     0.171 C 
HETATM   18  C1  UNL     1     -18.536  17.064  14.403  1.00  0.00     0.034 C 
ENDBRANCH  16  17
ENDBRANCH  12  16
BRANCH  13  19
HETATM   19  O6  UNL     1     -18.958  17.787  18.548  1.00  0.00    -0.346 OA
BRANCH  19  20
HETATM   20  C28 UNL     1     -20.190  17.917  17.866  1.00  0.00     0.171 C 
HETATM   21  C29 UNL     1     -20.740  16.556  17.475  1.00  0.00     0.034 C 
ENDBRANCH  19  20
ENDBRANCH  13  19
BRANCH  14  22
HETATM   22  O5  UNL     1     -18.776  19.605  20.588  1.00  0.00    -0.353 OA
HETATM   23  C26 UNL     1     -19.998  20.248  20.807  1.00  0.00     0.210 C 
ENDBRANCH  14  22
ENDBRANCH   9  10
ENDBRANCH   1   8
BRANCH   7  24
HETATM   24  N2  UNL     1     -14.209  24.245  20.799  1.00  0.00    -0.389 N 
HETATM   25  C22 UNL     1     -15.480  24.973  20.670  1.00  0.00     0.149 C 
HETATM   26  C23 UNL     1     -14.004  23.524  22.022  1.00  0.00     0.149 C 
ENDBRANCH   7  24
BRANCH   3  27
HETATM   27  C11 UNL     1     -10.647  24.582  16.478  1.00  0.00     0.227 C 
BRANCH  27  28
HETATM   28  O2  UNL     1      -9.653  23.729  16.624  1.00  0.00    -0.335 OA
ATOM     29  H2  UNL     1      -9.128  23.710  15.832  1.00  0.00     0.220 HD
ENDBRANCH  27  28
BRANCH  27  30
HETATM   30  N1  UNL     1     -10.700  25.390  15.375  1.00  0.00    -0.379 NA
BRANCH  30  31
HETATM   31  C12 UNL     1     -10.703  26.137  14.265  1.00  0.00     0.129 A 
HETATM   32  C13 UNL     1     -10.804  27.553  14.325  1.00  0.00     0.048 A 
HETATM   33  C14 UNL     1     -10.948  28.381  13.262  1.00  0.00     0.029 A 
HETATM   34  C15 UNL     1     -11.002  27.829  12.020  1.00  0.00     0.057 A 
HETATM   35 CL1  UNL     1     -11.185  28.842  10.623  1.00  0.00    -0.083 Cl
HETATM   36  C16 UNL     1     -10.912  26.471  11.859  1.00  0.00     0.076 A 
HETATM   37 CL2  UNL     1     -10.986  25.819  10.229  1.00  0.00    -0.081 Cl
HETATM   38  C17 UNL     1     -10.762  25.638  12.970  1.00  0.00     0.104 A 
BRANCH  38  39
HETATM   39  C18 UNL     1     -10.642  24.247  12.677  1.00  0.00     0.214 C 
HETATM   40  O3  UNL     1      -9.601  23.622  12.521  1.00  0.00    -0.644 OA
HETATM   41  O4  UNL     1     -11.812  23.460  12.540  1.00  0.00    -0.644 OA
ENDBRANCH  38  39
ENDBRANCH  30  31
ENDBRANCH  27  30
ENDBRANCH   3  27
TORSDOF 13
ENDMDL
MODEL 4
REMARK VINA RESULT: -8.036202050      1.497      3.007
REMARK  13 active torsions:
REMARK  status: ('A' for Active; 'I' for Inactive)
REMARK    1  A    between atoms: C2_2  and  O1_3 
REMARK    2  A    between atoms: O1_3  and  C3_4 
REMARK    3  A    between atoms: C5_6  and  C6_7 
REMARK    4  A    between atoms: C7_8  and  C8_9 
REMARK    5  A    between atoms: C10_11  and  C11_12 
REMARK    6  A    between atoms: C11_12  and  O2_13 
REMARK    7  A    between atoms: C11_12  and  N1_15 
REMARK    8  A    between atoms: N1_15  and  C12_16 
REMARK    9  A    between atoms: C17_23  and  C18_24 
REMARK   10  A    between atoms: C21_30  and  N2_31 
REMARK   11  A    between atoms: C25_35  and  O5_36 
REMARK   12  A    between atoms: C27_38  and  O6_39 
REMARK   13  A    between atoms: O6_39  and  C28_40 
ROOT
HETATM    1  C8  UNL     1     -14.484  22.324  17.187  1.00  0.00    -0.009 A 
HETATM    2  C9  UNL     1     -13.718  22.555  16.072  1.00  0.00     0.032 A 
HETATM    3  C10 UNL     1     -12.469  23.191  16.120  1.00  0.00     0.052 A 
HETATM    4  C19 UNL     1     -11.953  23.616  17.338  1.00  0.00     0.051 A 
HETATM    5 CL3  UNL     1     -10.408  24.418  17.495  1.00  0.00    -0.083 Cl
HETATM    6  C20 UNL     1     -12.718  23.386  18.446  1.00  0.00     0.055 A 
HETATM    7  C21 UNL     1     -13.945  22.764  18.400  1.00  0.00     0.041 A 
ENDROOT
BRANCH   1   8
HETATM    8  C7  UNL     1     -15.770  21.650  17.156  1.00  0.00     0.014 C 
HETATM    9  C6  UNL     1     -15.892  20.424  16.733  1.00  0.00     0.012 C 
BRANCH   9  10
HETATM   10  C5  UNL     1     -17.151  19.679  16.671  1.00  0.00    -0.031 A 
HETATM   11  C4  UNL     1     -18.066  19.675  17.716  1.00  0.00     0.051 A 
HETATM   12  C3  UNL     1     -19.240  18.975  17.686  1.00  0.00     0.105 A 
HETATM   13  C27 UNL     1     -19.519  18.242  16.557  1.00  0.00     0.135 A 
HETATM   14  C25 UNL     1     -18.670  18.190  15.477  1.00  0.00     0.105 A 
HETATM   15  C24 UNL     1     -17.482  18.930  15.573  1.00  0.00     0.051 A 
BRANCH  12  16
HETATM   16  O1  UNL     1     -20.129  18.982  18.724  1.00  0.00    -0.349 OA
BRANCH  16  17
HETATM   17  C2  UNL     1     -19.885  18.891  20.084  1.00  0.00     0.171 C 
HETATM   18  C1  UNL     1     -19.939  20.182  20.844  1.00  0.00     0.034 C 
ENDBRANCH  16  17
ENDBRANCH  12  16
BRANCH  13  19
HETATM   19  O6  UNL     1     -20.699  17.526  16.507  1.00  0.00    -0.346 OA
BRANCH  19  20
HETATM   20  C28 UNL     1     -20.689  16.176  16.928  1.00  0.00     0.171 C 
HETATM   21  C29 UNL     1     -21.314  15.275  15.878  1.00  0.00     0.034 C 
ENDBRANCH  19  20
ENDBRANCH  13  19
BRANCH  14  22
HETATM   22  O5  UNL     1     -18.984  17.450  14.374  1.00  0.00    -0.353 OA
HETATM   23  C26 UNL     1     -18.249  16.393  13.830  1.00  0.00     0.210 C 
ENDBRANCH  14  22
ENDBRANCH   9  10
ENDBRANCH   1   8
BRANCH   7  24
HETATM   24  N2  UNL     1     -14.723  22.590  19.573  1.00  0.00    -0.389 N 
HETATM   25  C22 UNL     1     -15.130  23.784  20.330  1.00  0.00     0.149 C 
HETATM   26  C23 UNL     1     -15.148  21.325  20.095  1.00  0.00     0.149 C 
ENDBRANCH   7  24
BRANCH   3  27
HETATM   27  C11 UNL     1     -11.705  23.432  14.919  1.00  0.00     0.227 C 
BRANCH  27  28
HETATM   28  O2  UNL     1     -11.092  22.324  14.552  1.00  0.00    -0.335 OA
ATOM     29  H2  UNL     1     -11.296  21.627  15.166  1.00  0.00     0.220 HD
ENDBRANCH  27  28
BRANCH  27  30
HETATM   30  N1  UNL     1     -11.553  24.576  14.183  1.00  0.00    -0.379 NA
BRANCH  30  31
HETATM   31  C12 UNL     1     -11.473  25.687  13.443  1.00  0.00     0.129 A 
HETATM   32  C13 UNL     1     -11.782  25.677  12.057  1.00  0.00     0.048 A 
HETATM   33  C14 UNL     1     -11.606  26.712  11.199  1.00  0.00     0.029 A 
HETATM   34  C15 UNL     1     -11.088  27.871  11.689  1.00  0.00     0.057 A 
HETATM   35 CL1  UNL     1     -10.841  29.228  10.637  1.00  0.00    -0.083 Cl
HETATM   36  C16 UNL     1     -10.759  27.978  13.015  1.00  0.00     0.076 A 
HETATM   37 CL2  UNL     1     -10.096  29.502  13.587  1.00  0.00    -0.081 Cl
HETATM   38  C17 UNL     1     -10.951  26.898  13.879  1.00  0.00     0.104 A 
BRANCH  38  39
HETATM   39  C18 UNL     1     -10.607  27.139  15.242  1.00  0.00     0.214 C 
HETATM   40  O3  UNL     1     -11.378  27.422  16.151  1.00  0.00    -0.644 OA
HETATM   41  O4  UNL     1      -9.250  27.058  15.643  1.00  0.00    -0.644 OA
ENDBRANCH  38  39
ENDBRANCH  30  31
ENDBRANCH  27  30
ENDBRANCH   3  27
TORSDOF 13
ENDMDL
MODEL 5
REMARK VINA RESULT: -8.026631967      1.469      1.890
REMARK  13 active torsions:
REMARK  status: ('A' for Active; 'I' for Inactive)
REMARK    1  A    between atoms: C2_2  and  O1_3 
REMARK    2  A    between atoms: O1_3  and  C3_4 
REMARK    3  A    between atoms: C5_6  and  C6_7 
REMARK    4  A    between atoms: C7_8  and  C8_9 
REMARK    5  A    between atoms: C10_11  and  C11_12 
REMARK    6  A    between atoms: C11_12  and  O2_13 
REMARK    7  A    between atoms: C11_12  and  N1_15 
REMARK    8  A    between atoms: N1_15  and  C12_16 
REMARK    9  A    between atoms: C17_23  and  C18_24 
REMARK   10  A    between atoms: C21_30  and  N2_31 
REMARK   11  A    between atoms: C25_35  and  O5_36 
REMARK   12  A    between atoms: C27_38  and  O6_39 
REMARK   13  A    between atoms: O6_39  and  C28_40 
ROOT
HETATM    1  C8  UNL     1     -14.459  22.350  17.240  1.00  0.00    -0.009 A 
HETATM    2  C9  UNL     1     -13.702  22.581  16.119  1.00  0.00     0.032 A 
HETATM    3  C10 UNL     1     -12.471  23.253  16.153  1.00  0.00     0.052 A 
HETATM    4  C19 UNL     1     -11.966  23.717  17.363  1.00  0.00     0.051 A 
HETATM    5 CL3  UNL     1     -10.444  24.565  17.502  1.00  0.00    -0.083 Cl
HETATM    6  C20 UNL     1     -12.723  23.486  18.476  1.00  0.00     0.055 A 
HETATM    7  C21 UNL     1     -13.932  22.829  18.444  1.00  0.00     0.041 A 
ENDROOT
BRANCH   1   8
HETATM    8  C7  UNL     1     -15.725  21.639  17.224  1.00  0.00     0.014 C 
HETATM    9  C6  UNL     1     -15.808  20.391  16.859  1.00  0.00     0.012 C 
BRANCH   9  10
HETATM   10  C5  UNL     1     -17.045  19.610  16.817  1.00  0.00    -0.031 A 
HETATM   11  C4  UNL     1     -17.300  18.673  15.824  1.00  0.00     0.051 A 
HETATM   12  C3  UNL     1     -18.454  17.943  15.756  1.00  0.00     0.105 A 
HETATM   13  C27 UNL     1     -19.404  18.157  16.727  1.00  0.00     0.135 A 
HETATM   14  C25 UNL     1     -19.233  19.064  17.745  1.00  0.00     0.105 A 
HETATM   15  C24 UNL     1     -18.027  19.780  17.756  1.00  0.00     0.051 A 
BRANCH  12  16
HETATM   16  O1  UNL     1     -18.689  17.025  14.771  1.00  0.00    -0.349 OA
BRANCH  16  17
HETATM   17  C2  UNL     1     -19.699  16.998  13.825  1.00  0.00     0.171 C 
HETATM   18  C1  UNL     1     -20.352  15.668  13.606  1.00  0.00     0.034 C 
ENDBRANCH  16  17
ENDBRANCH  12  16
BRANCH  13  19
HETATM   19  O6  UNL     1     -20.578  17.431  16.676  1.00  0.00    -0.346 OA
BRANCH  19  20
HETATM   20  C28 UNL     1     -20.708  16.297  17.510  1.00  0.00     0.171 C 
HETATM   21  C29 UNL     1     -22.080  15.663  17.356  1.00  0.00     0.034 C 
ENDBRANCH  19  20
ENDBRANCH  13  19
BRANCH  14  22
HETATM   22  O5  UNL     1     -20.201  19.246  18.690  1.00  0.00    -0.353 OA
HETATM   23  C26 UNL     1     -20.020  19.366  20.072  1.00  0.00     0.210 C 
ENDBRANCH  14  22
ENDBRANCH   9  10
ENDBRANCH   1   8
BRANCH   7  24
HETATM   24  N2  UNL     1     -14.703  22.655  19.621  1.00  0.00    -0.389 N 
HETATM   25  C22 UNL     1     -15.118  23.850  20.371  1.00  0.00     0.149 C 
HETATM   26  C23 UNL     1     -15.114  21.389  20.153  1.00  0.00     0.149 C 
ENDBRANCH   7  24
BRANCH   3  27
HETATM   27  C11 UNL     1     -11.716  23.493  14.946  1.00  0.00     0.227 C 
BRANCH  27  28
HETATM   28  O2  UNL     1     -11.106  22.384  14.576  1.00  0.00    -0.335 OA
ATOM     29  H2  UNL     1     -10.307  22.275  15.078  1.00  0.00     0.220 HD
ENDBRANCH  27  28
BRANCH  27  30
HETATM   30  N1  UNL     1     -11.568  24.636  14.209  1.00  0.00    -0.379 NA
BRANCH  30  31
HETATM   31  C12 UNL     1     -11.486  25.737  13.454  1.00  0.00     0.129 A 
HETATM   32  C13 UNL     1     -11.798  25.710  12.069  1.00  0.00     0.048 A 
HETATM   33  C14 UNL     1     -11.620  26.733  11.197  1.00  0.00     0.029 A 
HETATM   34  C15 UNL     1     -11.096  27.897  11.670  1.00  0.00     0.057 A 
HETATM   35 CL1  UNL     1     -10.846  29.239  10.600  1.00  0.00    -0.083 Cl
HETATM   36  C16 UNL     1     -10.763  28.019  12.994  1.00  0.00     0.076 A 
HETATM   37 CL2  UNL     1     -10.093  29.549  13.545  1.00  0.00    -0.081 Cl
HETATM   38  C17 UNL     1     -10.958  26.952  13.873  1.00  0.00     0.104 A 
BRANCH  38  39
HETATM   39  C18 UNL     1     -10.609  27.210  15.232  1.00  0.00     0.214 C 
HETATM   40  O3  UNL     1     -11.374  27.524  16.135  1.00  0.00    -0.644 OA
HETATM   41  O4  UNL     1      -9.254  27.108  15.635  1.00  0.00    -0.644 OA
ENDBRANCH  38  39
ENDBRANCH  30  31
ENDBRANCH  27  30
ENDBRANCH   3  27
TORSDOF 13
ENDMDL
