MODEL 1
REMARK VINA RESULT: -8.650780441      0.000      0.000
REMARK  13 active torsions:
REMARK  status: ('A' for Active; 'I' for Inactive)
REMARK    1  A    between atoms: O1_2  and  C2_3 
REMARK    2  A    between atoms: C2_3  and  C3_4 
REMARK    3  A    between atoms: C3_4  and  N1_5 
REMARK    4  A    between atoms: N1_5  and  C5_7 
REMARK    5  A    between atoms: C5_7  and  C6_8 
REMARK    6  A    between atoms: C6_8  and  C7_9 
REMARK    7  A    between atoms: C7_9  and  C8_10 
REMARK    8  A    between atoms: C8_10  and  C9_11 
REMARK    9  A    between atoms: C9_11  and  N2_12 
REMARK   10  A    between atoms: C17_22  and  N3_23 
REMARK   11  A    between atoms: N3_23  and  C18_24 
REMARK   12  A    between atoms: C23_30  and  O2_31 
REMARK   13  A    between atoms: C25_34  and  C26_35 
ROOT
HETATM    1  N2  UNL     1      10.592  18.903  18.786  1.00  0.00    -0.332 N 
HETATM    2  C10 UNL     1      10.447  18.157  17.671  1.00  0.00     0.049 A 
HETATM    3  C11 UNL     1      11.301  18.000  16.614  1.00  0.00     0.056 A 
HETATM    4  C12 UNL     1      10.968  17.175  15.546  1.00  0.00     0.058 A 
HETATM    5 CL1  UNL     1      12.074  16.993  14.210  1.00  0.00    -0.082 Cl
HETATM    6  C13 UNL     1       9.764  16.528  15.585  1.00  0.00     0.056 A 
HETATM    7 CL2  UNL     1       9.299  15.471  14.249  1.00  0.00    -0.083 Cl
HETATM    8  C14 UNL     1       8.866  16.659  16.638  1.00  0.00     0.040 A 
HETATM    9  C15 UNL     1       9.226  17.486  17.685  1.00  0.00     0.010 A 
HETATM   10  C16 UNL     1       8.610  17.854  18.879  1.00  0.00     0.062 A 
HETATM   11  C17 UNL     1       7.357  17.487  19.439  1.00  0.00     0.137 A 
HETATM   12  C25 UNL     1       7.069  18.058  20.669  1.00  0.00     0.066 A 
HETATM   13  C28 UNL     1       7.964  18.935  21.304  1.00  0.00     0.108 A 
HETATM   14  N4  UNL     1       9.112  19.212  20.696  1.00  0.00    -0.350 N 
ATOM     15  H4  UNL     1       9.758  19.849  21.163  1.00  0.00     0.166 HD
HETATM   16  C29 UNL     1       9.474  18.710  19.509  1.00  0.00     0.122 A 
ENDROOT
BRANCH   1  17
HETATM   17  C9  UNL     1      11.739  19.742  19.126  1.00  0.00     0.131 C 
BRANCH  17  18
HETATM   18  C8  UNL     1      11.775  20.974  18.231  1.00  0.00     0.020 C 
BRANCH  18  19
HETATM   19  C7  UNL     1      13.215  21.414  18.035  1.00  0.00     0.003 C 
BRANCH  19  20
HETATM   20  C6  UNL     1      13.915  21.655  19.353  1.00  0.00     0.030 C 
BRANCH  20  21
HETATM   21  C5  UNL     1      15.014  22.667  19.128  1.00  0.00     0.272 C 
BRANCH  21  22
HETATM   22  N1  UNL     1      14.757  23.859  19.920  1.00  0.00     0.086 N 
HETATM   23  C4  UNL     1      14.421  23.441  21.297  1.00  0.00     0.310 C 
BRANCH  22  24
HETATM   24  C3  UNL     1      15.811  24.810  19.922  1.00  0.00     0.297 C 
BRANCH  24  25
HETATM   25  C2  UNL     1      16.718  24.881  21.083  1.00  0.00     0.197 C 
BRANCH  25  26
HETATM   26  O1  UNL     1      18.037  24.867  20.696  1.00  0.00    -0.394 OA
HETATM   27  C1  UNL     1      18.246  25.585  19.521  1.00  0.00     0.201 C 
ENDBRANCH  25  26
ENDBRANCH  24  25
ENDBRANCH  22  24
ENDBRANCH  21  22
ENDBRANCH  20  21
ENDBRANCH  19  20
ENDBRANCH  18  19
ENDBRANCH  17  18
ENDBRANCH   1  17
BRANCH  11  28
HETATM   28  N3  UNL     1       6.625  16.736  18.891  1.00  0.00    -0.404 NA
BRANCH  28  29
HETATM   29  C18 UNL     1       5.769  16.056  18.157  1.00  0.00     0.111 A 
HETATM   30  C19 UNL     1       6.054  15.361  16.963  1.00  0.00     0.053 A 
HETATM   31  C20 UNL     1       5.095  14.695  16.246  1.00  0.00    -0.034 A 
HETATM   32  C21 UNL     1       5.415  13.962  14.981  1.00  0.00     0.050 C 
HETATM   33  C22 UNL     1       3.788  14.696  16.698  1.00  0.00     0.073 A 
HETATM   34 CL3  UNL     1       2.585  13.842  15.766  1.00  0.00    -0.081 Cl
HETATM   35  C23 UNL     1       3.458  15.350  17.842  1.00  0.00     0.091 A 
HETATM   36  C24 UNL     1       4.414  16.005  18.543  1.00  0.00     0.083 A 
BRANCH  35  37
HETATM   37  O2  UNL     1       2.132  15.317  18.245  1.00  0.00    -0.359 OA
ATOM     38  H2  UNL     1       1.950  15.401  19.173  1.00  0.00     0.217 HD
ENDBRANCH  35  37
ENDBRANCH  28  29
ENDBRANCH  11  28
BRANCH  12  39
HETATM   39  C26 UNL     1       5.833  17.865  21.414  1.00  0.00     0.160 C 
HETATM   40  C27 UNL     1       4.609  18.696  21.098  1.00  0.00     0.097 C 
HETATM   41  O3  UNL     1       5.751  17.025  22.320  1.00  0.00    -0.293 OA
ENDBRANCH  12  39
TORSDOF 13
ENDMDL
MODEL 2
REMARK VINA RESULT: -8.614695778      0.890      1.376
REMARK  13 active torsions:
REMARK  status: ('A' for Active; 'I' for Inactive)
REMARK    1  A    between atoms: O1_2  and  C2_3 
REMARK    2  A    between atoms: C2_3  and  C3_4 
REMARK    3  A    between atoms: C3_4  and  N1_5 
REMARK    4  A    between atoms: N1_5  and  C5_7 
REMARK    5  A    between atoms: C5_7  and  C6_8 
REMARK    6  A    between atoms: C6_8  and  C7_9 
REMARK    7  A    between atoms: C7_9  and  C8_10 
REMARK    8  A    between atoms: C8_10  and  C9_11 
REMARK    9  A    between atoms: C9_11  and  N2_12 
REMARK   10  A    between atoms: C17_22  and  N3_23 
REMARK   11  A    between atoms: N3_23  and  C18_24 
REMARK   12  A    between atoms: C23_30  and  O2_31 
REMARK   13  A    between atoms: C25_34  and  C26_35 
ROOT
HETATM    1  N2  UNL     1      10.458  18.834  18.691  1.00  0.00    -0.332 N 
HETATM    2  C10 UNL     1      10.327  18.074  17.585  1.00  0.00     0.049 A 
HETATM    3  C11 UNL     1      11.192  17.908  16.539  1.00  0.00     0.056 A 
HETATM    4  C12 UNL     1      10.874  17.068  15.478  1.00  0.00     0.058 A 
HETATM    5 CL1  UNL     1      11.994  16.875  14.155  1.00  0.00    -0.082 Cl
HETATM    6  C13 UNL     1       9.673  16.416  15.513  1.00  0.00     0.056 A 
HETATM    7 CL2  UNL     1       9.227  15.340  14.186  1.00  0.00    -0.083 Cl
HETATM    8  C14 UNL     1       8.764  16.555  16.555  1.00  0.00     0.040 A 
HETATM    9  C15 UNL     1       9.110  17.397  17.596  1.00  0.00     0.010 A 
HETATM   10  C16 UNL     1       8.480  17.777  18.779  1.00  0.00     0.062 A 
HETATM   11  C17 UNL     1       7.223  17.411  19.331  1.00  0.00     0.137 A 
HETATM   12  C25 UNL     1       6.921  17.996  20.551  1.00  0.00     0.066 A 
HETATM   13  C28 UNL     1       7.805  18.884  21.183  1.00  0.00     0.108 A 
HETATM   14  N4  UNL     1       8.958  19.160  20.583  1.00  0.00    -0.350 N 
ATOM     15  H4  UNL     1       9.596  19.806  21.048  1.00  0.00     0.166 HD
HETATM   16  C29 UNL     1       9.334  18.645  19.406  1.00  0.00     0.122 A 
ENDROOT
BRANCH   1  17
HETATM   17  C9  UNL     1      11.597  19.684  19.032  1.00  0.00     0.131 C 
BRANCH  17  18
HETATM   18  C8  UNL     1      11.671  20.874  18.084  1.00  0.00     0.020 C 
BRANCH  18  19
HETATM   19  C7  UNL     1      13.123  21.172  17.760  1.00  0.00     0.003 C 
BRANCH  19  20
HETATM   20  C6  UNL     1      13.546  22.532  18.268  1.00  0.00     0.030 C 
BRANCH  20  21
HETATM   21  C5  UNL     1      14.371  22.336  19.518  1.00  0.00     0.272 C 
BRANCH  21  22
HETATM   22  N1  UNL     1      14.666  23.625  20.123  1.00  0.00     0.086 N 
HETATM   23  C4  UNL     1      14.458  23.514  21.581  1.00  0.00     0.310 C 
BRANCH  22  24
HETATM   24  C3  UNL     1      15.957  24.136  19.832  1.00  0.00     0.297 C 
BRANCH  24  25
HETATM   25  C2  UNL     1      16.713  24.836  20.889  1.00  0.00     0.197 C 
BRANCH  25  26
HETATM   26  O1  UNL     1      18.059  24.867  20.613  1.00  0.00    -0.394 OA
HETATM   27  C1  UNL     1      18.348  25.654  19.501  1.00  0.00     0.201 C 
ENDBRANCH  25  26
ENDBRANCH  24  25
ENDBRANCH  22  24
ENDBRANCH  21  22
ENDBRANCH  20  21
ENDBRANCH  19  20
ENDBRANCH  18  19
ENDBRANCH  17  18
ENDBRANCH   1  17
BRANCH  11  28
HETATM   28  N3  UNL     1       6.501  16.649  18.785  1.00  0.00    -0.404 NA
BRANCH  28  29
HETATM   29  C18 UNL     1       5.603  15.967  18.106  1.00  0.00     0.111 A 
HETATM   30  C19 UNL     1       4.228  15.858  18.404  1.00  0.00     0.053 A 
HETATM   31  C20 UNL     1       3.364  15.106  17.654  1.00  0.00    -0.034 A 
HETATM   32  C21 UNL     1       1.908  15.001  17.987  1.00  0.00     0.050 C 
HETATM   33  C22 UNL     1       3.843  14.417  16.555  1.00  0.00     0.073 A 
HETATM   34 CL3  UNL     1       2.722  13.464  15.617  1.00  0.00    -0.081 Cl
HETATM   35  C23 UNL     1       5.158  14.486  16.223  1.00  0.00     0.091 A 
HETATM   36  C24 UNL     1       6.005  15.233  16.970  1.00  0.00     0.083 A 
BRANCH  35  37
HETATM   37  O2  UNL     1       5.581  13.774  15.110  1.00  0.00    -0.359 OA
ATOM     38  H2  UNL     1       6.468  13.919  14.803  1.00  0.00     0.217 HD
ENDBRANCH  35  37
ENDBRANCH  28  29
ENDBRANCH  11  28
BRANCH  12  39
HETATM   39  C26 UNL     1       5.678  17.806  21.286  1.00  0.00     0.160 C 
HETATM   40  C27 UNL     1       4.444  18.603  20.925  1.00  0.00     0.097 C 
HETATM   41  O3  UNL     1       5.599  16.996  22.220  1.00  0.00    -0.293 OA
ENDBRANCH  12  39
TORSDOF 13
ENDMDL
MODEL 3
REMARK VINA RESULT: -8.501908054      3.271      5.167
REMARK  13 active torsions:
REMARK  status: ('A' for Active; 'I' for Inactive)
REMARK    1  A    between atoms: O1_2  and  C2_3 
REMARK    2  A    between atoms: C2_3  and  C3_4 
REMARK    3  A    between atoms: C3_4  and  N1_5 
REMARK    4  A    between atoms: N1_5  and  C5_7 
REMARK    5  A    between atoms: C5_7  and  C6_8 
REMARK    6  A    between atoms: C6_8  and  C7_9 
REMARK    7  A    between atoms: C7_9  and  C8_10 
REMARK    8  A    between atoms: C8_10  and  C9_11 
REMARK    9  A    between atoms: C9_11  and  N2_12 
REMARK   10  A    between atoms: C17_22  and  N3_23 
REMARK   11  A    between atoms: N3_23  and  C18_24 
REMARK   12  A    between atoms: C23_30  and  O2_31 
REMARK   13  A    between atoms: C25_34  and  C26_35 
ROOT
HETATM    1  N2  UNL     1       8.456  17.827  20.642  1.00  0.00    -0.332 N 
HETATM    2  C10 UNL     1       7.148  17.784  20.968  1.00  0.00     0.049 A 
HETATM    3  C11 UNL     1       6.526  18.196  22.114  1.00  0.00     0.056 A 
HETATM    4  C12 UNL     1       5.149  18.068  22.262  1.00  0.00     0.058 A 
HETATM    5 CL1  UNL     1       4.380  18.600  23.735  1.00  0.00    -0.082 Cl
HETATM    6  C13 UNL     1       4.441  17.520  21.231  1.00  0.00     0.056 A 
HETATM    7 CL2  UNL     1       2.690  17.337  21.376  1.00  0.00    -0.083 Cl
HETATM    8  C14 UNL     1       5.032  17.086  20.049  1.00  0.00     0.040 A 
HETATM    9  C15 UNL     1       6.402  17.228  19.932  1.00  0.00     0.010 A 
HETATM   10  C16 UNL     1       7.321  16.923  18.930  1.00  0.00     0.062 A 
HETATM   11  C17 UNL     1       7.147  16.342  17.645  1.00  0.00     0.137 A 
HETATM   12  C25 UNL     1       8.310  16.186  16.906  1.00  0.00     0.066 A 
HETATM   13  C28 UNL     1       9.561  16.581  17.405  1.00  0.00     0.108 A 
HETATM   14  N4  UNL     1       9.615  17.116  18.620  1.00  0.00    -0.350 N 
ATOM     15  H4  UNL     1      10.527  17.401  18.977  1.00  0.00     0.166 HD
HETATM   16  C29 UNL     1       8.547  17.303  19.406  1.00  0.00     0.122 A 
ENDROOT
BRANCH   1  17
HETATM   17  C9  UNL     1       9.543  18.342  21.472  1.00  0.00     0.131 C 
BRANCH  17  18
HETATM   18  C8  UNL     1       9.971  19.721  20.986  1.00  0.00     0.020 C 
BRANCH  18  19
HETATM   19  C7  UNL     1      11.393  19.652  20.461  1.00  0.00     0.003 C 
BRANCH  19  20
HETATM   20  C6  UNL     1      11.470  20.005  18.993  1.00  0.00     0.030 C 
BRANCH  20  21
HETATM   21  C5  UNL     1      12.506  19.117  18.345  1.00  0.00     0.272 C 
BRANCH  21  22
HETATM   22  N1  UNL     1      13.464  19.929  17.612  1.00  0.00     0.086 N 
HETATM   23  C4  UNL     1      12.787  21.164  17.170  1.00  0.00     0.310 C 
BRANCH  22  24
HETATM   24  C3  UNL     1      14.655  20.229  18.323  1.00  0.00     0.297 C 
BRANCH  24  25
HETATM   25  C2  UNL     1      14.892  21.610  18.785  1.00  0.00     0.197 C 
BRANCH  25  26
HETATM   26  O1  UNL     1      14.410  21.809  20.056  1.00  0.00    -0.394 OA
HETATM   27  C1  UNL     1      14.490  23.144  20.444  1.00  0.00     0.201 C 
ENDBRANCH  25  26
ENDBRANCH  24  25
ENDBRANCH  22  24
ENDBRANCH  21  22
ENDBRANCH  20  21
ENDBRANCH  19  20
ENDBRANCH  18  19
ENDBRANCH  17  18
ENDBRANCH   1  17
BRANCH  11  28
HETATM   28  N3  UNL     1       6.080  16.030  17.241  1.00  0.00    -0.404 NA
BRANCH  28  29
HETATM   29  C18 UNL     1       4.985  15.661  16.610  1.00  0.00     0.111 A 
HETATM   30  C19 UNL     1       3.775  16.382  16.538  1.00  0.00     0.053 A 
HETATM   31  C20 UNL     1       2.671  15.914  15.876  1.00  0.00    -0.034 A 
HETATM   32  C21 UNL     1       1.394  16.693  15.811  1.00  0.00     0.050 C 
HETATM   33  C22 UNL     1       2.728  14.682  15.249  1.00  0.00     0.073 A 
HETATM   34 CL3  UNL     1       1.308  14.107  14.415  1.00  0.00    -0.081 Cl
HETATM   35  C23 UNL     1       3.869  13.946  15.288  1.00  0.00     0.091 A 
HETATM   36  C24 UNL     1       4.955  14.418  15.944  1.00  0.00     0.083 A 
BRANCH  35  37
HETATM   37  O2  UNL     1       3.867  12.719  14.641  1.00  0.00    -0.359 OA
ATOM     38  H2  UNL     1       4.006  12.714  13.702  1.00  0.00     0.217 HD
ENDBRANCH  35  37
ENDBRANCH  28  29
ENDBRANCH  11  28
BRANCH  12  39
HETATM   39  C26 UNL     1       8.387  15.579  15.584  1.00  0.00     0.160 C 
HETATM   40  C27 UNL     1       7.952  16.351  14.359  1.00  0.00     0.097 C 
HETATM   41  O3  UNL     1       8.805  14.424  15.430  1.00  0.00    -0.293 OA
ENDBRANCH  12  39
TORSDOF 13
ENDMDL
MODEL 4
REMARK VINA RESULT: -8.400241844      1.508      2.009
REMARK  13 active torsions:
REMARK  status: ('A' for Active; 'I' for Inactive)
REMARK    1  A    between atoms: O1_2  and  C2_3 
REMARK    2  A    between atoms: C2_3  and  C3_4 
REMARK    3  A    between atoms: C3_4  and  N1_5 
REMARK    4  A    between atoms: N1_5  and  C5_7 
REMARK    5  A    between atoms: C5_7  and  C6_8 
REMARK    6  A    between atoms: C6_8  and  C7_9 
REMARK    7  A    between atoms: C7_9  and  C8_10 
REMARK    8  A    between atoms: C8_10  and  C9_11 
REMARK    9  A    between atoms: C9_11  and  N2_12 
REMARK   10  A    between atoms: C17_22  and  N3_23 
REMARK   11  A    between atoms: N3_23  and  C18_24 
REMARK   12  A    between atoms: C23_30  and  O2_31 
REMARK   13  A    between atoms: C25_34  and  C26_35 
ROOT
HETATM    1  N2  UNL     1      10.399  18.736  18.762  1.00  0.00    -0.332 N 
HETATM    2  C10 UNL     1      10.236  17.992  17.649  1.00  0.00     0.049 A 
HETATM    3  C11 UNL     1      11.085  17.817  16.590  1.00  0.00     0.056 A 
HETATM    4  C12 UNL     1      10.733  16.998  15.523  1.00  0.00     0.058 A 
HETATM    5 CL1  UNL     1      11.833  16.793  14.185  1.00  0.00    -0.082 Cl
HETATM    6  C13 UNL     1       9.517  16.376  15.565  1.00  0.00     0.056 A 
HETATM    7 CL2  UNL     1       9.028  15.328  14.231  1.00  0.00    -0.083 Cl
HETATM    8  C14 UNL     1       8.623  16.526  16.619  1.00  0.00     0.040 A 
HETATM    9  C15 UNL     1       9.002  17.346  17.665  1.00  0.00     0.010 A 
HETATM   10  C16 UNL     1       8.396  17.728  18.860  1.00  0.00     0.062 A 
HETATM   11  C17 UNL     1       7.136  17.387  19.422  1.00  0.00     0.137 A 
HETATM   12  C25 UNL     1       6.863  17.965  20.653  1.00  0.00     0.066 A 
HETATM   13  C28 UNL     1       7.776  18.823  21.285  1.00  0.00     0.108 A 
HETATM   14  N4  UNL     1       8.929  19.077  20.675  1.00  0.00    -0.350 N 
ATOM     15  H4  UNL     1       9.589  19.700  21.140  1.00  0.00     0.166 HD
HETATM   16  C29 UNL     1       9.278  18.566  19.488  1.00  0.00     0.122 A 
ENDROOT
BRANCH   1  17
HETATM   17  C9  UNL     1      11.563  19.552  19.100  1.00  0.00     0.131 C 
BRANCH  17  18
HETATM   18  C8  UNL     1      11.559  20.839  18.286  1.00  0.00     0.020 C 
BRANCH  18  19
HETATM   19  C7  UNL     1      12.822  20.910  17.447  1.00  0.00     0.003 C 
BRANCH  19  20
HETATM   20  C6  UNL     1      13.990  20.235  18.129  1.00  0.00     0.030 C 
BRANCH  20  21
HETATM   21  C5  UNL     1      14.796  21.293  18.846  1.00  0.00     0.272 C 
BRANCH  21  22
HETATM   22  N1  UNL     1      14.769  22.533  18.089  1.00  0.00     0.086 N 
HETATM   23  C4  UNL     1      14.554  23.651  19.030  1.00  0.00     0.310 C 
BRANCH  22  24
HETATM   24  C3  UNL     1      15.914  22.762  17.282  1.00  0.00     0.297 C 
BRANCH  24  25
HETATM   25  C2  UNL     1      15.807  22.615  15.818  1.00  0.00     0.197 C 
BRANCH  25  26
HETATM   26  O1  UNL     1      16.595  21.589  15.354  1.00  0.00    -0.394 OA
HETATM   27  C1  UNL     1      15.842  20.477  14.984  1.00  0.00     0.201 C 
ENDBRANCH  25  26
ENDBRANCH  24  25
ENDBRANCH  22  24
ENDBRANCH  21  22
ENDBRANCH  20  21
ENDBRANCH  19  20
ENDBRANCH  18  19
ENDBRANCH  17  18
ENDBRANCH   1  17
BRANCH  11  28
HETATM   28  N3  UNL     1       6.388  16.650  18.876  1.00  0.00    -0.404 NA
BRANCH  28  29
HETATM   29  C18 UNL     1       5.517  15.988  18.145  1.00  0.00     0.111 A 
HETATM   30  C19 UNL     1       5.787  15.270  16.961  1.00  0.00     0.053 A 
HETATM   31  C20 UNL     1       4.813  14.625  16.247  1.00  0.00    -0.034 A 
HETATM   32  C21 UNL     1       5.119  13.868  14.992  1.00  0.00     0.050 C 
HETATM   33  C22 UNL     1       3.504  14.671  16.690  1.00  0.00     0.073 A 
HETATM   34 CL3  UNL     1       2.281  13.843  15.761  1.00  0.00    -0.081 Cl
HETATM   35  C23 UNL     1       3.188  15.349  17.824  1.00  0.00     0.091 A 
HETATM   36  C24 UNL     1       4.158  15.983  18.524  1.00  0.00     0.083 A 
BRANCH  35  37
HETATM   37  O2  UNL     1       1.858  15.360  18.219  1.00  0.00    -0.359 OA
ATOM     38  H2  UNL     1       1.241  15.841  17.681  1.00  0.00     0.217 HD
ENDBRANCH  35  37
ENDBRANCH  28  29
ENDBRANCH  11  28
BRANCH  12  39
HETATM   39  C26 UNL     1       5.624  17.797  21.400  1.00  0.00     0.160 C 
HETATM   40  C27 UNL     1       4.405  18.625  21.059  1.00  0.00     0.097 C 
HETATM   41  O3  UNL     1       5.536  16.982  22.328  1.00  0.00    -0.293 OA
ENDBRANCH  12  39
TORSDOF 13
ENDMDL
MODEL 5
REMARK VINA RESULT: -8.385115167      1.719      2.422
REMARK  13 active torsions:
REMARK  status: ('A' for Active; 'I' for Inactive)
REMARK    1  A    between atoms: O1_2  and  C2_3 
REMARK    2  A    between atoms: C2_3  and  C3_4 
REMARK    3  A    between atoms: C3_4  and  N1_5 
REMARK    4  A    between atoms: N1_5  and  C5_7 
REMARK    5  A    between atoms: C5_7  and  C6_8 
REMARK    6  A    between atoms: C6_8  and  C7_9 
REMARK    7  A    between atoms: C7_9  and  C8_10 
REMARK    8  A    between atoms: C8_10  and  C9_11 
REMARK    9  A    between atoms: C9_11  and  N2_12 
REMARK   10  A    between atoms: C17_22  and  N3_23 
REMARK   11  A    between atoms: N3_23  and  C18_24 
REMARK   12  A    between atoms: C23_30  and  O2_31 
REMARK   13  A    between atoms: C25_34  and  C26_35 
ROOT
HETATM    1  N2  UNL     1      10.350  18.761  18.672  1.00  0.00    -0.332 N 
HETATM    2  C10 UNL     1      10.217  17.996  17.569  1.00  0.00     0.049 A 
HETATM    3  C11 UNL     1      11.085  17.820  16.526  1.00  0.00     0.056 A 
HETATM    4  C12 UNL     1      10.765  16.977  15.468  1.00  0.00     0.058 A 
HETATM    5 CL1  UNL     1      11.889  16.770  14.150  1.00  0.00    -0.082 Cl
HETATM    6  C13 UNL     1       9.560  16.334  15.501  1.00  0.00     0.056 A 
HETATM    7 CL2  UNL     1       9.110  15.255  14.177  1.00  0.00    -0.083 Cl
HETATM    8  C14 UNL     1       8.647  16.485  16.539  1.00  0.00     0.040 A 
HETATM    9  C15 UNL     1       8.995  17.329  17.577  1.00  0.00     0.010 A 
HETATM   10  C16 UNL     1       8.364  17.718  18.756  1.00  0.00     0.062 A 
HETATM   11  C17 UNL     1       7.102  17.364  19.305  1.00  0.00     0.137 A 
HETATM   12  C25 UNL     1       6.799  17.957  20.521  1.00  0.00     0.066 A 
HETATM   13  C28 UNL     1       7.688  18.841  21.153  1.00  0.00     0.108 A 
HETATM   14  N4  UNL     1       8.844  19.106  20.556  1.00  0.00    -0.350 N 
ATOM     15  H4  UNL     1       9.486  19.749  21.021  1.00  0.00     0.166 HD
HETATM   16  C29 UNL     1       9.222  18.583  19.383  1.00  0.00     0.122 A 
ENDROOT
BRANCH   1  17
HETATM   17  C9  UNL     1      11.494  19.604  19.013  1.00  0.00     0.131 C 
BRANCH  17  18
HETATM   18  C8  UNL     1      11.500  20.860  18.152  1.00  0.00     0.020 C 
BRANCH  18  19
HETATM   19  C7  UNL     1      12.827  20.966  17.424  1.00  0.00     0.003 C 
BRANCH  19  20
HETATM   20  C6  UNL     1      13.930  20.231  18.152  1.00  0.00     0.030 C 
BRANCH  20  21
HETATM   21  C5  UNL     1      14.829  21.253  18.808  1.00  0.00     0.272 C 
BRANCH  21  22
HETATM   22  N1  UNL     1      14.777  22.504  18.070  1.00  0.00     0.086 N 
HETATM   23  C4  UNL     1      14.573  23.606  19.033  1.00  0.00     0.310 C 
BRANCH  22  24
HETATM   24  C3  UNL     1      15.903  22.753  17.243  1.00  0.00     0.297 C 
BRANCH  24  25
HETATM   25  C2  UNL     1      15.767  22.624  15.780  1.00  0.00     0.197 C 
BRANCH  25  26
HETATM   26  O1  UNL     1      16.555  21.612  15.286  1.00  0.00    -0.394 OA
HETATM   27  C1  UNL     1      15.820  20.461  15.012  1.00  0.00     0.201 C 
ENDBRANCH  25  26
ENDBRANCH  24  25
ENDBRANCH  22  24
ENDBRANCH  21  22
ENDBRANCH  20  21
ENDBRANCH  19  20
ENDBRANCH  18  19
ENDBRANCH  17  18
ENDBRANCH   1  17
BRANCH  11  28
HETATM   28  N3  UNL     1       6.376  16.605  18.760  1.00  0.00    -0.404 NA
BRANCH  28  29
HETATM   29  C18 UNL     1       5.464  15.926  18.098  1.00  0.00     0.111 A 
HETATM   30  C19 UNL     1       4.093  15.828  18.417  1.00  0.00     0.053 A 
HETATM   31  C20 UNL     1       3.212  15.078  17.683  1.00  0.00    -0.034 A 
HETATM   32  C21 UNL     1       1.761  14.985  18.038  1.00  0.00     0.050 C 
HETATM   33  C22 UNL     1       3.671  14.380  16.581  1.00  0.00     0.073 A 
HETATM   34 CL3  UNL     1       2.530  13.430  15.665  1.00  0.00    -0.081 Cl
HETATM   35  C23 UNL     1       4.981  14.439  16.229  1.00  0.00     0.091 A 
HETATM   36  C24 UNL     1       5.844  15.184  16.960  1.00  0.00     0.083 A 
BRANCH  35  37
HETATM   37  O2  UNL     1       5.382  13.718  15.114  1.00  0.00    -0.359 OA
ATOM     38  H2  UNL     1       6.239  13.309  15.137  1.00  0.00     0.217 HD
ENDBRANCH  35  37
ENDBRANCH  28  29
ENDBRANCH  11  28
BRANCH  12  39
HETATM   39  C26 UNL     1       5.553  17.779  21.252  1.00  0.00     0.160 C 
HETATM   40  C27 UNL     1       4.337  18.610  20.909  1.00  0.00     0.097 C 
HETATM   41  O3  UNL     1       5.455  16.952  22.169  1.00  0.00    -0.293 OA
ENDBRANCH  12  39
TORSDOF 13
ENDMDL
