MODEL 1
REMARK VINA RESULT: -12.138649192      0.000      0.000
REMARK  4 active torsions:
REMARK  status: ('A' for Active; 'I' for Inactive)
REMARK    1  A    between atoms: C4_5  and  N2_6 
REMARK       I    between atoms: N2_6  and  C5_8 
REMARK    2  A    between atoms: C5_8  and  C6_10 
REMARK    3  A    between atoms: C13_17  and  C14_18 
REMARK       I    between atoms: C14_18  and  N3_20 
REMARK    4  A    between atoms: N3_20  and  C15_22 
ROOT
HETATM    1  N1  UNL     1      58.745   3.333  -5.092  1.00  0.00    -0.101 NA
HETATM    2  C1  UNL     1      59.878   2.480  -5.154  1.00  0.00     0.062 A 
HETATM    3  C2  UNL     1      59.769   1.215  -5.677  1.00  0.00     0.030 A 
HETATM    4  C3  UNL     1      60.860   0.352  -5.752  1.00  0.00     0.031 A 
HETATM    5  C4  UNL     1      62.067   0.787  -5.291  1.00  0.00     0.036 A 
HETATM    6  C12 UNL     1      62.197   2.071  -4.755  1.00  0.00     0.048 A 
HETATM    7  C13 UNL     1      61.123   2.918  -4.682  1.00  0.00     0.058 A 
ENDROOT
BRANCH   7   8
HETATM    8  C14 UNL     1      61.205   4.287  -4.121  1.00  0.00     0.258 C 
HETATM    9  O2  UNL     1      61.728   5.157  -4.839  1.00  0.00    -0.267 OA
HETATM   10  N3  UNL     1      60.720   4.597  -2.843  1.00  0.00    -0.323 N 
ATOM     11  H3  UNL     1      60.298   3.837  -2.308  1.00  0.00     0.169 HD
BRANCH  10  12
HETATM   12  C15 UNL     1      60.764   5.868  -2.231  1.00  0.00     0.035 A 
HETATM   13  C16 UNL     1      60.587   7.051  -2.870  1.00  0.00     0.029 A 
HETATM   14  C17 UNL     1      60.619   8.257  -2.185  1.00  0.00     0.003 A 
HETATM   15  C18 UNL     1      60.834   8.240  -0.842  1.00  0.00     0.012 A 
HETATM   16  C19 UNL     1      61.023   7.076  -0.129  1.00  0.00    -0.024 A 
HETATM   17  C20 UNL     1      61.248   7.099   1.295  1.00  0.00    -0.026 A 
HETATM   18  C26 UNL     1      60.984   5.905  -0.837  1.00  0.00     0.042 A 
HETATM   19  C21 UNL     1      60.680   8.069   2.091  1.00  0.00     0.012 A 
HETATM   20  C25 UNL     1      62.039   6.153   1.923  1.00  0.00     0.012 A 
HETATM   21  C22 UNL     1      60.886   8.106   3.459  1.00  0.00     0.001 A 
HETATM   22  C23 UNL     1      61.672   7.159   4.050  1.00  0.00     0.000 A 
HETATM   23  C24 UNL     1      62.257   6.174   3.290  1.00  0.00     0.001 A 
ENDBRANCH  10  12
ENDBRANCH   7   8
BRANCH   5  24
HETATM   24  N2  UNL     1      63.233  -0.010  -5.348  1.00  0.00    -0.323 N 
HETATM   25  C5  UNL     1      64.239   0.012  -6.341  1.00  0.00     0.256 C 
HETATM   26  O1  UNL     1      64.210   0.769  -7.312  1.00  0.00    -0.267 OA
ATOM     27  H2  UNL     1      63.363  -0.677  -4.586  1.00  0.00     0.169 HD
BRANCH  25  28
HETATM   28  C6  UNL     1      65.367  -0.900  -6.220  1.00  0.00     0.032 A 
HETATM   29  C7  UNL     1      66.392  -0.773  -7.156  1.00  0.00     0.017 A 
HETATM   30  C8  UNL     1      67.496  -1.595  -7.105  1.00  0.00     0.001 A 
HETATM   31  C9  UNL     1      67.592  -2.563  -6.110  1.00  0.00     0.000 A 
HETATM   32  C10 UNL     1      66.599  -2.711  -5.174  1.00  0.00     0.001 A 
HETATM   33  C11 UNL     1      65.494  -1.866  -5.249  1.00  0.00     0.017 A 
ENDBRANCH  25  28
ENDBRANCH   5  24
TORSDOF 4
ENDMDL
MODEL 2
REMARK VINA RESULT: -11.696325014      1.786      2.106
REMARK  4 active torsions:
REMARK  status: ('A' for Active; 'I' for Inactive)
REMARK    1  A    between atoms: C4_5  and  N2_6 
REMARK       I    between atoms: N2_6  and  C5_8 
REMARK    2  A    between atoms: C5_8  and  C6_10 
REMARK    3  A    between atoms: C13_17  and  C14_18 
REMARK       I    between atoms: C14_18  and  N3_20 
REMARK    4  A    between atoms: N3_20  and  C15_22 
ROOT
HETATM    1  N1  UNL     1      60.060   3.702  -7.441  1.00  0.00    -0.101 NA
HETATM    2  C1  UNL     1      61.187   2.844  -7.344  1.00  0.00     0.062 A 
HETATM    3  C2  UNL     1      61.228   1.667  -8.050  1.00  0.00     0.030 A 
HETATM    4  C3  UNL     1      62.317   0.801  -7.978  1.00  0.00     0.031 A 
HETATM    5  C4  UNL     1      63.368   1.142  -7.180  1.00  0.00     0.036 A 
HETATM    6  C12 UNL     1      63.344   2.336  -6.454  1.00  0.00     0.048 A 
HETATM    7  C13 UNL     1      62.272   3.186  -6.526  1.00  0.00     0.058 A 
ENDROOT
BRANCH   7   8
HETATM    8  C14 UNL     1      62.195   4.461  -5.775  1.00  0.00     0.258 C 
HETATM    9  O2  UNL     1      62.972   5.366  -6.125  1.00  0.00    -0.267 OA
HETATM   10  N3  UNL     1      61.292   4.647  -4.718  1.00  0.00    -0.323 N 
ATOM     11  H3  UNL     1      60.680   3.865  -4.486  1.00  0.00     0.169 HD
BRANCH  10  12
HETATM   12  C15 UNL     1      61.157   5.822  -3.948  1.00  0.00     0.035 A 
HETATM   13  C16 UNL     1      61.202   7.087  -4.436  1.00  0.00     0.029 A 
HETATM   14  C17 UNL     1      61.032   8.188  -3.609  1.00  0.00     0.003 A 
HETATM   15  C18 UNL     1      60.816   7.983  -2.282  1.00  0.00     0.012 A 
HETATM   16  C19 UNL     1      60.759   6.726  -1.719  1.00  0.00    -0.024 A 
HETATM   17  C20 UNL     1      60.527   6.549  -0.307  1.00  0.00    -0.026 A 
HETATM   18  C26 UNL     1      60.930   5.662  -2.564  1.00  0.00     0.042 A 
HETATM   19  C21 UNL     1      59.750   7.436   0.405  1.00  0.00     0.012 A 
HETATM   20  C25 UNL     1      61.071   5.486   0.392  1.00  0.00     0.012 A 
HETATM   21  C22 UNL     1      59.519   7.280   1.760  1.00  0.00     0.001 A 
HETATM   22  C23 UNL     1      60.069   6.222   2.423  1.00  0.00     0.000 A 
HETATM   23  C24 UNL     1      60.851   5.315   1.748  1.00  0.00     0.001 A 
ENDBRANCH  10  12
ENDBRANCH   7   8
BRANCH   5  24
HETATM   24  N2  UNL     1      64.524   0.338  -7.063  1.00  0.00    -0.323 N 
HETATM   25  C5  UNL     1      64.699  -0.797  -6.238  1.00  0.00     0.256 C 
HETATM   26  O1  UNL     1      63.818  -1.233  -5.497  1.00  0.00    -0.267 OA
ATOM     27  H2  UNL     1      65.323   0.608  -7.638  1.00  0.00     0.169 HD
BRANCH  25  28
HETATM   28  C6  UNL     1      65.980  -1.489  -6.257  1.00  0.00     0.032 A 
HETATM   29  C7  UNL     1      66.446  -1.999  -5.047  1.00  0.00     0.017 A 
HETATM   30  C8  UNL     1      67.646  -2.672  -4.984  1.00  0.00     0.001 A 
HETATM   31  C9  UNL     1      68.403  -2.846  -6.138  1.00  0.00     0.000 A 
HETATM   32  C10 UNL     1      67.970  -2.355  -7.345  1.00  0.00     0.001 A 
HETATM   33  C11 UNL     1      66.752  -1.679  -7.380  1.00  0.00     0.017 A 
ENDBRANCH  25  28
ENDBRANCH   5  24
TORSDOF 4
ENDMDL
MODEL 3
REMARK VINA RESULT: -11.664255298      1.284      1.655
REMARK  4 active torsions:
REMARK  status: ('A' for Active; 'I' for Inactive)
REMARK    1  A    between atoms: C4_5  and  N2_6 
REMARK       I    between atoms: N2_6  and  C5_8 
REMARK    2  A    between atoms: C5_8  and  C6_10 
REMARK    3  A    between atoms: C13_17  and  C14_18 
REMARK       I    between atoms: C14_18  and  N3_20 
REMARK    4  A    between atoms: N3_20  and  C15_22 
ROOT
HETATM    1  N1  UNL     1      59.229   2.285  -5.603  1.00  0.00    -0.101 NA
HETATM    2  C1  UNL     1      60.470   1.627  -5.813  1.00  0.00     0.062 A 
HETATM    3  C2  UNL     1      60.502   0.313  -6.209  1.00  0.00     0.030 A 
HETATM    4  C3  UNL     1      61.701  -0.363  -6.424  1.00  0.00     0.031 A 
HETATM    5  C4  UNL     1      62.871   0.309  -6.234  1.00  0.00     0.036 A 
HETATM    6  C12 UNL     1      62.858   1.648  -5.830  1.00  0.00     0.048 A 
HETATM    7  C13 UNL     1      61.678   2.310  -5.619  1.00  0.00     0.058 A 
ENDROOT
BRANCH   7   8
HETATM    8  C14 UNL     1      61.608   3.727  -5.189  1.00  0.00     0.258 C 
HETATM    9  O2  UNL     1      61.980   4.582  -6.011  1.00  0.00    -0.267 OA
HETATM   10  N3  UNL     1      61.147   4.095  -3.917  1.00  0.00    -0.323 N 
ATOM     11  H3  UNL     1      60.852   3.343  -3.293  1.00  0.00     0.169 HD
BRANCH  10  12
HETATM   12  C15 UNL     1      61.053   5.414  -3.425  1.00  0.00     0.035 A 
HETATM   13  C16 UNL     1      60.995   6.532  -4.190  1.00  0.00     0.029 A 
HETATM   14  C17 UNL     1      60.876   7.793  -3.622  1.00  0.00     0.003 A 
HETATM   15  C18 UNL     1      60.818   7.897  -2.267  1.00  0.00     0.012 A 
HETATM   16  C19 UNL     1      60.873   6.804  -1.430  1.00  0.00    -0.024 A 
HETATM   17  C20 UNL     1      60.807   6.955   0.003  1.00  0.00    -0.026 A 
HETATM   18  C26 UNL     1      60.989   5.576  -2.024  1.00  0.00     0.042 A 
HETATM   19  C21 UNL     1      60.081   7.973   0.580  1.00  0.00     0.012 A 
HETATM   20  C25 UNL     1      61.466   6.089   0.857  1.00  0.00     0.012 A 
HETATM   21  C22 UNL     1      60.008   8.132   1.953  1.00  0.00     0.001 A 
HETATM   22  C23 UNL     1      60.669   7.262   2.770  1.00  0.00     0.000 A 
HETATM   23  C24 UNL     1      61.405   6.232   2.233  1.00  0.00     0.001 A 
ENDBRANCH  10  12
ENDBRANCH   7   8
BRANCH   5  24
HETATM   24  N2  UNL     1      64.134  -0.287  -6.450  1.00  0.00    -0.323 N 
HETATM   25  C5  UNL     1      64.740  -1.312  -5.687  1.00  0.00     0.256 C 
HETATM   26  O1  UNL     1      64.206  -1.825  -4.704  1.00  0.00    -0.267 OA
ATOM     27  H2  UNL     1      64.668   0.061  -7.246  1.00  0.00     0.169 HD
BRANCH  25  28
HETATM   28  C6  UNL     1      66.060  -1.790  -6.075  1.00  0.00     0.032 A 
HETATM   29  C7  UNL     1      67.044  -1.807  -5.089  1.00  0.00     0.017 A 
HETATM   30  C8  UNL     1      68.317  -2.250  -5.374  1.00  0.00     0.001 A 
HETATM   31  C9  UNL     1      68.625  -2.686  -6.659  1.00  0.00     0.000 A 
HETATM   32  C10 UNL     1      67.676  -2.680  -7.652  1.00  0.00     0.001 A 
HETATM   33  C11 UNL     1      66.398  -2.227  -7.334  1.00  0.00     0.017 A 
ENDBRANCH  25  28
ENDBRANCH   5  24
TORSDOF 4
ENDMDL
MODEL 4
REMARK VINA RESULT: -11.331568302      1.322      1.788
REMARK  4 active torsions:
REMARK  status: ('A' for Active; 'I' for Inactive)
REMARK    1  A    between atoms: C4_5  and  N2_6 
REMARK       I    between atoms: N2_6  and  C5_8 
REMARK    2  A    between atoms: C5_8  and  C6_10 
REMARK    3  A    between atoms: C13_17  and  C14_18 
REMARK       I    between atoms: C14_18  and  N3_20 
REMARK    4  A    between atoms: N3_20  and  C15_22 
ROOT
HETATM    1  N1  UNL     1      58.687   2.181  -5.912  1.00  0.00    -0.101 NA
HETATM    2  C1  UNL     1      59.914   1.466  -5.901  1.00  0.00     0.062 A 
HETATM    3  C2  UNL     1      60.058   0.322  -6.647  1.00  0.00     0.030 A 
HETATM    4  C3  UNL     1      61.247  -0.404  -6.660  1.00  0.00     0.031 A 
HETATM    5  C4  UNL     1      62.291   0.043  -5.908  1.00  0.00     0.036 A 
HETATM    6  C12 UNL     1      62.163   1.206  -5.143  1.00  0.00     0.048 A 
HETATM    7  C13 UNL     1      60.994   1.918  -5.131  1.00  0.00     0.058 A 
ENDROOT
BRANCH   7   8
HETATM    8  C14 UNL     1      60.804   3.155  -4.336  1.00  0.00     0.258 C 
HETATM    9  O2  UNL     1      60.071   3.071  -3.335  1.00  0.00    -0.267 OA
HETATM   10  N3  UNL     1      61.416   4.366  -4.688  1.00  0.00    -0.323 N 
ATOM     11  H3  UNL     1      62.009   4.363  -5.519  1.00  0.00     0.169 HD
BRANCH  10  12
HETATM   12  C15 UNL     1      61.285   5.587  -3.994  1.00  0.00     0.035 A 
HETATM   13  C16 UNL     1      61.366   6.819  -4.554  1.00  0.00     0.029 A 
HETATM   14  C17 UNL     1      61.197   7.971  -3.799  1.00  0.00     0.003 A 
HETATM   15  C18 UNL     1      60.944   7.849  -2.468  1.00  0.00     0.012 A 
HETATM   16  C19 UNL     1      60.849   6.630  -1.833  1.00  0.00    -0.024 A 
HETATM   17  C20 UNL     1      60.578   6.542  -0.419  1.00  0.00    -0.026 A 
HETATM   18  C26 UNL     1      61.021   5.515  -2.609  1.00  0.00     0.042 A 
HETATM   19  C21 UNL     1      59.802   7.483   0.218  1.00  0.00     0.012 A 
HETATM   20  C25 UNL     1      61.085   5.514   0.356  1.00  0.00     0.012 A 
HETATM   21  C22 UNL     1      59.533   7.413   1.574  1.00  0.00     0.001 A 
HETATM   22  C23 UNL     1      60.047   6.387   2.313  1.00  0.00     0.000 A 
HETATM   23  C24 UNL     1      60.827   5.427   1.713  1.00  0.00     0.001 A 
ENDBRANCH  10  12
ENDBRANCH   7   8
BRANCH   5  24
HETATM   24  N2  UNL     1      63.542  -0.615  -5.878  1.00  0.00    -0.323 N 
HETATM   25  C5  UNL     1      64.712  -0.267  -6.594  1.00  0.00     0.256 C 
HETATM   26  O1  UNL     1      64.772   0.697  -7.357  1.00  0.00    -0.267 OA
ATOM     27  H2  UNL     1      63.608  -1.433  -5.272  1.00  0.00     0.169 HD
BRANCH  25  28
HETATM   28  C6  UNL     1      65.906  -1.083  -6.428  1.00  0.00     0.032 A 
HETATM   29  C7  UNL     1      66.052  -1.758  -5.218  1.00  0.00     0.017 A 
HETATM   30  C8  UNL     1      67.151  -2.555  -4.986  1.00  0.00     0.001 A 
HETATM   31  C9  UNL     1      68.127  -2.690  -5.968  1.00  0.00     0.000 A 
HETATM   32  C10 UNL     1      68.010  -2.038  -7.171  1.00  0.00     0.001 A 
HETATM   33  C11 UNL     1      66.888  -1.239  -7.378  1.00  0.00     0.017 A 
ENDBRANCH  25  28
ENDBRANCH   5  24
TORSDOF 4
ENDMDL
MODEL 5
REMARK VINA RESULT: -10.892800248      1.770     10.126
REMARK  4 active torsions:
REMARK  status: ('A' for Active; 'I' for Inactive)
REMARK    1  A    between atoms: C4_5  and  N2_6 
REMARK       I    between atoms: N2_6  and  C5_8 
REMARK    2  A    between atoms: C5_8  and  C6_10 
REMARK    3  A    between atoms: C13_17  and  C14_18 
REMARK       I    between atoms: C14_18  and  N3_20 
REMARK    4  A    between atoms: N3_20  and  C15_22 
ROOT
HETATM    1  N1  UNL     1      60.485   5.262  -6.065  1.00  0.00    -0.101 NA
HETATM    2  C1  UNL     1      60.711   5.514  -4.686  1.00  0.00     0.062 A 
HETATM    3  C2  UNL     1      60.503   6.768  -4.165  1.00  0.00     0.030 A 
HETATM    4  C3  UNL     1      60.715   7.050  -2.817  1.00  0.00     0.031 A 
HETATM    5  C4  UNL     1      61.141   6.046  -2.001  1.00  0.00     0.036 A 
HETATM    6  C12 UNL     1      61.358   4.763  -2.513  1.00  0.00     0.048 A 
HETATM    7  C13 UNL     1      61.149   4.488  -3.839  1.00  0.00     0.058 A 
ENDROOT
BRANCH   7   8
HETATM    8  C14 UNL     1      61.367   3.148  -4.433  1.00  0.00     0.258 C 
HETATM    9  O2  UNL     1      60.707   2.208  -3.956  1.00  0.00    -0.267 OA
HETATM   10  N3  UNL     1      62.271   2.940  -5.484  1.00  0.00    -0.323 N 
ATOM     11  H3  UNL     1      62.776   3.755  -5.832  1.00  0.00     0.169 HD
BRANCH  10  12
HETATM   12  C15 UNL     1      62.543   1.701  -6.103  1.00  0.00     0.035 A 
HETATM   13  C16 UNL     1      61.657   0.979  -6.832  1.00  0.00     0.029 A 
HETATM   14  C17 UNL     1      62.018  -0.220  -7.430  1.00  0.00     0.003 A 
HETATM   15  C18 UNL     1      63.291  -0.672  -7.274  1.00  0.00     0.012 A 
HETATM   16  C19 UNL     1      64.243   0.009  -6.545  1.00  0.00    -0.024 A 
HETATM   17  C20 UNL     1      65.584  -0.502  -6.403  1.00  0.00    -0.026 A 
HETATM   18  C26 UNL     1      63.852   1.189  -5.970  1.00  0.00     0.042 A 
HETATM   19  C21 UNL     1      66.175  -1.241  -7.403  1.00  0.00     0.012 A 
HETATM   20  C25 UNL     1      66.332  -0.275  -5.262  1.00  0.00     0.012 A 
HETATM   21  C22 UNL     1      67.460  -1.739  -7.282  1.00  0.00     0.001 A 
HETATM   22  C23 UNL     1      68.174  -1.499  -6.144  1.00  0.00     0.000 A 
HETATM   23  C24 UNL     1      67.619  -0.765  -5.122  1.00  0.00     0.001 A 
ENDBRANCH  10  12
ENDBRANCH   7   8
BRANCH   5  24
HETATM   24  N2  UNL     1      61.360   6.233  -0.617  1.00  0.00    -0.323 N 
HETATM   25  C5  UNL     1      60.677   7.120   0.247  1.00  0.00     0.256 C 
HETATM   26  O1  UNL     1      59.768   7.860  -0.130  1.00  0.00    -0.267 OA
ATOM     27  H2  UNL     1      62.094   5.665  -0.194  1.00  0.00     0.169 HD
BRANCH  25  28
HETATM   28  C6  UNL     1      61.059   7.169   1.651  1.00  0.00     0.032 A 
HETATM   29  C7  UNL     1      61.944   6.192   2.103  1.00  0.00     0.017 A 
HETATM   30  C8  UNL     1      62.359   6.173   3.416  1.00  0.00     0.001 A 
HETATM   31  C9  UNL     1      61.892   7.138   4.302  1.00  0.00     0.000 A 
HETATM   32  C10 UNL     1      61.020   8.114   3.886  1.00  0.00     0.001 A 
HETATM   33  C11 UNL     1      60.618   8.109   2.553  1.00  0.00     0.017 A 
ENDBRANCH  25  28
ENDBRANCH   5  24
TORSDOF 4
ENDMDL
