MODEL 1
REMARK VINA RESULT: -5.185541460      0.000      0.000
REMARK  1 active torsions:
REMARK  status: ('A' for Active; 'I' for Inactive)
REMARK    1  A    between atoms: C2_2  and  N1_3 
ROOT
HETATM    1  N1  UNL     1      -6.002   3.084  15.175  1.00  0.00    -0.360 N 
ATOM      2  H1  UNL     1      -7.011   3.178  15.293  1.00  0.00     0.162 HD
HETATM    3  C3  UNL     1      -5.405   2.126  15.798  1.00  0.00     0.214 C 
HETATM    4  N2  UNL     1      -5.970   1.145  16.658  1.00  0.00    -0.246 N 
ATOM      5  H2  UNL     1      -6.959   0.980  16.839  1.00  0.00     0.188 HD
HETATM    6  N3  UNL     1      -4.885   0.456  17.201  1.00  0.00     0.050 NA
HETATM    7  O1  UNL     1      -3.804   0.737  16.499  1.00  0.00    -0.140 OA
HETATM    8  N4  UNL     1      -4.019   1.834  15.760  1.00  0.00    -0.212 N 
ATOM      9  H4  UNL     1      -3.308   2.366  15.257  1.00  0.00     0.199 HD
ENDROOT
BRANCH   1  10
HETATM   10  C2  UNL     1      -5.333   4.023  14.328  1.00  0.00     0.118 C 
HETATM   11  C1  UNL     1      -5.935   5.413  14.385  1.00  0.00     0.026 C 
ENDBRANCH   1  10
TORSDOF 1
ENDMDL
MODEL 2
REMARK VINA RESULT: -4.894701190      1.408      1.478
REMARK  1 active torsions:
REMARK  status: ('A' for Active; 'I' for Inactive)
REMARK    1  A    between atoms: C2_2  and  N1_3 
ROOT
HETATM    1  N1  UNL     1      -5.082   3.069  15.092  1.00  0.00    -0.360 N 
ATOM      2  H1  UNL     1      -5.677   3.761  15.548  1.00  0.00     0.162 HD
HETATM    3  C3  UNL     1      -5.179   1.841  15.474  1.00  0.00     0.214 C 
HETATM    4  N2  UNL     1      -6.026   1.292  16.474  1.00  0.00    -0.246 N 
ATOM      5  H2  UNL     1      -6.770   1.769  16.983  1.00  0.00     0.188 HD
HETATM    6  N3  UNL     1      -5.625  -0.037  16.615  1.00  0.00     0.050 NA
HETATM    7  O1  UNL     1      -4.868  -0.367  15.587  1.00  0.00    -0.140 OA
HETATM    8  N4  UNL     1      -4.443   0.742  14.966  1.00  0.00    -0.212 N 
ATOM      9  H4  UNL     1      -3.717   0.787  14.251  1.00  0.00     0.199 HD
ENDROOT
BRANCH   1  10
HETATM   10  C2  UNL     1      -4.189   3.517  14.068  1.00  0.00     0.118 C 
HETATM   11  C1  UNL     1      -3.183   4.539  14.559  1.00  0.00     0.026 C 
ENDBRANCH   1  10
TORSDOF 1
ENDMDL
MODEL 3
REMARK VINA RESULT: -4.810325242      1.399      1.689
REMARK  1 active torsions:
REMARK  status: ('A' for Active; 'I' for Inactive)
REMARK    1  A    between atoms: C2_2  and  N1_3 
ROOT
HETATM    1  N1  UNL     1      -5.143   2.672  15.123  1.00  0.00    -0.360 N 
ATOM      2  H1  UNL     1      -4.209   2.637  14.715  1.00  0.00     0.162 HD
HETATM    3  C3  UNL     1      -5.499   1.715  15.910  1.00  0.00     0.214 C 
HETATM    4  N2  UNL     1      -4.749   0.575  16.307  1.00  0.00    -0.246 N 
ATOM      5  H2  UNL     1      -3.767   0.384  16.112  1.00  0.00     0.188 HD
HETATM    6  N3  UNL     1      -5.640  -0.228  17.021  1.00  0.00     0.050 NA
HETATM    7  O1  UNL     1      -6.706   0.485  17.330  1.00  0.00    -0.140 OA
HETATM    8  N4  UNL     1      -6.747   1.587  16.568  1.00  0.00    -0.212 N 
ATOM      9  H4  UNL     1      -7.539   2.223  16.478  1.00  0.00     0.199 HD
ENDROOT
BRANCH   1  10
HETATM   10  C2  UNL     1      -5.984   3.781  14.787  1.00  0.00     0.118 C 
HETATM   11  C1  UNL     1      -5.205   5.032  14.429  1.00  0.00     0.026 C 
ENDBRANCH   1  10
TORSDOF 1
ENDMDL
MODEL 4
REMARK VINA RESULT: -4.649521621      1.393      1.530
REMARK  1 active torsions:
REMARK  status: ('A' for Active; 'I' for Inactive)
REMARK    1  A    between atoms: C2_2  and  N1_3 
ROOT
HETATM    1  N1  UNL     1      -4.642   3.116  13.887  1.00  0.00    -0.360 N 
ATOM      2  H1  UNL     1      -4.913   2.985  12.912  1.00  0.00     0.162 HD
HETATM    3  C3  UNL     1      -4.445   2.065  14.608  1.00  0.00     0.214 C 
HETATM    4  N2  UNL     1      -4.556   0.700  14.228  1.00  0.00    -0.246 N 
ATOM      5  H2  UNL     1      -4.710   0.332  13.290  1.00  0.00     0.188 HD
HETATM    6  N3  UNL     1      -4.408  -0.029  15.408  1.00  0.00     0.050 NA
HETATM    7  O1  UNL     1      -3.916   0.761  16.342  1.00  0.00    -0.140 OA
HETATM    8  N4  UNL     1      -4.065   2.041  15.973  1.00  0.00    -0.212 N 
ATOM      9  H4  UNL     1      -3.929   2.856  16.571  1.00  0.00     0.199 HD
ENDROOT
BRANCH   1  10
HETATM   10  C2  UNL     1      -4.502   4.454  14.374  1.00  0.00     0.118 C 
HETATM   11  C1  UNL     1      -5.827   5.175  14.526  1.00  0.00     0.026 C 
ENDBRANCH   1  10
TORSDOF 1
ENDMDL
MODEL 5
REMARK VINA RESULT: -4.446281206      2.752      3.279
REMARK  1 active torsions:
REMARK  status: ('A' for Active; 'I' for Inactive)
REMARK    1  A    between atoms: C2_2  and  N1_3 
ROOT
HETATM    1  N1  UNL     1      -4.351   1.563  13.125  1.00  0.00    -0.360 N 
ATOM      2  H1  UNL     1      -4.327   2.538  12.826  1.00  0.00     0.162 HD
HETATM    3  C3  UNL     1      -4.267   1.312  14.386  1.00  0.00     0.214 C 
HETATM    4  N2  UNL     1      -4.143   2.231  15.463  1.00  0.00    -0.246 N 
ATOM      5  H2  UNL     1      -4.202   3.248  15.415  1.00  0.00     0.188 HD
HETATM    6  N3  UNL     1      -3.922   1.450  16.598  1.00  0.00     0.050 NA
HETATM    7  O1  UNL     1      -4.224   0.197  16.321  1.00  0.00    -0.140 OA
HETATM    8  N4  UNL     1      -4.283   0.031  14.992  1.00  0.00    -0.212 N 
ATOM      9  H4  UNL     1      -4.330  -0.863  14.502  1.00  0.00     0.199 HD
ENDROOT
BRANCH   1  10
HETATM   10  C2  UNL     1      -4.474   0.553  12.118  1.00  0.00     0.118 C 
HETATM   11  C1  UNL     1      -3.201   0.347  11.321  1.00  0.00     0.026 C 
ENDBRANCH   1  10
TORSDOF 1
ENDMDL
