MODEL 1
REMARK VINA RESULT: -9.434534463      0.000      0.000
REMARK  2 active torsions:
REMARK  status: ('A' for Active; 'I' for Inactive)
REMARK    1  A    between atoms: C1_1  and  C15_19 
REMARK    2  A    between atoms: C2_2  and  C3_3 
ROOT
HETATM    1  C3  UNL     1      69.619  -2.956 -19.672  1.00  0.00     0.020 A 
HETATM    2  C4  UNL     1      68.677  -2.049 -19.224  1.00  0.00     0.023 A 
HETATM    3  C5  UNL     1      67.318  -2.265 -19.312  1.00  0.00     0.033 A 
HETATM    4  C6  UNL     1      66.908  -3.463 -19.886  1.00  0.00     0.059 A 
HETATM    5  N1  UNL     1      65.572  -3.685 -19.978  1.00  0.00    -0.353 N 
ATOM      6  H1  UNL     1      64.906  -2.991 -19.636  1.00  0.00     0.166 HD
HETATM    7  C7  UNL     1      65.141  -4.833 -20.527  1.00  0.00     0.059 A 
HETATM    8  C8  UNL     1      63.780  -5.039 -20.611  1.00  0.00     0.032 A 
HETATM    9  C9  UNL     1      63.330  -6.219 -21.174  1.00  0.00     0.002 A 
HETATM   10  C10 UNL     1      64.199  -7.180 -21.647  1.00  0.00     0.002 A 
HETATM   11  C11 UNL     1      65.556  -6.954 -21.553  1.00  0.00     0.032 A 
HETATM   12  C12 UNL     1      66.037  -5.777 -20.991  1.00  0.00     0.059 A 
HETATM   13  N2  UNL     1      67.358  -5.537 -20.890  1.00  0.00    -0.353 N 
ATOM     14  H2  UNL     1      68.020  -6.233 -21.233  1.00  0.00     0.166 HD
HETATM   15  C13 UNL     1      67.823  -4.388 -20.342  1.00  0.00     0.061 A 
HETATM   16  C14 UNL     1      69.197  -4.142 -20.239  1.00  0.00     0.052 A 
ENDROOT
BRANCH   1  17
HETATM   17  C2  UNL     1      71.030  -2.693 -19.561  1.00  0.00    -0.061 C 
HETATM   18  C1  UNL     1      72.231  -2.490 -19.472  1.00  0.00    -0.061 C 
BRANCH  18  19
HETATM   19  C15 UNL     1      73.643  -2.273 -19.372  1.00  0.00     0.018 A 
HETATM   20  C16 UNL     1      74.559  -2.948 -20.148  1.00  0.00     0.020 A 
HETATM   21  C17 UNL     1      75.918  -2.735 -20.046  1.00  0.00     0.001 A 
HETATM   22  C18 UNL     1      76.387  -1.817 -19.140  1.00  0.00     0.000 A 
HETATM   23  C19 UNL     1      75.498  -1.128 -18.350  1.00  0.00     0.001 A 
HETATM   24  C20 UNL     1      74.153  -1.361 -18.473  1.00  0.00     0.020 A 
ENDBRANCH  18  19
ENDBRANCH   1  17
TORSDOF 2
ENDMDL
MODEL 2
REMARK VINA RESULT: -9.430364726      0.027      1.006
REMARK  2 active torsions:
REMARK  status: ('A' for Active; 'I' for Inactive)
REMARK    1  A    between atoms: C1_1  and  C15_19 
REMARK    2  A    between atoms: C2_2  and  C3_3 
ROOT
HETATM    1  C3  UNL     1      69.608  -2.948 -19.669  1.00  0.00     0.020 A 
HETATM    2  C4  UNL     1      68.664  -2.040 -19.226  1.00  0.00     0.023 A 
HETATM    3  C5  UNL     1      67.306  -2.259 -19.316  1.00  0.00     0.033 A 
HETATM    4  C6  UNL     1      66.899  -3.460 -19.887  1.00  0.00     0.059 A 
HETATM    5  N1  UNL     1      65.563  -3.683 -19.981  1.00  0.00    -0.353 N 
ATOM      6  H1  UNL     1      64.895  -2.990 -19.642  1.00  0.00     0.166 HD
HETATM    7  C7  UNL     1      65.134  -4.834 -20.526  1.00  0.00     0.059 A 
HETATM    8  C8  UNL     1      63.774  -5.043 -20.613  1.00  0.00     0.032 A 
HETATM    9  C9  UNL     1      63.327  -6.225 -21.174  1.00  0.00     0.002 A 
HETATM   10  C10 UNL     1      64.198  -7.185 -21.641  1.00  0.00     0.002 A 
HETATM   11  C11 UNL     1      65.555  -6.958 -21.545  1.00  0.00     0.032 A 
HETATM   12  C12 UNL     1      66.033  -5.778 -20.986  1.00  0.00     0.059 A 
HETATM   13  N2  UNL     1      67.353  -5.536 -20.884  1.00  0.00    -0.353 N 
ATOM     14  H2  UNL     1      68.017  -6.233 -21.222  1.00  0.00     0.166 HD
HETATM   15  C13 UNL     1      67.816  -4.385 -20.338  1.00  0.00     0.061 A 
HETATM   16  C14 UNL     1      69.189  -4.136 -20.233  1.00  0.00     0.052 A 
ENDROOT
BRANCH   1  17
HETATM   17  C2  UNL     1      71.018  -2.683 -19.556  1.00  0.00    -0.061 C 
HETATM   18  C1  UNL     1      72.219  -2.478 -19.461  1.00  0.00    -0.061 C 
BRANCH  18  19
HETATM   19  C15 UNL     1      73.630  -2.261 -19.347  1.00  0.00     0.018 A 
HETATM   20  C16 UNL     1      74.178  -1.359 -18.463  1.00  0.00     0.020 A 
HETATM   21  C17 UNL     1      75.538  -1.155 -18.359  1.00  0.00     0.001 A 
HETATM   22  C18 UNL     1      76.388  -1.872 -19.163  1.00  0.00     0.000 A 
HETATM   23  C19 UNL     1      75.871  -2.780 -20.057  1.00  0.00     0.001 A 
HETATM   24  C20 UNL     1      74.515  -2.962 -20.139  1.00  0.00     0.020 A 
ENDBRANCH  18  19
ENDBRANCH   1  17
TORSDOF 2
ENDMDL
MODEL 3
REMARK VINA RESULT: -9.047189324      2.216      8.955
REMARK  2 active torsions:
REMARK  status: ('A' for Active; 'I' for Inactive)
REMARK    1  A    between atoms: C1_1  and  C15_19 
REMARK    2  A    between atoms: C2_2  and  C3_3 
ROOT
HETATM    1  C3  UNL     1      69.446  -3.231 -19.805  1.00  0.00     0.020 A 
HETATM    2  C4  UNL     1      69.345  -1.976 -19.235  1.00  0.00     0.023 A 
HETATM    3  C5  UNL     1      70.440  -1.210 -18.896  1.00  0.00     0.033 A 
HETATM    4  C6  UNL     1      71.693  -1.756 -19.153  1.00  0.00     0.059 A 
HETATM    5  N1  UNL     1      72.777  -1.009 -18.822  1.00  0.00    -0.353 N 
ATOM      6  H1  UNL     1      72.663  -0.086 -18.403  1.00  0.00     0.166 HD
HETATM    7  C7  UNL     1      74.003  -1.506 -19.056  1.00  0.00     0.059 A 
HETATM    8  C8  UNL     1      75.092  -0.733 -18.713  1.00  0.00     0.032 A 
HETATM    9  C9  UNL     1      76.357  -1.239 -18.952  1.00  0.00     0.002 A 
HETATM   10  C10 UNL     1      76.550  -2.482 -19.517  1.00  0.00     0.002 A 
HETATM   11  C11 UNL     1      75.448  -3.240 -19.852  1.00  0.00     0.032 A 
HETATM   12  C12 UNL     1      74.165  -2.756 -19.624  1.00  0.00     0.059 A 
HETATM   13  N2  UNL     1      73.076  -3.480 -19.944  1.00  0.00    -0.353 N 
ATOM     14  H2  UNL     1      73.194  -4.403 -20.363  1.00  0.00     0.166 HD
HETATM   15  C13 UNL     1      71.827  -3.006 -19.720  1.00  0.00     0.061 A 
HETATM   16  C14 UNL     1      70.696  -3.761 -20.053  1.00  0.00     0.052 A 
ENDROOT
BRANCH   1  17
HETATM   17  C2  UNL     1      68.277  -4.000 -20.144  1.00  0.00    -0.061 C 
HETATM   18  C1  UNL     1      67.274  -4.636 -20.432  1.00  0.00    -0.061 C 
BRANCH  18  19
HETATM   19  C15 UNL     1      66.086  -5.362 -20.765  1.00  0.00     0.018 A 
HETATM   20  C16 UNL     1      66.111  -6.636 -21.287  1.00  0.00     0.020 A 
HETATM   21  C17 UNL     1      64.962  -7.330 -21.605  1.00  0.00     0.001 A 
HETATM   22  C18 UNL     1      63.741  -6.737 -21.398  1.00  0.00     0.000 A 
HETATM   23  C19 UNL     1      63.683  -5.466 -20.879  1.00  0.00     0.001 A 
HETATM   24  C20 UNL     1      64.841  -4.800 -20.572  1.00  0.00     0.020 A 
ENDBRANCH  18  19
ENDBRANCH   1  17
TORSDOF 2
ENDMDL
MODEL 4
REMARK VINA RESULT: -9.024251769      2.211      8.998
REMARK  2 active torsions:
REMARK  status: ('A' for Active; 'I' for Inactive)
REMARK    1  A    between atoms: C1_1  and  C15_19 
REMARK    2  A    between atoms: C2_2  and  C3_3 
ROOT
HETATM    1  C3  UNL     1      69.428  -3.195 -19.796  1.00  0.00     0.020 A 
HETATM    2  C4  UNL     1      69.335  -1.939 -19.227  1.00  0.00     0.023 A 
HETATM    3  C5  UNL     1      70.434  -1.177 -18.892  1.00  0.00     0.033 A 
HETATM    4  C6  UNL     1      71.684  -1.729 -19.153  1.00  0.00     0.059 A 
HETATM    5  N1  UNL     1      72.773  -0.986 -18.826  1.00  0.00    -0.353 N 
ATOM      6  H1  UNL     1      72.664  -0.062 -18.407  1.00  0.00     0.166 HD
HETATM    7  C7  UNL     1      73.996  -1.488 -19.065  1.00  0.00     0.059 A 
HETATM    8  C8  UNL     1      75.089  -0.720 -18.726  1.00  0.00     0.032 A 
HETATM    9  C9  UNL     1      76.351  -1.231 -18.969  1.00  0.00     0.002 A 
HETATM   10  C10 UNL     1      76.537  -2.475 -19.535  1.00  0.00     0.002 A 
HETATM   11  C11 UNL     1      75.431  -3.228 -19.866  1.00  0.00     0.032 A 
HETATM   12  C12 UNL     1      74.150  -2.739 -19.633  1.00  0.00     0.059 A 
HETATM   13  N2  UNL     1      73.058  -3.458 -19.949  1.00  0.00    -0.353 N 
ATOM     14  H2  UNL     1      73.170  -4.381 -20.369  1.00  0.00     0.166 HD
HETATM   15  C13 UNL     1      71.811  -2.979 -19.720  1.00  0.00     0.061 A 
HETATM   16  C14 UNL     1      70.676  -3.729 -20.050  1.00  0.00     0.052 A 
ENDROOT
BRANCH   1  17
HETATM   17  C2  UNL     1      68.255  -3.959 -20.132  1.00  0.00    -0.061 C 
HETATM   18  C1  UNL     1      67.249  -4.590 -20.416  1.00  0.00    -0.061 C 
BRANCH  18  19
HETATM   19  C15 UNL     1      66.057  -5.311 -20.745  1.00  0.00     0.018 A 
HETATM   20  C16 UNL     1      64.794  -4.791 -20.561  1.00  0.00     0.020 A 
HETATM   21  C17 UNL     1      63.650  -5.492 -20.880  1.00  0.00     0.001 A 
HETATM   22  C18 UNL     1      63.761  -6.756 -21.403  1.00  0.00     0.000 A 
HETATM   23  C19 UNL     1      65.007  -7.303 -21.599  1.00  0.00     0.001 A 
HETATM   24  C20 UNL     1      66.127  -6.584 -21.272  1.00  0.00     0.020 A 
ENDBRANCH  18  19
ENDBRANCH   1  17
TORSDOF 2
ENDMDL
MODEL 5
REMARK VINA RESULT: -8.516351655      2.264      9.183
REMARK  2 active torsions:
REMARK  status: ('A' for Active; 'I' for Inactive)
REMARK    1  A    between atoms: C1_1  and  C15_19 
REMARK    2  A    between atoms: C2_2  and  C3_3 
ROOT
HETATM    1  C3  UNL     1      69.833  -4.117 -20.750  1.00  0.00     0.020 A 
HETATM    2  C4  UNL     1      70.832  -4.561 -21.596  1.00  0.00     0.023 A 
HETATM    3  C5  UNL     1      72.129  -4.096 -21.542  1.00  0.00     0.033 A 
HETATM    4  C6  UNL     1      72.413  -3.134 -20.579  1.00  0.00     0.059 A 
HETATM    5  N1  UNL     1      73.687  -2.670 -20.518  1.00  0.00    -0.353 N 
ATOM      6  H1  UNL     1      74.399  -3.021 -21.159  1.00  0.00     0.166 HD
HETATM    7  C7  UNL     1      73.996  -1.740 -19.599  1.00  0.00     0.059 A 
HETATM    8  C8  UNL     1      75.295  -1.281 -19.553  1.00  0.00     0.032 A 
HETATM    9  C9  UNL     1      75.620  -0.324 -18.609  1.00  0.00     0.002 A 
HETATM   10  C10 UNL     1      74.685   0.174 -17.726  1.00  0.00     0.002 A 
HETATM   11  C11 UNL     1      73.392  -0.297 -17.787  1.00  0.00     0.032 A 
HETATM   12  C12 UNL     1      73.037  -1.260 -18.727  1.00  0.00     0.059 A 
HETATM   13  N2  UNL     1      71.780  -1.733 -18.804  1.00  0.00    -0.353 N 
ATOM     14  H2  UNL     1      71.072  -1.380 -18.160  1.00  0.00     0.166 HD
HETATM   15  C13 UNL     1      71.438  -2.672 -19.720  1.00  0.00     0.061 A 
HETATM   16  C14 UNL     1      70.129  -3.162 -19.799  1.00  0.00     0.052 A 
ENDROOT
BRANCH   1  17
HETATM   17  C2  UNL     1      68.490  -4.628 -20.838  1.00  0.00    -0.061 C 
HETATM   18  C1  UNL     1      67.354  -5.066 -20.933  1.00  0.00    -0.061 C 
BRANCH  18  19
HETATM   19  C15 UNL     1      66.025  -5.582 -21.066  1.00  0.00     0.018 A 
HETATM   20  C16 UNL     1      64.905  -4.857 -20.724  1.00  0.00     0.020 A 
HETATM   21  C17 UNL     1      63.627  -5.361 -20.855  1.00  0.00     0.001 A 
HETATM   22  C18 UNL     1      63.453  -6.631 -21.345  1.00  0.00     0.000 A 
HETATM   23  C19 UNL     1      64.551  -7.380 -21.696  1.00  0.00     0.001 A 
HETATM   24  C20 UNL     1      65.809  -6.854 -21.554  1.00  0.00     0.020 A 
ENDBRANCH  18  19
ENDBRANCH   1  17
TORSDOF 2
ENDMDL
