MODEL 1
REMARK VINA RESULT: -9.595322825      0.000      0.000
REMARK  2 active torsions:
REMARK  status: ('A' for Active; 'I' for Inactive)
REMARK    1  A    between atoms: C9_13  and  C10_14 
REMARK    2  A    between atoms: C11_15  and  C12_16 
ROOT
HETATM    1  C1  UNL     1      71.985  -4.795 -21.255  1.00  0.00     0.071 C 
HETATM    2  C2  UNL     1      72.434  -3.667 -20.382  1.00  0.00     0.041 A 
HETATM    3  N1  UNL     1      73.733  -3.350 -20.237  1.00  0.00    -0.356 N 
ATOM      4  H1  UNL     1      74.429  -3.900 -20.741  1.00  0.00     0.166 HD
HETATM    5  C3  UNL     1      74.155  -2.331 -19.451  1.00  0.00     0.059 A 
HETATM    6  C4  UNL     1      75.488  -2.018 -19.311  1.00  0.00     0.032 A 
HETATM    7  C5  UNL     1      75.943  -0.981 -18.512  1.00  0.00     0.002 A 
HETATM    8  C6  UNL     1      74.979  -0.249 -17.837  1.00  0.00     0.002 A 
HETATM    9  C7  UNL     1      73.632  -0.549 -17.963  1.00  0.00     0.032 A 
HETATM   10  C8  UNL     1      73.213  -1.591 -18.771  1.00  0.00     0.060 A 
HETATM   11  N2  UNL     1      71.897  -1.894 -18.902  1.00  0.00    -0.346 N 
ATOM     12  H2  UNL     1      71.199  -1.346 -18.398  1.00  0.00     0.167 HD
HETATM   13  C9  UNL     1      71.504  -2.911 -19.690  1.00  0.00     0.110 A 
ENDROOT
BRANCH  13  14
HETATM   14  C10 UNL     1      70.101  -3.249 -19.843  1.00  0.00    -0.041 C 
HETATM   15  C11 UNL     1      68.938  -3.549 -19.977  1.00  0.00    -0.060 C 
BRANCH  15  16
HETATM   16  C12 UNL     1      67.560  -3.928 -20.152  1.00  0.00     0.018 A 
HETATM   17  C13 UNL     1      66.522  -3.088 -19.782  1.00  0.00     0.021 A 
HETATM   18  C14 UNL     1      65.201  -3.500 -19.972  1.00  0.00     0.013 A 
HETATM   19  C15 UNL     1      64.908  -4.727 -20.522  1.00  0.00    -0.026 A 
HETATM   20  C16 UNL     1      63.591  -5.115 -20.701  1.00  0.00     0.012 A 
HETATM   21  C20 UNL     1      65.973  -5.553 -20.886  1.00  0.00    -0.025 A 
HETATM   22  C17 UNL     1      63.316  -6.351 -21.255  1.00  0.00     0.001 A 
HETATM   23  C18 UNL     1      64.350  -7.200 -21.630  1.00  0.00     0.001 A 
HETATM   24  C19 UNL     1      65.624  -6.771 -21.432  1.00  0.00     0.012 A 
HETATM   25  C21 UNL     1      67.287  -5.162 -20.705  1.00  0.00     0.032 A 
ENDBRANCH  15  16
ENDBRANCH  13  14
TORSDOF 2
ENDMDL
MODEL 2
REMARK VINA RESULT: -9.338251319      1.956      9.255
REMARK  2 active torsions:
REMARK  status: ('A' for Active; 'I' for Inactive)
REMARK    1  A    between atoms: C9_13  and  C10_14 
REMARK    2  A    between atoms: C11_15  and  C12_16 
ROOT
HETATM    1  C1  UNL     1      67.010  -1.979 -19.217  1.00  0.00     0.071 C 
HETATM    2  C2  UNL     1      66.695  -3.299 -19.844  1.00  0.00     0.041 A 
HETATM    3  N1  UNL     1      65.430  -3.721 -20.020  1.00  0.00    -0.356 N 
ATOM      4  H1  UNL     1      64.667  -3.118 -19.714  1.00  0.00     0.166 HD
HETATM    5  C3  UNL     1      65.128  -4.913 -20.587  1.00  0.00     0.059 A 
HETATM    6  C4  UNL     1      63.829  -5.333 -20.762  1.00  0.00     0.032 A 
HETATM    7  C5  UNL     1      63.497  -6.549 -21.338  1.00  0.00     0.002 A 
HETATM    8  C6  UNL     1      64.551  -7.351 -21.745  1.00  0.00     0.002 A 
HETATM    9  C7  UNL     1      65.866  -6.948 -21.578  1.00  0.00     0.032 A 
HETATM   10  C8  UNL     1      66.162  -5.726 -20.999  1.00  0.00     0.060 A 
HETATM   11  N2  UNL     1      67.446  -5.321 -20.830  1.00  0.00    -0.346 N 
ATOM     12  H2  UNL     1      68.210  -5.923 -21.135  1.00  0.00     0.167 HD
HETATM   13  C9  UNL     1      67.718  -4.131 -20.265  1.00  0.00     0.110 A 
ENDROOT
BRANCH  13  14
HETATM   14  C10 UNL     1      69.085  -3.679 -20.076  1.00  0.00    -0.041 C 
HETATM   15  C11 UNL     1      70.229  -3.323 -19.922  1.00  0.00    -0.060 C 
BRANCH  15  16
HETATM   16  C12 UNL     1      71.600  -2.923 -19.739  1.00  0.00     0.018 A 
HETATM   17  C13 UNL     1      72.641  -3.580 -20.374  1.00  0.00     0.021 A 
HETATM   18  C14 UNL     1      73.955  -3.155 -20.164  1.00  0.00     0.013 A 
HETATM   19  C15 UNL     1      74.237  -2.093 -19.336  1.00  0.00    -0.026 A 
HETATM   20  C16 UNL     1      75.547  -1.688 -19.143  1.00  0.00     0.012 A 
HETATM   21  C20 UNL     1      73.169  -1.449 -18.709  1.00  0.00    -0.025 A 
HETATM   22  C17 UNL     1      75.812  -0.619 -18.308  1.00  0.00     0.001 A 
HETATM   23  C18 UNL     1      74.774   0.047 -17.666  1.00  0.00     0.001 A 
HETATM   24  C19 UNL     1      73.508  -0.391 -17.890  1.00  0.00     0.012 A 
HETATM   25  C21 UNL     1      71.863  -1.856 -18.905  1.00  0.00     0.032 A 
ENDBRANCH  15  16
ENDBRANCH  13  14
TORSDOF 2
ENDMDL
MODEL 3
REMARK VINA RESULT: -9.216166960      2.064      9.102
REMARK  2 active torsions:
REMARK  status: ('A' for Active; 'I' for Inactive)
REMARK    1  A    between atoms: C9_13  and  C10_14 
REMARK    2  A    between atoms: C11_15  and  C12_16 
ROOT
HETATM    1  C1  UNL     1      66.457  -1.740 -19.091  1.00  0.00     0.071 C 
HETATM    2  C2  UNL     1      66.313  -3.083 -19.731  1.00  0.00     0.041 A 
HETATM    3  N1  UNL     1      65.109  -3.635 -19.968  1.00  0.00    -0.356 N 
ATOM      4  H1  UNL     1      64.273  -3.116 -19.702  1.00  0.00     0.166 HD
HETATM    5  C3  UNL     1      64.962  -4.851 -20.548  1.00  0.00     0.059 A 
HETATM    6  C4  UNL     1      63.725  -5.404 -20.785  1.00  0.00     0.032 A 
HETATM    7  C5  UNL     1      63.550  -6.645 -21.375  1.00  0.00     0.002 A 
HETATM    8  C6  UNL     1      64.701  -7.331 -21.728  1.00  0.00     0.002 A 
HETATM    9  C7  UNL     1      65.957  -6.793 -21.497  1.00  0.00     0.032 A 
HETATM   10  C8  UNL     1      66.095  -5.550 -20.906  1.00  0.00     0.060 A 
HETATM   11  N2  UNL     1      67.319  -5.012 -20.675  1.00  0.00    -0.346 N 
ATOM     12  H2  UNL     1      68.157  -5.530 -20.940  1.00  0.00     0.167 HD
HETATM   13  C9  UNL     1      67.437  -3.802 -20.099  1.00  0.00     0.110 A 
ENDROOT
BRANCH  13  14
HETATM   14  C10 UNL     1      68.738  -3.211 -19.843  1.00  0.00    -0.041 C 
HETATM   15  C11 UNL     1      69.827  -2.737 -19.622  1.00  0.00    -0.060 C 
BRANCH  15  16
HETATM   16  C12 UNL     1      71.130  -2.193 -19.345  1.00  0.00     0.018 A 
HETATM   17  C13 UNL     1      71.289  -0.967 -18.718  1.00  0.00     0.021 A 
HETATM   18  C14 UNL     1      72.575  -0.481 -18.470  1.00  0.00     0.013 A 
HETATM   19  C15 UNL     1      73.692  -1.197 -18.835  1.00  0.00    -0.026 A 
HETATM   20  C16 UNL     1      74.957  -0.697 -18.579  1.00  0.00     0.012 A 
HETATM   21  C20 UNL     1      73.502  -2.429 -19.465  1.00  0.00    -0.025 A 
HETATM   22  C17 UNL     1      76.066  -1.430 -18.954  1.00  0.00     0.001 A 
HETATM   23  C18 UNL     1      75.918  -2.661 -19.583  1.00  0.00     0.001 A 
HETATM   24  C19 UNL     1      74.654  -3.105 -19.810  1.00  0.00     0.012 A 
HETATM   25  C21 UNL     1      72.237  -2.926 -19.719  1.00  0.00     0.032 A 
ENDBRANCH  15  16
ENDBRANCH  13  14
TORSDOF 2
ENDMDL
MODEL 4
REMARK VINA RESULT: -9.093021436      1.025      1.911
REMARK  2 active torsions:
REMARK  status: ('A' for Active; 'I' for Inactive)
REMARK    1  A    between atoms: C9_13  and  C10_14 
REMARK    2  A    between atoms: C11_15  and  C12_16 
ROOT
HETATM    1  C1  UNL     1      70.401  -0.335 -18.582  1.00  0.00     0.071 C 
HETATM    2  C2  UNL     1      71.629  -1.115 -18.926  1.00  0.00     0.041 A 
HETATM    3  N1  UNL     1      72.865  -0.623 -18.724  1.00  0.00    -0.356 N 
ATOM      4  H1  UNL     1      72.961   0.310 -18.324  1.00  0.00     0.166 HD
HETATM    5  C3  UNL     1      73.988  -1.317 -19.030  1.00  0.00     0.059 A 
HETATM    6  C4  UNL     1      75.247  -0.803 -18.818  1.00  0.00     0.032 A 
HETATM    7  C5  UNL     1      76.409  -1.494 -19.124  1.00  0.00     0.002 A 
HETATM    8  C6  UNL     1      76.253  -2.759 -19.668  1.00  0.00     0.002 A 
HETATM    9  C7  UNL     1      74.995  -3.295 -19.891  1.00  0.00     0.032 A 
HETATM   10  C8  UNL     1      73.855  -2.577 -19.572  1.00  0.00     0.060 A 
HETATM   11  N2  UNL     1      72.618  -3.091 -19.785  1.00  0.00    -0.346 N 
ATOM     12  H2  UNL     1      72.520  -4.024 -20.187  1.00  0.00     0.167 HD
HETATM   13  C9  UNL     1      71.519  -2.382 -19.471  1.00  0.00     0.110 A 
ENDROOT
BRANCH  13  14
HETATM   14  C10 UNL     1      70.187  -2.915 -19.692  1.00  0.00    -0.041 C 
HETATM   15  C11 UNL     1      69.071  -3.340 -19.874  1.00  0.00    -0.060 C 
BRANCH  15  16
HETATM   16  C12 UNL     1      67.731  -3.824 -20.085  1.00  0.00     0.018 A 
HETATM   17  C13 UNL     1      66.623  -3.085 -19.703  1.00  0.00     0.021 A 
HETATM   18  C14 UNL     1      65.342  -3.596 -19.929  1.00  0.00     0.013 A 
HETATM   19  C15 UNL     1      65.159  -4.823 -20.525  1.00  0.00    -0.026 A 
HETATM   20  C16 UNL     1      63.881  -5.311 -20.740  1.00  0.00     0.012 A 
HETATM   21  C20 UNL     1      66.294  -5.546 -20.899  1.00  0.00    -0.025 A 
HETATM   22  C17 UNL     1      63.716  -6.545 -21.339  1.00  0.00     0.001 A 
HETATM   23  C18 UNL     1      64.822  -7.293 -21.725  1.00  0.00     0.001 A 
HETATM   24  C19 UNL     1      66.053  -6.769 -21.492  1.00  0.00     0.012 A 
HETATM   25  C21 UNL     1      67.568  -5.056 -20.683  1.00  0.00     0.032 A 
ENDBRANCH  15  16
ENDBRANCH  13  14
TORSDOF 2
ENDMDL
MODEL 5
REMARK VINA RESULT: -8.882060525      2.274      9.170
REMARK  2 active torsions:
REMARK  status: ('A' for Active; 'I' for Inactive)
REMARK    1  A    between atoms: C9_13  and  C10_14 
REMARK    2  A    between atoms: C11_15  and  C12_16 
ROOT
HETATM    1  C1  UNL     1      67.394  -1.974 -19.134  1.00  0.00     0.071 C 
HETATM    2  C2  UNL     1      67.026  -3.252 -19.815  1.00  0.00     0.041 A 
HETATM    3  N1  UNL     1      65.750  -3.669 -19.908  1.00  0.00    -0.356 N 
ATOM      4  H1  UNL     1      65.016  -3.092 -19.498  1.00  0.00     0.166 HD
HETATM    5  C3  UNL     1      65.400  -4.825 -20.522  1.00  0.00     0.059 A 
HETATM    6  C4  UNL     1      64.091  -5.240 -20.610  1.00  0.00     0.032 A 
HETATM    7  C5  UNL     1      63.709  -6.418 -21.232  1.00  0.00     0.002 A 
HETATM    8  C6  UNL     1      64.724  -7.186 -21.781  1.00  0.00     0.002 A 
HETATM    9  C7  UNL     1      66.048  -6.787 -21.703  1.00  0.00     0.032 A 
HETATM   10  C8  UNL     1      66.394  -5.604 -21.074  1.00  0.00     0.060 A 
HETATM   11  N2  UNL     1      67.687  -5.202 -20.992  1.00  0.00    -0.346 N 
ATOM     12  H2  UNL     1      68.423  -5.779 -21.400  1.00  0.00     0.167 HD
HETATM   13  C9  UNL     1      68.008  -4.050 -20.377  1.00  0.00     0.110 A 
ENDROOT
BRANCH  13  14
HETATM   14  C10 UNL     1      69.385  -3.604 -20.279  1.00  0.00    -0.041 C 
HETATM   15  C11 UNL     1      70.530  -3.222 -20.214  1.00  0.00    -0.060 C 
BRANCH  15  16
HETATM   16  C12 UNL     1      71.892  -2.757 -20.162  1.00  0.00     0.018 A 
HETATM   17  C13 UNL     1      72.690  -2.968 -19.049  1.00  0.00     0.021 A 
HETATM   18  C14 UNL     1      74.006  -2.498 -19.046  1.00  0.00     0.013 A 
HETATM   19  C15 UNL     1      74.527  -1.828 -20.129  1.00  0.00    -0.026 A 
HETATM   20  C16 UNL     1      75.834  -1.371 -20.104  1.00  0.00     0.012 A 
HETATM   21  C20 UNL     1      73.700  -1.630 -21.237  1.00  0.00    -0.025 A 
HETATM   22  C17 UNL     1      76.340  -0.700 -21.202  1.00  0.00     0.001 A 
HETATM   23  C18 UNL     1      75.547  -0.484 -22.322  1.00  0.00     0.001 A 
HETATM   24  C19 UNL     1      74.272  -0.953 -22.294  1.00  0.00     0.012 A 
HETATM   25  C21 UNL     1      72.396  -2.088 -21.257  1.00  0.00     0.032 A 
ENDBRANCH  15  16
ENDBRANCH  13  14
TORSDOF 2
ENDMDL
