MODEL 1
REMARK VINA RESULT: -11.101627904      0.000      0.000
REMARK  15 active torsions:
REMARK  status: ('A' for Active; 'I' for Inactive)
REMARK    1  A    between atoms: C2_2  and  C3_3 
REMARK    2  A    between atoms: C3_3  and  C4_4 
REMARK    3  A    between atoms: C4_4  and  C5_5 
REMARK    4  A    between atoms: C5_5  and  C6_6 
REMARK    5  A    between atoms: C5_5  and  N3_45 
REMARK    6  A    between atoms: C6_6  and  C7_7 
REMARK       I    between atoms: C7_7  and  N1_9 
REMARK    7  A    between atoms: N1_9  and  C8_11 
REMARK    8  A    between atoms: C8_11  and  C9_12 
REMARK    9  A    between atoms: C17_20  and  C19_22 
REMARK   10  A    between atoms: C19_22  and  C20_23 
REMARK   11  A    between atoms: C26_33  and  O3_34 
REMARK   12  A    between atoms: C27_36  and  O4_37 
REMARK   13  A    between atoms: C28_39  and  O5_40 
REMARK       I    between atoms: N3_45  and  C32_47 
REMARK   14  A    between atoms: C32_47  and  C33_49 
REMARK   15  A    between atoms: C33_49  and  C34_50 
ROOT
HETATM    1  C9  UNL     1      42.782  34.909  43.077  1.00  0.00     0.008 C 
HETATM    2  C10 UNL     1      42.387  33.675  42.246  1.00  0.00     0.013 C 
HETATM    3  C11 UNL     1      43.603  33.329  41.427  1.00  0.00     0.007 C 
HETATM    4  C12 UNL     1      44.073  34.552  40.763  1.00  0.00    -0.035 C 
HETATM    5  C13 UNL     1      44.881  34.460  39.545  1.00  0.00     0.010 C 
HETATM    6  C14 UNL     1      44.695  33.241  38.729  1.00  0.00     0.006 C 
HETATM    7  C15 UNL     1      43.495  32.405  39.101  1.00  0.00    -0.006 C 
HETATM    8  C16 UNL     1      42.257  33.015  38.551  1.00  0.00     0.011 C 
HETATM    9  C17 UNL     1      43.469  32.085  40.574  1.00  0.00    -0.016 C 
HETATM   10  C18 UNL     1      44.746  31.267  40.795  1.00  0.00     0.020 C 
HETATM   11  C29 UNL     1      44.839  35.388  41.819  1.00  0.00     0.015 C 
HETATM   12  C30 UNL     1      43.478  35.916  42.212  1.00  0.00    -0.007 C 
HETATM   13  C31 UNL     1      43.103  35.706  40.773  1.00  0.00     0.015 C 
ENDROOT
BRANCH   9  14
HETATM   14  C19 UNL     1      42.326  31.324  41.049  1.00  0.00     0.018 C 
BRANCH  14  15
HETATM   15  C20 UNL     1      42.393  29.930  41.525  1.00  0.00     0.078 C 
HETATM   16  O2  UNL     1      42.021  29.718  42.833  1.00  0.00    -0.312 OA
HETATM   17  C21 UNL     1      42.232  28.493  43.346  1.00  0.00     0.259 C 
HETATM   18  C22 UNL     1      43.664  28.089  43.504  1.00  0.00     0.072 C 
HETATM   19  N2  UNL     1      41.637  28.497  44.700  1.00  0.00    -0.040 N 
HETATM   20  C26 UNL     1      41.411  27.494  42.573  1.00  0.00     0.213 C 
HETATM   21  C23 UNL     1      43.911  27.465  44.868  1.00  0.00     0.007 C 
HETATM   22  C24 UNL     1      43.633  28.447  45.993  1.00  0.00     0.028 C 
HETATM   23  C25 UNL     1      42.517  29.357  45.492  1.00  0.00     0.236 C 
ATOM     24  H22 UNL     1      40.656  28.775  44.721  1.00  0.00     0.280 HD
ATOM     25  H21 UNL     1      41.501  27.567  45.095  1.00  0.00     0.280 HD
HETATM   26  C27 UNL     1      41.794  27.507  41.138  1.00  0.00     0.186 C 
HETATM   27  C28 UNL     1      42.064  28.851  40.553  1.00  0.00     0.206 C 
BRANCH  20  28
HETATM   28  O3  UNL     1      41.512  26.226  43.141  1.00  0.00    -0.388 OA
ATOM     29  H3  UNL     1      41.078  26.200  43.985  1.00  0.00     0.210 HD
ENDBRANCH  20  28
BRANCH  26  30
HETATM   30  O4  UNL     1      40.768  26.841  40.428  1.00  0.00    -0.390 OA
ATOM     31  H4  UNL     1      41.127  26.013  40.131  1.00  0.00     0.210 HD
ENDBRANCH  26  30
BRANCH  27  32
HETATM   32  O5  UNL     1      43.077  28.700  39.569  1.00  0.00    -0.386 OA
ATOM     33  H5  UNL     1      42.952  27.913  39.052  1.00  0.00     0.210 HD
ENDBRANCH  27  32
ENDBRANCH  14  15
ENDBRANCH   9  14
BRANCH   1  34
HETATM   34  C8  UNL     1      43.558  34.481  44.280  1.00  0.00     0.127 C 
BRANCH  34  35
HETATM   35  N1  UNL     1      42.785  34.077  45.391  1.00  0.00    -0.361 N 
HETATM   36  C7  UNL     1      42.246  35.013  46.321  1.00  0.00     0.219 C 
HETATM   37  O1  UNL     1      42.446  36.242  46.163  1.00  0.00    -0.274 OA
ATOM     38  H1  UNL     1      42.606  33.083  45.533  1.00  0.00     0.162 HD
BRANCH  36  39
HETATM   39  C6  UNL     1      41.449  34.509  47.468  1.00  0.00     0.128 C 
BRANCH  39  40
HETATM   40  C5  UNL     1      40.723  35.619  48.252  1.00  0.00     0.093 C 
BRANCH  40  41
HETATM   41  C4  UNL     1      39.320  35.246  48.392  1.00  0.00     0.026 C 
BRANCH  41  42
HETATM   42  C3  UNL     1      38.371  36.106  49.115  1.00  0.00     0.002 C 
BRANCH  42  43
HETATM   43  C2  UNL     1      38.327  36.006  50.589  1.00  0.00    -0.004 C 
HETATM   44  C1  UNL     1      38.319  37.431  51.188  1.00  0.00     0.005 C 
ENDBRANCH  42  43
ENDBRANCH  41  42
ENDBRANCH  40  41
BRANCH  40  45
HETATM   45  N3  UNL     1      41.478  36.068  49.359  1.00  0.00    -0.356 N 
HETATM   46  C32 UNL     1      42.076  37.322  49.537  1.00  0.00     0.218 C 
HETATM   47  O6  UNL     1      42.043  38.265  48.720  1.00  0.00    -0.274 OA
ATOM     48  H3  UNL     1      41.603  35.399  50.119  1.00  0.00     0.162 HD
BRANCH  46  49
HETATM   49  C33 UNL     1      42.827  37.579  50.813  1.00  0.00     0.106 C 
BRANCH  49  50
HETATM   50  C34 UNL     1      42.335  38.831  51.484  1.00  0.00    -0.014 C 
HETATM   51  C35 UNL     1      43.538  39.616  51.960  1.00  0.00     0.010 C 
HETATM   52  C36 UNL     1      41.435  38.524  52.659  1.00  0.00     0.010 C 
ENDBRANCH  49  50
ENDBRANCH  46  49
ENDBRANCH  40  45
ENDBRANCH  39  40
ENDBRANCH  36  39
ENDBRANCH  34  35
ENDBRANCH   1  34
TORSDOF 15
ENDMDL
MODEL 2
REMARK VINA RESULT: -10.187916737      0.924      2.250
REMARK  15 active torsions:
REMARK  status: ('A' for Active; 'I' for Inactive)
REMARK    1  A    between atoms: C2_2  and  C3_3 
REMARK    2  A    between atoms: C3_3  and  C4_4 
REMARK    3  A    between atoms: C4_4  and  C5_5 
REMARK    4  A    between atoms: C5_5  and  C6_6 
REMARK    5  A    between atoms: C5_5  and  N3_45 
REMARK    6  A    between atoms: C6_6  and  C7_7 
REMARK       I    between atoms: C7_7  and  N1_9 
REMARK    7  A    between atoms: N1_9  and  C8_11 
REMARK    8  A    between atoms: C8_11  and  C9_12 
REMARK    9  A    between atoms: C17_20  and  C19_22 
REMARK   10  A    between atoms: C19_22  and  C20_23 
REMARK   11  A    between atoms: C26_33  and  O3_34 
REMARK   12  A    between atoms: C27_36  and  O4_37 
REMARK   13  A    between atoms: C28_39  and  O5_40 
REMARK       I    between atoms: N3_45  and  C32_47 
REMARK   14  A    between atoms: C32_47  and  C33_49 
REMARK   15  A    between atoms: C33_49  and  C34_50 
ROOT
HETATM    1  C9  UNL     1      41.903  34.414  43.326  1.00  0.00     0.008 C 
HETATM    2  C10 UNL     1      41.789  33.276  42.294  1.00  0.00     0.013 C 
HETATM    3  C11 UNL     1      43.165  33.124  41.702  1.00  0.00     0.007 C 
HETATM    4  C12 UNL     1      43.640  34.452  41.293  1.00  0.00    -0.035 C 
HETATM    5  C13 UNL     1      44.671  34.575  40.260  1.00  0.00     0.010 C 
HETATM    6  C14 UNL     1      44.757  33.465  39.287  1.00  0.00     0.006 C 
HETATM    7  C15 UNL     1      43.589  32.509  39.310  1.00  0.00    -0.006 C 
HETATM    8  C16 UNL     1      42.429  33.103  38.598  1.00  0.00     0.011 C 
HETATM    9  C17 UNL     1      43.311  31.996  40.701  1.00  0.00    -0.016 C 
HETATM   10  C18 UNL     1      44.592  31.243  41.078  1.00  0.00     0.020 C 
HETATM   11  C29 UNL     1      44.110  35.191  42.571  1.00  0.00     0.015 C 
HETATM   12  C30 UNL     1      42.657  35.570  42.741  1.00  0.00    -0.007 C 
HETATM   13  C31 UNL     1      42.585  35.527  41.241  1.00  0.00     0.015 C 
ENDROOT
BRANCH   9  14
HETATM   14  C19 UNL     1      42.173  31.105  40.845  1.00  0.00     0.018 C 
BRANCH  14  15
HETATM   15  C20 UNL     1      42.255  29.724  41.354  1.00  0.00     0.078 C 
HETATM   16  O2  UNL     1      41.945  29.550  42.684  1.00  0.00    -0.312 OA
HETATM   17  C21 UNL     1      42.174  28.338  43.220  1.00  0.00     0.259 C 
HETATM   18  C22 UNL     1      43.610  27.929  43.320  1.00  0.00     0.072 C 
HETATM   19  N2  UNL     1      41.645  28.382  44.600  1.00  0.00    -0.040 N 
HETATM   20  C26 UNL     1      41.312  27.323  42.514  1.00  0.00     0.213 C 
HETATM   21  C23 UNL     1      43.918  27.341  44.688  1.00  0.00     0.007 C 
HETATM   22  C24 UNL     1      43.700  28.355  45.797  1.00  0.00     0.028 C 
HETATM   23  C25 UNL     1      42.566  29.257  45.325  1.00  0.00     0.236 C 
ATOM     24  H22 UNL     1      40.668  28.667  44.660  1.00  0.00     0.280 HD
ATOM     25  H21 UNL     1      41.523  27.464  45.026  1.00  0.00     0.280 HD
HETATM   26  C27 UNL     1      41.626  27.296  41.063  1.00  0.00     0.186 C 
HETATM   27  C28 UNL     1      41.875  28.622  40.429  1.00  0.00     0.206 C 
BRANCH  20  28
HETATM   28  O3  UNL     1      41.433  26.071  43.111  1.00  0.00    -0.388 OA
ATOM     29  H3  UNL     1      42.347  25.841  43.228  1.00  0.00     0.210 HD
ENDBRANCH  20  28
BRANCH  26  30
HETATM   30  O4  UNL     1      40.564  26.617  40.421  1.00  0.00    -0.390 OA
ATOM     31  H4  UNL     1      40.143  27.242  39.843  1.00  0.00     0.210 HD
ENDBRANCH  26  30
BRANCH  27  32
HETATM   32  O5  UNL     1      42.838  28.437  39.402  1.00  0.00    -0.386 OA
ATOM     33  H5  UNL     1      42.514  27.871  38.712  1.00  0.00     0.210 HD
ENDBRANCH  27  32
ENDBRANCH  14  15
ENDBRANCH   9  14
BRANCH   1  34
HETATM   34  C8  UNL     1      42.471  33.883  44.602  1.00  0.00     0.127 C 
BRANCH  34  35
HETATM   35  N1  UNL     1      42.722  34.847  45.603  1.00  0.00    -0.361 N 
HETATM   36  C7  UNL     1      41.698  35.321  46.474  1.00  0.00     0.219 C 
HETATM   37  O1  UNL     1      40.529  34.876  46.370  1.00  0.00    -0.274 OA
ATOM     38  H1  UNL     1      43.667  35.215  45.707  1.00  0.00     0.162 HD
BRANCH  36  39
HETATM   39  C6  UNL     1      42.040  36.341  47.497  1.00  0.00     0.128 C 
BRANCH  39  40
HETATM   40  C5  UNL     1      42.023  35.800  48.939  1.00  0.00     0.093 C 
BRANCH  40  41
HETATM   41  C4  UNL     1      43.047  36.497  49.709  1.00  0.00     0.026 C 
BRANCH  41  42
HETATM   42  C3  UNL     1      42.691  37.366  50.841  1.00  0.00     0.002 C 
BRANCH  42  43
HETATM   43  C2  UNL     1      42.351  38.776  50.555  1.00  0.00    -0.004 C 
HETATM   44  C1  UNL     1      41.348  39.275  51.619  1.00  0.00     0.005 C 
ENDBRANCH  42  43
ENDBRANCH  41  42
ENDBRANCH  40  41
BRANCH  40  45
HETATM   45  N3  UNL     1      40.708  35.648  49.435  1.00  0.00    -0.356 N 
HETATM   46  C32 UNL     1      39.625  36.522  49.276  1.00  0.00     0.218 C 
HETATM   47  O6  UNL     1      39.652  37.609  48.661  1.00  0.00    -0.274 OA
ATOM     48  H3  UNL     1      40.525  34.801  49.972  1.00  0.00     0.162 HD
BRANCH  46  49
HETATM   49  C33 UNL     1      38.306  36.142  49.887  1.00  0.00     0.106 C 
BRANCH  49  50
HETATM   50  C34 UNL     1      38.330  36.332  51.378  1.00  0.00    -0.014 C 
HETATM   51  C35 UNL     1      37.372  35.338  51.997  1.00  0.00     0.010 C 
HETATM   52  C36 UNL     1      37.927  37.735  51.774  1.00  0.00     0.010 C 
ENDBRANCH  49  50
ENDBRANCH  46  49
ENDBRANCH  40  45
ENDBRANCH  39  40
ENDBRANCH  36  39
ENDBRANCH  34  35
ENDBRANCH   1  34
TORSDOF 15
ENDMDL
MODEL 3
REMARK VINA RESULT: -9.927165570      1.497      2.424
REMARK  15 active torsions:
REMARK  status: ('A' for Active; 'I' for Inactive)
REMARK    1  A    between atoms: C2_2  and  C3_3 
REMARK    2  A    between atoms: C3_3  and  C4_4 
REMARK    3  A    between atoms: C4_4  and  C5_5 
REMARK    4  A    between atoms: C5_5  and  C6_6 
REMARK    5  A    between atoms: C5_5  and  N3_45 
REMARK    6  A    between atoms: C6_6  and  C7_7 
REMARK       I    between atoms: C7_7  and  N1_9 
REMARK    7  A    between atoms: N1_9  and  C8_11 
REMARK    8  A    between atoms: C8_11  and  C9_12 
REMARK    9  A    between atoms: C17_20  and  C19_22 
REMARK   10  A    between atoms: C19_22  and  C20_23 
REMARK   11  A    between atoms: C26_33  and  O3_34 
REMARK   12  A    between atoms: C27_36  and  O4_37 
REMARK   13  A    between atoms: C28_39  and  O5_40 
REMARK       I    between atoms: N3_45  and  C32_47 
REMARK   14  A    between atoms: C32_47  and  C33_49 
REMARK   15  A    between atoms: C33_49  and  C34_50 
ROOT
HETATM    1  C9  UNL     1      44.443  34.265  42.754  1.00  0.00     0.008 C 
HETATM    2  C10 UNL     1      43.671  33.146  42.029  1.00  0.00     0.013 C 
HETATM    3  C11 UNL     1      44.670  32.493  41.110  1.00  0.00     0.007 C 
HETATM    4  C12 UNL     1      45.345  33.546  40.342  1.00  0.00    -0.035 C 
HETATM    5  C13 UNL     1      45.967  33.228  39.054  1.00  0.00     0.010 C 
HETATM    6  C14 UNL     1      45.403  32.073  38.324  1.00  0.00     0.006 C 
HETATM    7  C15 UNL     1      44.085  31.568  38.857  1.00  0.00    -0.006 C 
HETATM    8  C16 UNL     1      42.979  32.450  38.405  1.00  0.00     0.011 C 
HETATM    9  C17 UNL     1      44.145  31.299  40.339  1.00  0.00    -0.016 C 
HETATM   10  C18 UNL     1      45.202  30.197  40.471  1.00  0.00     0.020 C 
HETATM   11  C29 UNL     1      46.403  34.193  41.271  1.00  0.00     0.015 C 
HETATM   12  C30 UNL     1      45.262  35.048  41.773  1.00  0.00    -0.007 C 
HETATM   13  C31 UNL     1      44.691  34.903  40.391  1.00  0.00     0.015 C 
ENDROOT
BRANCH   9  14
HETATM   14  C19 UNL     1      42.912  30.854  40.965  1.00  0.00     0.018 C 
BRANCH  14  15
HETATM   15  C20 UNL     1      42.645  29.468  41.389  1.00  0.00     0.078 C 
HETATM   16  O2  UNL     1      42.414  29.279  42.732  1.00  0.00    -0.312 OA
HETATM   17  C21 UNL     1      42.337  28.012  43.176  1.00  0.00     0.259 C 
HETATM   18  C22 UNL     1      43.603  27.216  43.102  1.00  0.00     0.072 C 
HETATM   19  N2  UNL     1      41.963  28.088  44.604  1.00  0.00    -0.040 N 
HETATM   20  C26 UNL     1      41.167  27.334  42.511  1.00  0.00     0.213 C 
HETATM   21  C23 UNL     1      43.850  26.458  44.396  1.00  0.00     0.007 C 
HETATM   22  C24 UNL     1      44.022  27.399  45.575  1.00  0.00     0.028 C 
HETATM   23  C25 UNL     1      43.152  28.614  45.274  1.00  0.00     0.236 C 
ATOM     24  H22 UNL     1      41.114  28.625  44.782  1.00  0.00     0.280 HD
ATOM     25  H21 UNL     1      41.624  27.207  44.991  1.00  0.00     0.280 HD
HETATM   26  C27 UNL     1      41.335  27.338  41.035  1.00  0.00     0.186 C 
HETATM   27  C28 UNL     1      41.891  28.591  40.451  1.00  0.00     0.206 C 
BRANCH  20  28
HETATM   28  O3  UNL     1      40.982  26.053  43.024  1.00  0.00    -0.388 OA
ATOM     29  H3  UNL     1      40.104  25.953  43.373  1.00  0.00     0.210 HD
ENDBRANCH  20  28
BRANCH  26  30
HETATM   30  O4  UNL     1      40.073  27.032  40.474  1.00  0.00    -0.390 OA
ATOM     31  H4  UNL     1      39.991  27.543  39.678  1.00  0.00     0.210 HD
ENDBRANCH  26  30
BRANCH  27  32
HETATM   32  O5  UNL     1      42.672  28.232  39.320  1.00  0.00    -0.386 OA
ATOM     33  H5  UNL     1      43.602  28.322  39.490  1.00  0.00     0.210 HD
ENDBRANCH  27  32
ENDBRANCH  14  15
ENDBRANCH   9  14
BRANCH   1  34
HETATM   34  C8  UNL     1      45.220  33.688  43.892  1.00  0.00     0.127 C 
BRANCH  34  35
HETATM   35  N1  UNL     1      44.697  33.946  45.178  1.00  0.00    -0.361 N 
HETATM   36  C7  UNL     1      43.808  33.043  45.831  1.00  0.00     0.219 C 
HETATM   37  O1  UNL     1      43.470  31.974  45.265  1.00  0.00    -0.274 OA
ATOM     38  H1  UNL     1      44.966  34.806  45.657  1.00  0.00     0.162 HD
BRANCH  36  39
HETATM   39  C6  UNL     1      43.295  33.388  47.180  1.00  0.00     0.128 C 
BRANCH  39  40
HETATM   40  C5  UNL     1      42.540  34.730  47.231  1.00  0.00     0.093 C 
BRANCH  40  41
HETATM   41  C4  UNL     1      41.351  34.625  46.394  1.00  0.00     0.026 C 
BRANCH  41  42
HETATM   42  C3  UNL     1      41.404  34.914  44.953  1.00  0.00     0.002 C 
BRANCH  42  43
HETATM   43  C2  UNL     1      40.654  34.028  44.038  1.00  0.00    -0.004 C 
HETATM   44  C1  UNL     1      40.396  34.778  42.713  1.00  0.00     0.005 C 
ENDBRANCH  42  43
ENDBRANCH  41  42
ENDBRANCH  40  41
BRANCH  40  45
HETATM   45  N3  UNL     1      42.472  35.252  48.543  1.00  0.00    -0.356 N 
HETATM   46  C32 UNL     1      42.279  36.585  48.926  1.00  0.00     0.218 C 
HETATM   47  O6  UNL     1      42.139  37.552  48.149  1.00  0.00    -0.274 OA
ATOM     48  H3  UNL     1      42.577  34.578  49.301  1.00  0.00     0.162 HD
BRANCH  46  49
HETATM   49  C33 UNL     1      42.230  36.905  50.394  1.00  0.00     0.106 C 
BRANCH  49  50
HETATM   50  C34 UNL     1      42.139  38.388  50.618  1.00  0.00    -0.014 C 
HETATM   51  C35 UNL     1      43.243  38.791  51.570  1.00  0.00     0.010 C 
HETATM   52  C36 UNL     1      40.801  38.789  51.198  1.00  0.00     0.010 C 
ENDBRANCH  49  50
ENDBRANCH  46  49
ENDBRANCH  40  45
ENDBRANCH  39  40
ENDBRANCH  36  39
ENDBRANCH  34  35
ENDBRANCH   1  34
TORSDOF 15
ENDMDL
MODEL 4
REMARK VINA RESULT: -9.843733387      1.072      2.257
REMARK  15 active torsions:
REMARK  status: ('A' for Active; 'I' for Inactive)
REMARK    1  A    between atoms: C2_2  and  C3_3 
REMARK    2  A    between atoms: C3_3  and  C4_4 
REMARK    3  A    between atoms: C4_4  and  C5_5 
REMARK    4  A    between atoms: C5_5  and  C6_6 
REMARK    5  A    between atoms: C5_5  and  N3_45 
REMARK    6  A    between atoms: C6_6  and  C7_7 
REMARK       I    between atoms: C7_7  and  N1_9 
REMARK    7  A    between atoms: N1_9  and  C8_11 
REMARK    8  A    between atoms: C8_11  and  C9_12 
REMARK    9  A    between atoms: C17_20  and  C19_22 
REMARK   10  A    between atoms: C19_22  and  C20_23 
REMARK   11  A    between atoms: C26_33  and  O3_34 
REMARK   12  A    between atoms: C27_36  and  O4_37 
REMARK   13  A    between atoms: C28_39  and  O5_40 
REMARK       I    between atoms: N3_45  and  C32_47 
REMARK   14  A    between atoms: C32_47  and  C33_49 
REMARK   15  A    between atoms: C33_49  and  C34_50 
ROOT
HETATM    1  C9  UNL     1      42.867  35.239  43.085  1.00  0.00     0.008 C 
HETATM    2  C10 UNL     1      42.348  33.988  42.352  1.00  0.00     0.013 C 
HETATM    3  C11 UNL     1      43.518  33.466  41.560  1.00  0.00     0.007 C 
HETATM    4  C12 UNL     1      44.096  34.583  40.803  1.00  0.00    -0.035 C 
HETATM    5  C13 UNL     1      44.880  34.320  39.594  1.00  0.00     0.010 C 
HETATM    6  C14 UNL     1      44.570  33.066  38.874  1.00  0.00     0.006 C 
HETATM    7  C15 UNL     1      43.299  32.380  39.313  1.00  0.00    -0.006 C 
HETATM    8  C16 UNL     1      42.120  33.063  38.720  1.00  0.00     0.011 C 
HETATM    9  C17 UNL     1      43.257  32.178  40.806  1.00  0.00    -0.016 C 
HETATM   10  C18 UNL     1      44.452  31.260  41.087  1.00  0.00     0.020 C 
HETATM   11  C29 UNL     1      44.948  35.420  41.789  1.00  0.00     0.015 C 
HETATM   12  C30 UNL     1      43.648  36.104  42.144  1.00  0.00    -0.007 C 
HETATM   13  C31 UNL     1      43.241  35.822  40.725  1.00  0.00     0.015 C 
ENDROOT
BRANCH   9  14
HETATM   14  C19 UNL     1      42.051  31.569  41.341  1.00  0.00     0.018 C 
BRANCH  14  15
HETATM   15  C20 UNL     1      42.034  30.376  42.207  1.00  0.00     0.078 C 
HETATM   16  O2  UNL     1      42.392  29.188  41.611  1.00  0.00    -0.312 OA
HETATM   17  C21 UNL     1      42.222  28.061  42.323  1.00  0.00     0.259 C 
HETATM   18  C22 UNL     1      40.805  27.685  42.625  1.00  0.00     0.072 C 
HETATM   19  N2  UNL     1      42.792  26.963  41.514  1.00  0.00    -0.040 N 
HETATM   20  C26 UNL     1      43.097  28.124  43.548  1.00  0.00     0.213 C 
HETATM   21  C23 UNL     1      40.561  26.209  42.358  1.00  0.00     0.007 C 
HETATM   22  C24 UNL     1      40.779  25.859  40.896  1.00  0.00     0.028 C 
HETATM   23  C25 UNL     1      41.864  26.803  40.394  1.00  0.00     0.236 C 
ATOM     24  H22 UNL     1      43.761  27.115  41.232  1.00  0.00     0.280 HD
ATOM     25  H21 UNL     1      42.960  26.105  42.040  1.00  0.00     0.280 HD
HETATM   26  C27 UNL     1      42.738  29.301  44.381  1.00  0.00     0.186 C 
HETATM   27  C28 UNL     1      42.423  30.551  43.633  1.00  0.00     0.206 C 
BRANCH  20  28
HETATM   28  O3  UNL     1      43.038  26.929  44.260  1.00  0.00    -0.388 OA
ATOM     29  H3  UNL     1      43.848  26.778  44.732  1.00  0.00     0.210 HD
ENDBRANCH  20  28
BRANCH  26  30
HETATM   30  O4  UNL     1      43.803  29.506  45.290  1.00  0.00    -0.390 OA
ATOM     31  H4  UNL     1      43.419  29.802  46.106  1.00  0.00     0.210 HD
ENDBRANCH  26  30
BRANCH  27  32
HETATM   32  O5  UNL     1      41.435  31.258  44.368  1.00  0.00    -0.386 OA
ATOM     33  H5  UNL     1      41.823  31.856  44.997  1.00  0.00     0.210 HD
ENDBRANCH  27  32
ENDBRANCH  14  15
ENDBRANCH   9  14
BRANCH   1  34
HETATM   34  C8  UNL     1      43.611  34.831  44.316  1.00  0.00     0.127 C 
BRANCH  34  35
HETATM   35  N1  UNL     1      42.813  34.349  45.377  1.00  0.00    -0.361 N 
HETATM   36  C7  UNL     1      42.269  35.214  46.371  1.00  0.00     0.219 C 
HETATM   37  O1  UNL     1      42.486  36.449  46.317  1.00  0.00    -0.274 OA
ATOM     38  H1  UNL     1      42.619  33.349  45.434  1.00  0.00     0.162 HD
BRANCH  36  39
HETATM   39  C6  UNL     1      41.445  34.630  47.459  1.00  0.00     0.128 C 
BRANCH  39  40
HETATM   40  C5  UNL     1      40.724  35.682  48.322  1.00  0.00     0.093 C 
BRANCH  40  41
HETATM   41  C4  UNL     1      39.344  35.254  48.519  1.00  0.00     0.026 C 
BRANCH  41  42
HETATM   42  C3  UNL     1      38.343  36.154  49.112  1.00  0.00     0.002 C 
BRANCH  42  43
HETATM   43  C2  UNL     1      38.310  36.285  50.584  1.00  0.00    -0.004 C 
HETATM   44  C1  UNL     1      38.374  37.783  50.955  1.00  0.00     0.005 C 
ENDBRANCH  42  43
ENDBRANCH  41  42
ENDBRANCH  40  41
BRANCH  40  45
HETATM   45  N3  UNL     1      41.520  36.118  49.406  1.00  0.00    -0.356 N 
HETATM   46  C32 UNL     1      42.003  37.409  49.649  1.00  0.00     0.218 C 
HETATM   47  O6  UNL     1      41.809  38.407  48.925  1.00  0.00    -0.274 OA
ATOM     48  H3  UNL     1      41.773  35.407  50.091  1.00  0.00     0.162 HD
BRANCH  46  49
HETATM   49  C33 UNL     1      42.829  37.641  50.884  1.00  0.00     0.106 C 
BRANCH  49  50
HETATM   50  C34 UNL     1      42.428  38.917  51.568  1.00  0.00    -0.014 C 
HETATM   51  C35 UNL     1      43.684  39.613  52.045  1.00  0.00     0.010 C 
HETATM   52  C36 UNL     1      41.514  38.663  52.745  1.00  0.00     0.010 C 
ENDBRANCH  49  50
ENDBRANCH  46  49
ENDBRANCH  40  45
ENDBRANCH  39  40
ENDBRANCH  36  39
ENDBRANCH  34  35
ENDBRANCH   1  34
TORSDOF 15
ENDMDL
MODEL 5
REMARK VINA RESULT: -9.774184581      9.150     13.719
REMARK  15 active torsions:
REMARK  status: ('A' for Active; 'I' for Inactive)
REMARK    1  A    between atoms: C2_2  and  C3_3 
REMARK    2  A    between atoms: C3_3  and  C4_4 
REMARK    3  A    between atoms: C4_4  and  C5_5 
REMARK    4  A    between atoms: C5_5  and  C6_6 
REMARK    5  A    between atoms: C5_5  and  N3_45 
REMARK    6  A    between atoms: C6_6  and  C7_7 
REMARK       I    between atoms: C7_7  and  N1_9 
REMARK    7  A    between atoms: N1_9  and  C8_11 
REMARK    8  A    between atoms: C8_11  and  C9_12 
REMARK    9  A    between atoms: C17_20  and  C19_22 
REMARK   10  A    between atoms: C19_22  and  C20_23 
REMARK   11  A    between atoms: C26_33  and  O3_34 
REMARK   12  A    between atoms: C27_36  and  O4_37 
REMARK   13  A    between atoms: C28_39  and  O5_40 
REMARK       I    between atoms: N3_45  and  C32_47 
REMARK   14  A    between atoms: C32_47  and  C33_49 
REMARK   15  A    between atoms: C33_49  and  C34_50 
ROOT
HETATM    1  C9  UNL     1      39.917  38.171  49.685  1.00  0.00     0.008 C 
HETATM    2  C10 UNL     1      39.262  38.620  51.004  1.00  0.00     0.013 C 
HETATM    3  C11 UNL     1      39.354  37.434  51.929  1.00  0.00     0.007 C 
HETATM    4  C12 UNL     1      38.851  36.254  51.214  1.00  0.00    -0.035 C 
HETATM    5  C13 UNL     1      38.343  35.104  51.966  1.00  0.00     0.010 C 
HETATM    6  C14 UNL     1      37.815  35.389  53.317  1.00  0.00     0.006 C 
HETATM    7  C15 UNL     1      37.599  36.852  53.619  1.00  0.00    -0.006 C 
HETATM    8  C16 UNL     1      36.344  37.325  52.981  1.00  0.00     0.011 C 
HETATM    9  C17 UNL     1      38.831  37.672  53.330  1.00  0.00    -0.016 C 
HETATM   10  C18 UNL     1      39.883  37.106  54.289  1.00  0.00     0.020 C 
HETATM   11  C29 UNL     1      39.971  35.780  50.255  1.00  0.00     0.015 C 
HETATM   12  C30 UNL     1      39.421  36.811  49.296  1.00  0.00    -0.007 C 
HETATM   13  C31 UNL     1      38.092  36.542  49.944  1.00  0.00     0.015 C 
ENDROOT
BRANCH   9  14
HETATM   14  C19 UNL     1      38.715  39.105  53.540  1.00  0.00     0.018 C 
BRANCH  14  15
HETATM   15  C20 UNL     1      38.595  39.747  54.861  1.00  0.00     0.078 C 
HETATM   16  O2  UNL     1      39.777  40.056  55.495  1.00  0.00    -0.312 OA
HETATM   17  C21 UNL     1      39.706  40.483  56.767  1.00  0.00     0.259 C 
HETATM   18  C22 UNL     1      39.229  39.477  57.768  1.00  0.00     0.072 C 
HETATM   19  N2  UNL     1      41.079  40.861  57.162  1.00  0.00    -0.040 N 
HETATM   20  C26 UNL     1      38.930  41.775  56.804  1.00  0.00     0.213 C 
HETATM   21  C23 UNL     1      40.108  39.478  59.008  1.00  0.00     0.007 C 
HETATM   22  C24 UNL     1      41.540  39.090  58.682  1.00  0.00     0.028 C 
HETATM   23  C25 UNL     1      41.800  39.592  57.267  1.00  0.00     0.236 C 
ATOM     24  H22 UNL     1      41.518  41.538  56.539  1.00  0.00     0.280 HD
ATOM     25  H21 UNL     1      41.125  41.435  58.004  1.00  0.00     0.280 HD
HETATM   26  C27 UNL     1      37.560  41.573  56.266  1.00  0.00     0.186 C 
HETATM   27  C28 UNL     1      37.458  40.684  55.074  1.00  0.00     0.206 C 
BRANCH  20  28
HETATM   28  O3  UNL     1      38.925  42.312  58.089  1.00  0.00    -0.388 OA
ATOM     29  H3  UNL     1      39.596  42.979  58.177  1.00  0.00     0.210 HD
ENDBRANCH  20  28
BRANCH  26  30
HETATM   30  O4  UNL     1      37.030  42.855  55.991  1.00  0.00    -0.390 OA
ATOM     31  H4  UNL     1      36.324  42.737  55.366  1.00  0.00     0.210 HD
ENDBRANCH  26  30
BRANCH  27  32
HETATM   32  O5  UNL     1      36.216  39.999  55.150  1.00  0.00    -0.386 OA
ATOM     33  H5  UNL     1      35.501  40.587  55.365  1.00  0.00     0.210 HD
ENDBRANCH  27  32
ENDBRANCH  14  15
ENDBRANCH   9  14
BRANCH   1  34
HETATM   34  C8  UNL     1      41.403  38.282  49.795  1.00  0.00     0.127 C 
BRANCH  34  35
HETATM   35  N1  UNL     1      41.883  39.476  50.376  1.00  0.00    -0.361 N 
HETATM   36  C7  UNL     1      42.923  39.482  51.351  1.00  0.00     0.219 C 
HETATM   37  O1  UNL     1      43.450  38.402  51.714  1.00  0.00    -0.274 OA
ATOM     38  H1  UNL     1      41.472  40.364  50.089  1.00  0.00     0.162 HD
BRANCH  36  39
HETATM   39  C6  UNL     1      43.368  40.779  51.920  1.00  0.00     0.128 C 
BRANCH  39  40
HETATM   40  C5  UNL     1      42.208  41.723  52.289  1.00  0.00     0.093 C 
BRANCH  40  41
HETATM   41  C4  UNL     1      42.195  41.899  53.736  1.00  0.00     0.026 C 
BRANCH  41  42
HETATM   42  C3  UNL     1      41.573  43.079  54.356  1.00  0.00     0.002 C 
BRANCH  42  43
HETATM   43  C2  UNL     1      42.459  44.158  54.841  1.00  0.00    -0.004 C 
HETATM   44  C1  UNL     1      42.352  45.364  53.882  1.00  0.00     0.005 C 
ENDBRANCH  42  43
ENDBRANCH  41  42
ENDBRANCH  40  41
BRANCH  40  45
HETATM   45  N3  UNL     1      42.124  42.829  51.413  1.00  0.00    -0.356 N 
HETATM   46  C32 UNL     1      41.348  42.946  50.253  1.00  0.00     0.218 C 
HETATM   47  O6  UNL     1      40.594  42.066  49.790  1.00  0.00    -0.274 OA
ATOM     48  H3  UNL     1      42.696  43.637  51.654  1.00  0.00     0.162 HD
BRANCH  46  49
HETATM   49  C33 UNL     1      41.412  44.233  49.479  1.00  0.00     0.106 C 
BRANCH  49  50
HETATM   50  C34 UNL     1      41.009  45.398  50.339  1.00  0.00    -0.014 C 
HETATM   51  C35 UNL     1      39.498  45.429  50.414  1.00  0.00     0.010 C 
HETATM   52  C36 UNL     1      41.514  46.710  49.784  1.00  0.00     0.010 C 
ENDBRANCH  49  50
ENDBRANCH  46  49
ENDBRANCH  40  45
ENDBRANCH  39  40
ENDBRANCH  36  39
ENDBRANCH  34  35
ENDBRANCH   1  34
TORSDOF 15
ENDMDL
