MODEL 1
REMARK VINA RESULT: -6.836339926      0.000      0.000
REMARK  4 active torsions:
REMARK  status: ('A' for Active; 'I' for Inactive)
REMARK    1  A    between atoms: N1_3  and  C3_5 
REMARK    2  A    between atoms: C9_14  and  O1_15 
REMARK    3  A    between atoms: C11_18  and  C12_19 
REMARK    4  A    between atoms: N3_23  and  C14_24 
ROOT
HETATM    1  C3  UNL     1      84.288  32.339  11.757  1.00  0.00     0.064 A 
HETATM    2  C4  UNL     1      83.823  31.152  11.125  1.00  0.00     0.062 A 
HETATM    3 BR1  UNL     1      81.991  30.649  11.250  1.00  0.00    -0.047 Br
HETATM    4  C5  UNL     1      84.653  30.394  10.368  1.00  0.00     0.076 A 
HETATM    5 CL1  UNL     1      84.036  28.934   9.590  1.00  0.00    -0.081 Cl
HETATM    6  C6  UNL     1      85.948  30.743  10.189  1.00  0.00     0.068 A 
HETATM    7 CL2  UNL     1      87.066  29.789   9.224  1.00  0.00    -0.082 Cl
HETATM    8  C7  UNL     1      86.420  31.887  10.780  1.00  0.00     0.005 A 
HETATM    9  C8  UNL     1      87.722  32.254  10.547  1.00  0.00     0.051 A 
HETATM   10  C9  UNL     1      88.235  33.410  11.057  1.00  0.00     0.081 A 
HETATM   11  C10 UNL     1      87.424  34.202  11.801  1.00  0.00     0.050 A 
HETATM   12  C11 UNL     1      87.606  35.459  12.336  1.00  0.00     0.041 A 
HETATM   13  N2  UNL     1      86.470  35.820  12.863  1.00  0.00    -0.301 N 
ATOM     14  H2  UNL     1      86.314  36.713  13.331  1.00  0.00     0.187 HD
HETATM   15  N3  UNL     1      85.494  34.840  12.712  1.00  0.00    -0.291 N 
HETATM   16  C16 UNL     1      86.079  33.876  12.080  1.00  0.00     0.079 A 
HETATM   17  C17 UNL     1      85.566  32.680  11.562  1.00  0.00     0.033 A 
ENDROOT
BRANCH   1  18
HETATM   18  N1  UNL     1      83.339  32.812  12.656  1.00  0.00    -0.368 N 
HETATM   19  C2  UNL     1      83.156  32.205  13.818  1.00  0.00     0.057 C 
HETATM   20  C1  UNL     1      82.153  32.694  14.756  1.00  0.00     0.054 C 
ATOM     21  H1  UNL     1      82.779  33.631  12.418  1.00  0.00     0.165 HD
ENDBRANCH   1  18
BRANCH  15  22
HETATM   22  C14 UNL     1      84.285  35.211  13.320  1.00  0.00     0.145 C 
HETATM   23  C15 UNL     1      84.084  36.752  13.138  1.00  0.00     0.028 C 
ENDBRANCH  15  22
BRANCH  10  24
HETATM   24  O1  UNL     1      89.547  33.774  10.826  1.00  0.00    -0.360 OA
ATOM     25  H1  UNL     1      90.176  33.827  11.535  1.00  0.00     0.217 HD
ENDBRANCH  10  24
BRANCH  12  26
HETATM   26  C12 UNL     1      88.902  36.190  12.268  1.00  0.00     0.055 C 
HETATM   27  C13 UNL     1      88.867  37.455  13.076  1.00  0.00     0.011 C 
ENDBRANCH  12  26
TORSDOF 4
ENDMDL
MODEL 2
REMARK VINA RESULT: -6.166317879      2.932      4.329
REMARK  4 active torsions:
REMARK  status: ('A' for Active; 'I' for Inactive)
REMARK    1  A    between atoms: N1_3  and  C3_5 
REMARK    2  A    between atoms: C9_14  and  O1_15 
REMARK    3  A    between atoms: C11_18  and  C12_19 
REMARK    4  A    between atoms: N3_23  and  C14_24 
ROOT
HETATM    1  C3  UNL     1      84.486  31.395  12.048  1.00  0.00     0.064 A 
HETATM    2  C4  UNL     1      83.381  31.173  12.918  1.00  0.00     0.062 A 
HETATM    3 BR1  UNL     1      82.386  29.554  12.815  1.00  0.00    -0.047 Br
HETATM    4  C5  UNL     1      83.058  32.074  13.877  1.00  0.00     0.076 A 
HETATM    5 CL1  UNL     1      81.688  31.758  14.945  1.00  0.00    -0.081 Cl
HETATM    6  C6  UNL     1      83.775  33.210  14.038  1.00  0.00     0.068 A 
HETATM    7 CL2  UNL     1      83.390  34.412  15.262  1.00  0.00    -0.082 Cl
HETATM    8  C7  UNL     1      84.849  33.444  13.219  1.00  0.00     0.005 A 
HETATM    9  C8  UNL     1      85.597  34.576  13.429  1.00  0.00     0.051 A 
HETATM   10  C9  UNL     1      86.711  34.837  12.688  1.00  0.00     0.081 A 
HETATM   11  C10 UNL     1      87.075  33.944  11.734  1.00  0.00     0.050 A 
HETATM   12  C11 UNL     1      88.189  33.865  10.926  1.00  0.00     0.041 A 
HETATM   13  N2  UNL     1      88.106  32.744  10.268  1.00  0.00    -0.301 N 
ATOM     14  H2  UNL     1      88.802  32.423   9.594  1.00  0.00     0.187 HD
HETATM   15  N3  UNL     1      86.954  32.035  10.594  1.00  0.00    -0.291 N 
HETATM   16  C16 UNL     1      86.345  32.766  11.468  1.00  0.00     0.079 A 
HETATM   17  C17 UNL     1      85.195  32.514  12.226  1.00  0.00     0.033 A 
ENDROOT
BRANCH   1  18
HETATM   18  N1  UNL     1      84.479  30.467  11.012  1.00  0.00    -0.368 N 
HETATM   19  C2  UNL     1      83.636  30.600  10.000  1.00  0.00     0.057 C 
HETATM   20  C1  UNL     1      83.622  29.622   8.919  1.00  0.00     0.054 C 
ATOM     21  H1  UNL     1      85.127  29.679  11.032  1.00  0.00     0.165 HD
ENDBRANCH   1  18
BRANCH  15  22
HETATM   22  C14 UNL     1      86.845  30.850   9.850  1.00  0.00     0.145 C 
HETATM   23  C15 UNL     1      87.671  29.730  10.564  1.00  0.00     0.028 C 
ENDBRANCH  15  22
BRANCH  10  24
HETATM   24  O1  UNL     1      87.459  35.979  12.898  1.00  0.00    -0.360 OA
ATOM     25  H1  UNL     1      87.574  36.341  13.768  1.00  0.00     0.217 HD
ENDBRANCH  10  24
BRANCH  12  26
HETATM   26  C12 UNL     1      89.241  34.919  10.890  1.00  0.00     0.055 C 
HETATM   27  C13 UNL     1      90.357  34.620  11.849  1.00  0.00     0.011 C 
ENDBRANCH  12  26
TORSDOF 4
ENDMDL
MODEL 3
REMARK VINA RESULT: -6.068267088     16.529     18.319
REMARK  4 active torsions:
REMARK  status: ('A' for Active; 'I' for Inactive)
REMARK    1  A    between atoms: N1_3  and  C3_5 
REMARK    2  A    between atoms: C9_14  and  O1_15 
REMARK    3  A    between atoms: C11_18  and  C12_19 
REMARK    4  A    between atoms: N3_23  and  C14_24 
ROOT
HETATM    1  C3  UNL     1      86.306  49.507  20.116  1.00  0.00     0.064 A 
HETATM    2  C4  UNL     1      86.294  50.238  18.895  1.00  0.00     0.062 A 
HETATM    3 BR1  UNL     1      87.500  51.688  18.630  1.00  0.00    -0.047 Br
HETATM    4  C5  UNL     1      85.477  49.879  17.875  1.00  0.00     0.076 A 
HETATM    5 CL1  UNL     1      85.500  50.804  16.371  1.00  0.00    -0.081 Cl
HETATM    6  C6  UNL     1      84.649  48.815  17.985  1.00  0.00     0.068 A 
HETATM    7 CL2  UNL     1      83.565  48.315  16.695  1.00  0.00    -0.082 Cl
HETATM    8  C7  UNL     1      84.646  48.088  19.148  1.00  0.00     0.005 A 
HETATM    9  C8  UNL     1      83.839  46.981  19.224  1.00  0.00     0.051 A 
HETATM   10  C9  UNL     1      83.834  46.182  20.329  1.00  0.00     0.081 A 
HETATM   11  C10 UNL     1      84.656  46.502  21.359  1.00  0.00     0.050 A 
HETATM   12  C11 UNL     1      84.962  45.840  22.530  1.00  0.00     0.041 A 
HETATM   13  N2  UNL     1      85.903  46.522  23.120  1.00  0.00    -0.301 N 
ATOM     14  H2  UNL     1      86.327  46.261  24.011  1.00  0.00     0.187 HD
HETATM   15  N3  UNL     1      86.262  47.651  22.389  1.00  0.00    -0.291 N 
HETATM   16  C16 UNL     1      85.505  47.629  21.342  1.00  0.00     0.079 A 
HETATM   17  C17 UNL     1      85.493  48.450  20.208  1.00  0.00     0.033 A 
ENDROOT
BRANCH   1  18
HETATM   18  N1  UNL     1      87.036  50.191  21.081  1.00  0.00    -0.368 N 
HETATM   19  C2  UNL     1      86.523  51.253  21.681  1.00  0.00     0.057 C 
HETATM   20  C1  UNL     1      87.292  51.976  22.686  1.00  0.00     0.054 C 
ATOM     21  H1  UNL     1      87.973  49.871  21.329  1.00  0.00     0.165 HD
ENDBRANCH   1  18
BRANCH  15  22
HETATM   22  C14 UNL     1      87.242  48.407  23.049  1.00  0.00     0.145 C 
HETATM   23  C15 UNL     1      87.099  48.179  24.590  1.00  0.00     0.028 C 
ENDBRANCH  15  22
BRANCH  10  24
HETATM   24  O1  UNL     1      83.016  45.072  20.407  1.00  0.00    -0.360 OA
ATOM     25  H1  UNL     1      82.611  44.703  19.631  1.00  0.00     0.217 HD
ENDBRANCH  10  24
BRANCH  12  26
HETATM   26  C12 UNL     1      84.288  44.581  22.951  1.00  0.00     0.055 C 
HETATM   27  C13 UNL     1      83.422  44.794  24.159  1.00  0.00     0.011 C 
ENDBRANCH  12  26
TORSDOF 4
ENDMDL
MODEL 4
REMARK VINA RESULT: -5.895221385     15.778     18.376
REMARK  4 active torsions:
REMARK  status: ('A' for Active; 'I' for Inactive)
REMARK    1  A    between atoms: N1_3  and  C3_5 
REMARK    2  A    between atoms: C9_14  and  O1_15 
REMARK    3  A    between atoms: C11_18  and  C12_19 
REMARK    4  A    between atoms: N3_23  and  C14_24 
ROOT
HETATM    1  C3  UNL     1      85.019  46.308  21.857  1.00  0.00     0.064 A 
HETATM    2  C4  UNL     1      84.067  45.397  22.395  1.00  0.00     0.062 A 
HETATM    3 BR1  UNL     1      83.453  43.923  21.357  1.00  0.00    -0.047 Br
HETATM    4  C5  UNL     1      83.631  45.517  23.672  1.00  0.00     0.076 A 
HETATM    5 CL1  UNL     1      82.459  44.359  24.307  1.00  0.00    -0.081 Cl
HETATM    6  C6  UNL     1      84.088  46.506  24.475  1.00  0.00     0.068 A 
HETATM    7 CL2  UNL     1      83.546  46.709  26.136  1.00  0.00    -0.082 Cl
HETATM    8  C7  UNL     1      85.011  47.392  23.985  1.00  0.00     0.005 A 
HETATM    9  C8  UNL     1      85.502  48.358  24.828  1.00  0.00     0.051 A 
HETATM   10  C9  UNL     1      86.465  49.232  24.420  1.00  0.00     0.081 A 
HETATM   11  C10 UNL     1      86.939  49.125  23.154  1.00  0.00     0.050 A 
HETATM   12  C11 UNL     1      87.972  49.764  22.502  1.00  0.00     0.041 A 
HETATM   13  N2  UNL     1      88.088  49.207  21.330  1.00  0.00    -0.301 N 
ATOM     14  H2  UNL     1      88.780  49.481  20.632  1.00  0.00     0.187 HD
HETATM   15  N3  UNL     1      87.154  48.192  21.143  1.00  0.00    -0.291 N 
HETATM   16  C16 UNL     1      86.471  48.157  22.240  1.00  0.00     0.079 A 
HETATM   17  C17 UNL     1      85.472  47.272  22.665  1.00  0.00     0.033 A 
ENDROOT
BRANCH   1  18
HETATM   18  N1  UNL     1      85.134  46.132  20.483  1.00  0.00    -0.368 N 
HETATM   19  C2  UNL     1      84.177  46.554  19.671  1.00  0.00     0.057 C 
HETATM   20  C1  UNL     1      84.293  46.360  18.231  1.00  0.00     0.054 C 
ATOM     21  H1  UNL     1      85.961  45.675  20.098  1.00  0.00     0.165 HD
ENDBRANCH   1  18
BRANCH  15  22
HETATM   22  C14 UNL     1      87.251  47.626  19.863  1.00  0.00     0.145 C 
HETATM   23  C15 UNL     1      88.763  47.488  19.487  1.00  0.00     0.028 C 
ENDBRANCH  15  22
BRANCH  10  24
HETATM   24  O1  UNL     1      86.954  50.207  25.269  1.00  0.00    -0.360 OA
ATOM     25  H1  UNL     1      86.705  51.118  25.167  1.00  0.00     0.217 HD
ENDBRANCH  10  24
BRANCH  12  26
HETATM   26  C12 UNL     1      88.756  50.872  23.114  1.00  0.00     0.055 C 
HETATM   27  C13 UNL     1      89.866  51.329  22.213  1.00  0.00     0.011 C 
ENDBRANCH  12  26
TORSDOF 4
ENDMDL
MODEL 5
REMARK VINA RESULT: -5.841827245     16.571     18.574
REMARK  4 active torsions:
REMARK  status: ('A' for Active; 'I' for Inactive)
REMARK    1  A    between atoms: N1_3  and  C3_5 
REMARK    2  A    between atoms: C9_14  and  O1_15 
REMARK    3  A    between atoms: C11_18  and  C12_19 
REMARK    4  A    between atoms: N3_23  and  C14_24 
ROOT
HETATM    1  C3  UNL     1      85.895  50.145  21.073  1.00  0.00     0.064 A 
HETATM    2  C4  UNL     1      84.519  50.460  20.887  1.00  0.00     0.062 A 
HETATM    3 BR1  UNL     1      83.761  51.992  21.724  1.00  0.00    -0.047 Br
HETATM    4  C5  UNL     1      83.740  49.720  20.061  1.00  0.00     0.076 A 
HETATM    5 CL1  UNL     1      82.041  50.149  19.847  1.00  0.00    -0.081 Cl
HETATM    6  C6  UNL     1      84.246  48.661  19.387  1.00  0.00     0.068 A 
HETATM    7 CL2  UNL     1      83.275  47.666  18.312  1.00  0.00    -0.082 Cl
HETATM    8  C7  UNL     1      85.570  48.341  19.542  1.00  0.00     0.005 A 
HETATM    9  C8  UNL     1      86.079  47.296  18.813  1.00  0.00     0.051 A 
HETATM   10  C9  UNL     1      87.400  46.964  18.876  1.00  0.00     0.081 A 
HETATM   11  C10 UNL     1      88.211  47.699  19.677  1.00  0.00     0.050 A 
HETATM   12  C11 UNL     1      89.579  47.690  19.856  1.00  0.00     0.041 A 
HETATM   13  N2  UNL     1      89.866  48.680  20.653  1.00  0.00    -0.301 N 
ATOM     14  H2  UNL     1      90.812  48.914  20.957  1.00  0.00     0.187 HD
HETATM   15  N3  UNL     1      88.729  49.381  21.041  1.00  0.00    -0.291 N 
HETATM   16  C16 UNL     1      87.746  48.781  20.454  1.00  0.00     0.079 A 
HETATM   17  C17 UNL     1      86.385  49.105  20.392  1.00  0.00     0.033 A 
ENDROOT
BRANCH   1  18
HETATM   18  N1  UNL     1      86.421  50.883  22.127  1.00  0.00    -0.368 N 
HETATM   19  C2  UNL     1      86.143  50.556  23.379  1.00  0.00     0.057 C 
HETATM   20  C1  UNL     1      86.687  51.336  24.483  1.00  0.00     0.054 C 
ATOM     21  H1  UNL     1      87.025  51.683  21.934  1.00  0.00     0.165 HD
ENDBRANCH   1  18
BRANCH  15  22
HETATM   22  C14 UNL     1      89.037  50.417  21.936  1.00  0.00     0.145 C 
HETATM   23  C15 UNL     1      90.207  51.266  21.338  1.00  0.00     0.028 C 
ENDBRANCH  15  22
BRANCH  10  24
HETATM   24  O1  UNL     1      87.909  45.908  18.145  1.00  0.00    -0.360 OA
ATOM     25  H1  UNL     1      88.750  45.972  17.707  1.00  0.00     0.217 HD
ENDBRANCH  10  24
BRANCH  12  26
HETATM   26  C12 UNL     1      90.476  46.695  19.207  1.00  0.00     0.055 C 
HETATM   27  C13 UNL     1      91.446  46.103  20.188  1.00  0.00     0.011 C 
ENDBRANCH  12  26
TORSDOF 4
ENDMDL
