MODEL 1
REMARK VINA RESULT: -6.757749169      0.000      0.000
REMARK  4 active torsions:
REMARK  status: ('A' for Active; 'I' for Inactive)
REMARK    1  A    between atoms: C3_3  and  O1_4 
REMARK    2  A    between atoms: C6_8  and  C7_9 
REMARK    3  A    between atoms: C9_11  and  N1_12 
REMARK    4  A    between atoms: C13_23  and  C14_24 
ROOT
HETATM    1  C1  UNL     1      87.715  52.664  18.165  1.00  0.00     0.018 C 
HETATM    2  C2  UNL     1      87.139  51.769  18.884  1.00  0.00    -0.042 C 
HETATM    3  C3  UNL     1      85.783  51.217  18.822  1.00  0.00     0.148 C 
HETATM    4  C4  UNL     1      85.818  49.827  19.472  1.00  0.00     0.043 C 
HETATM    5  C5  UNL     1      87.028  49.026  19.027  1.00  0.00     0.029 C 
HETATM    6  C6  UNL     1      86.949  47.589  19.243  1.00  0.00     0.225 C 
HETATM    7  N2  UNL     1      88.122  47.183  20.145  1.00  0.00    -0.062 N 
ATOM      8  H21 UNL     1      88.091  46.205  20.435  1.00  0.00     0.278 HD
ATOM      9  H22 UNL     1      88.075  47.592  21.079  1.00  0.00     0.278 HD
HETATM   10  C13 UNL     1      89.316  47.526  19.433  1.00  0.00     0.186 C 
HETATM   11  C16 UNL     1      89.450  49.047  19.706  1.00  0.00     0.039 C 
HETATM   12  C17 UNL     1      88.281  49.770  19.216  1.00  0.00     0.017 C 
HETATM   13  C18 UNL     1      88.016  51.071  19.950  1.00  0.00     0.117 C 
HETATM   14 CL3  UNL     1      89.462  52.018  20.215  1.00  0.00    -0.120 Cl
ENDROOT
BRANCH   6  15
HETATM   15  C7  UNL     1      85.843  47.058  20.106  1.00  0.00    -0.003 A 
HETATM   16  C8  UNL     1      85.842  47.064  21.475  1.00  0.00     0.048 A 
HETATM   17  C9  UNL     1      84.897  46.396  22.235  1.00  0.00     0.125 A 
HETATM   18  C10 UNL     1      83.900  45.691  21.617  1.00  0.00     0.068 A 
HETATM   19 CL1  UNL     1      82.677  44.848  22.566  1.00  0.00    -0.082 Cl
HETATM   20  C11 UNL     1      83.853  45.645  20.251  1.00  0.00     0.051 A 
HETATM   21  C12 UNL     1      84.806  46.312  19.514  1.00  0.00     0.044 A 
HETATM   22 CL2  UNL     1      84.725  46.291  17.775  1.00  0.00    -0.084 Cl
BRANCH  17  23
HETATM   23  N1  UNL     1      84.986  46.345  23.664  1.00  0.00    -0.114 N 
HETATM   24  O2  UNL     1      84.463  47.199  24.397  1.00  0.00    -0.532 OA
HETATM   25  O3  UNL     1      85.697  45.317  24.268  1.00  0.00    -0.532 OA
ENDBRANCH  17  23
ENDBRANCH   6  15
BRANCH  10  26
HETATM   26  C14 UNL     1      90.501  46.873  20.124  1.00  0.00     0.028 C 
HETATM   27  C15 UNL     1      91.571  46.408  19.184  1.00  0.00     0.007 C 
ENDBRANCH  10  26
BRANCH   3  28
HETATM   28  O1  UNL     1      85.288  51.155  17.514  1.00  0.00    -0.391 OA
ATOM     29  H1  UNL     1      85.318  50.275  17.155  1.00  0.00     0.210 HD
ENDBRANCH   3  28
TORSDOF 4
ENDMDL
MODEL 2
REMARK VINA RESULT: -6.414743799      2.854      6.866
REMARK  4 active torsions:
REMARK  status: ('A' for Active; 'I' for Inactive)
REMARK    1  A    between atoms: C3_3  and  O1_4 
REMARK    2  A    between atoms: C6_8  and  C7_9 
REMARK    3  A    between atoms: C9_11  and  N1_12 
REMARK    4  A    between atoms: C13_23  and  C14_24 
ROOT
HETATM    1  C1  UNL     1      81.999  44.598  23.939  1.00  0.00     0.018 C 
HETATM    2  C2  UNL     1      83.050  45.241  23.577  1.00  0.00    -0.042 C 
HETATM    3  C3  UNL     1      84.293  44.774  22.956  1.00  0.00     0.148 C 
HETATM    4  C4  UNL     1      84.919  45.964  22.217  1.00  0.00     0.043 C 
HETATM    5  C5  UNL     1      83.883  46.752  21.437  1.00  0.00     0.029 C 
HETATM    6  C6  UNL     1      84.405  47.625  20.396  1.00  0.00     0.225 C 
HETATM    7  N2  UNL     1      83.958  49.059  20.715  1.00  0.00    -0.062 N 
ATOM      8  H21 UNL     1      84.364  49.758  20.092  1.00  0.00     0.278 HD
ATOM      9  H22 UNL     1      84.352  49.422  21.584  1.00  0.00     0.278 HD
HETATM   10  C13 UNL     1      82.527  49.048  20.701  1.00  0.00     0.186 C 
HETATM   11  C16 UNL     1      82.176  48.477  22.099  1.00  0.00     0.039 C 
HETATM   12  C17 UNL     1      82.742  47.144  22.276  1.00  0.00     0.017 C 
HETATM   13  C18 UNL     1      83.004  46.780  23.725  1.00  0.00     0.117 C 
HETATM   14 CL3  UNL     1      81.688  47.214  24.793  1.00  0.00    -0.120 Cl
ENDROOT
BRANCH   6  15
HETATM   15  C7  UNL     1      85.882  47.883  20.357  1.00  0.00    -0.003 A 
HETATM   16  C8  UNL     1      86.526  48.872  21.051  1.00  0.00     0.048 A 
HETATM   17  C9  UNL     1      87.855  49.200  20.843  1.00  0.00     0.125 A 
HETATM   18  C10 UNL     1      88.588  48.518  19.910  1.00  0.00     0.068 A 
HETATM   19 CL1  UNL     1      90.286  48.909  19.643  1.00  0.00    -0.082 Cl
HETATM   20  C11 UNL     1      87.996  47.523  19.182  1.00  0.00     0.051 A 
HETATM   21  C12 UNL     1      86.672  47.216  19.401  1.00  0.00     0.044 A 
HETATM   22 CL2  UNL     1      85.925  45.922  18.507  1.00  0.00    -0.084 Cl
BRANCH  17  23
HETATM   23  N1  UNL     1      88.468  50.306  21.519  1.00  0.00    -0.114 N 
HETATM   24  O2  UNL     1      89.068  50.179  22.598  1.00  0.00    -0.532 OA
HETATM   25  O3  UNL     1      88.378  51.576  20.969  1.00  0.00    -0.532 OA
ENDBRANCH  17  23
ENDBRANCH   6  15
BRANCH  10  26
HETATM   26  C14 UNL     1      82.028  50.483  20.698  1.00  0.00     0.028 C 
HETATM   27  C15 UNL     1      82.408  51.256  19.472  1.00  0.00     0.007 C 
ENDBRANCH  10  26
BRANCH   3  28
HETATM   28  O1  UNL     1      84.088  43.691  22.093  1.00  0.00    -0.391 OA
ATOM     29  H1  UNL     1      84.838  43.523  21.533  1.00  0.00     0.210 HD
ENDBRANCH   3  28
TORSDOF 4
ENDMDL
MODEL 3
REMARK VINA RESULT: -6.368279171     16.831     18.813
REMARK  4 active torsions:
REMARK  status: ('A' for Active; 'I' for Inactive)
REMARK    1  A    between atoms: C3_3  and  O1_4 
REMARK    2  A    between atoms: C6_8  and  C7_9 
REMARK    3  A    between atoms: C9_11  and  N1_12 
REMARK    4  A    between atoms: C13_23  and  C14_24 
ROOT
HETATM    1  C1  UNL     1      88.468  36.376  12.943  1.00  0.00     0.018 C 
HETATM    2  C2  UNL     1      88.021  35.379  12.268  1.00  0.00    -0.042 C 
HETATM    3  C3  UNL     1      88.721  34.249  11.651  1.00  0.00     0.148 C 
HETATM    4  C4  UNL     1      87.714  33.099  11.511  1.00  0.00     0.043 C 
HETATM    5  C5  UNL     1      86.872  32.931  12.762  1.00  0.00     0.029 C 
HETATM    6  C6  UNL     1      86.194  31.650  12.899  1.00  0.00     0.225 C 
HETATM    7  N2  UNL     1      84.686  31.923  12.995  1.00  0.00    -0.062 N 
ATOM      8  H21 UNL     1      84.120  31.074  12.992  1.00  0.00     0.278 HD
ATOM      9  H22 UNL     1      84.295  32.338  12.148  1.00  0.00     0.278 HD
HETATM   10  C13 UNL     1      84.496  32.729  14.163  1.00  0.00     0.186 C 
HETATM   11  C16 UNL     1      84.863  34.149  13.661  1.00  0.00     0.039 C 
HETATM   12  C17 UNL     1      86.237  34.191  13.173  1.00  0.00     0.017 C 
HETATM   13  C18 UNL     1      86.484  35.268  12.134  1.00  0.00     0.117 C 
HETATM   14 CL3  UNL     1      85.760  36.805  12.551  1.00  0.00    -0.120 Cl
ENDROOT
BRANCH   6  15
HETATM   15  C7  UNL     1      86.153  30.734  11.712  1.00  0.00    -0.003 A 
HETATM   16  C8  UNL     1      85.703  31.080  10.467  1.00  0.00     0.048 A 
HETATM   17  C9  UNL     1      85.502  30.160   9.452  1.00  0.00     0.125 A 
HETATM   18  C10 UNL     1      85.763  28.835   9.671  1.00  0.00     0.068 A 
HETATM   19 CL1  UNL     1      85.531  27.650   8.387  1.00  0.00    -0.082 Cl
HETATM   20  C11 UNL     1      86.211  28.429  10.898  1.00  0.00     0.051 A 
HETATM   21  C12 UNL     1      86.399  29.360  11.895  1.00  0.00     0.044 A 
HETATM   22 CL2  UNL     1      87.009  28.854  13.446  1.00  0.00    -0.084 Cl
BRANCH  17  23
HETATM   23  N1  UNL     1      84.936  30.547   8.193  1.00  0.00    -0.114 N 
HETATM   24  O2  UNL     1      85.632  30.911   7.232  1.00  0.00    -0.532 OA
HETATM   25  O3  UNL     1      83.558  30.536   8.032  1.00  0.00    -0.532 OA
ENDBRANCH  17  23
ENDBRANCH   6  15
BRANCH  10  26
HETATM   26  C14 UNL     1      83.012  32.773  14.489  1.00  0.00     0.028 C 
HETATM   27  C15 UNL     1      82.564  34.062  15.108  1.00  0.00     0.007 C 
ENDBRANCH  10  26
BRANCH   3  28
HETATM   28  O1  UNL     1      89.847  33.851  12.382  1.00  0.00    -0.391 OA
ATOM     29  H1  UNL     1      90.643  33.863  11.862  1.00  0.00     0.210 HD
ENDBRANCH   3  28
TORSDOF 4
ENDMDL
MODEL 4
REMARK VINA RESULT: -6.315834014     15.639     18.150
REMARK  4 active torsions:
REMARK  status: ('A' for Active; 'I' for Inactive)
REMARK    1  A    between atoms: C3_3  and  O1_4 
REMARK    2  A    between atoms: C6_8  and  C7_9 
REMARK    3  A    between atoms: C9_11  and  N1_12 
REMARK    4  A    between atoms: C13_23  and  C14_24 
ROOT
HETATM    1  C1  UNL     1      85.258  28.788  10.186  1.00  0.00     0.018 C 
HETATM    2  C2  UNL     1      85.887  29.839  10.572  1.00  0.00    -0.042 C 
HETATM    3  C3  UNL     1      86.499  30.925   9.802  1.00  0.00     0.148 C 
HETATM    4  C4  UNL     1      86.568  32.159  10.714  1.00  0.00     0.043 C 
HETATM    5  C5  UNL     1      85.281  32.357  11.492  1.00  0.00     0.029 C 
HETATM    6  C6  UNL     1      85.082  33.685  12.055  1.00  0.00     0.225 C 
HETATM    7  N2  UNL     1      84.935  33.535  13.575  1.00  0.00    -0.062 N 
ATOM      8  H21 UNL     1      84.892  34.428  14.068  1.00  0.00     0.278 HD
ATOM      9  H22 UNL     1      85.777  33.181  14.031  1.00  0.00     0.278 HD
HETATM   10  C13 UNL     1      83.783  32.712  13.790  1.00  0.00     0.186 C 
HETATM   11  C16 UNL     1      84.338  31.283  13.562  1.00  0.00     0.039 C 
HETATM   12  C17 UNL     1      84.881  31.142  12.215  1.00  0.00     0.017 C 
HETATM   13  C18 UNL     1      85.958  30.081  12.098  1.00  0.00     0.117 C 
HETATM   14 CL3  UNL     1      85.556  28.597  12.934  1.00  0.00    -0.120 Cl
ENDROOT
BRANCH   6  15
HETATM   15  C7  UNL     1      86.240  34.638  12.061  1.00  0.00    -0.003 A 
HETATM   16  C8  UNL     1      87.542  34.294  11.812  1.00  0.00     0.048 A 
HETATM   17  C9  UNL     1      88.605  35.158  12.014  1.00  0.00     0.125 A 
HETATM   18  C10 UNL     1      88.375  36.425  12.478  1.00  0.00     0.068 A 
HETATM   19 CL1  UNL     1      89.713  37.546  12.725  1.00  0.00    -0.082 Cl
HETATM   20  C11 UNL     1      87.095  36.823  12.750  1.00  0.00     0.051 A 
HETATM   21  C12 UNL     1      86.053  35.946  12.547  1.00  0.00     0.044 A 
HETATM   22 CL2  UNL     1      84.418  36.461  12.851  1.00  0.00    -0.084 Cl
BRANCH  17  23
HETATM   23  N1  UNL     1      89.961  34.730  11.835  1.00  0.00    -0.114 N 
HETATM   24  O2  UNL     1      90.536  33.980  12.640  1.00  0.00    -0.532 OA
HETATM   25  O3  UNL     1      90.678  35.178  10.735  1.00  0.00    -0.532 OA
ENDBRANCH  17  23
ENDBRANCH   6  15
BRANCH  10  26
HETATM   26  C14 UNL     1      83.401  32.782  15.259  1.00  0.00     0.028 C 
HETATM   27  C15 UNL     1      84.387  33.526  16.108  1.00  0.00     0.007 C 
ENDBRANCH  10  26
BRANCH   3  28
HETATM   28  O1  UNL     1      85.802  31.205   8.621  1.00  0.00    -0.391 OA
ATOM     29  H1  UNL     1      85.279  30.469   8.323  1.00  0.00     0.210 HD
ENDBRANCH   3  28
TORSDOF 4
ENDMDL
MODEL 5
REMARK VINA RESULT: -6.231504920     13.168     16.136
REMARK  4 active torsions:
REMARK  status: ('A' for Active; 'I' for Inactive)
REMARK    1  A    between atoms: C3_3  and  O1_4 
REMARK    2  A    between atoms: C6_8  and  C7_9 
REMARK    3  A    between atoms: C9_11  and  N1_12 
REMARK    4  A    between atoms: C13_23  and  C14_24 
ROOT
HETATM    1  C1  UNL     1      81.988  33.469  19.420  1.00  0.00     0.018 C 
HETATM    2  C2  UNL     1      82.813  33.491  18.436  1.00  0.00    -0.042 C 
HETATM    3  C3  UNL     1      83.288  32.416  17.561  1.00  0.00     0.148 C 
HETATM    4  C4  UNL     1      83.755  33.060  16.247  1.00  0.00     0.043 C 
HETATM    5  C5  UNL     1      82.781  34.117  15.760  1.00  0.00     0.029 C 
HETATM    6  C6  UNL     1      82.901  34.487  14.357  1.00  0.00     0.225 C 
HETATM    7  N2  UNL     1      83.189  35.994  14.291  1.00  0.00    -0.062 N 
ATOM      8  H21 UNL     1      83.390  36.326  13.347  1.00  0.00     0.278 HD
ATOM      9  H22 UNL     1      84.083  36.253  14.708  1.00  0.00     0.278 HD
HETATM   10  C13 UNL     1      82.068  36.646  14.897  1.00  0.00     0.186 C 
HETATM   11  C16 UNL     1      82.372  36.512  16.411  1.00  0.00     0.039 C 
HETATM   12  C17 UNL     1      82.479  35.110  16.800  1.00  0.00     0.017 C 
HETATM   13  C18 UNL     1      83.352  34.879  18.018  1.00  0.00     0.117 C 
HETATM   14 CL3  UNL     1      83.052  36.023  19.307  1.00  0.00    -0.120 Cl
ENDROOT
BRANCH   6  15
HETATM   15  C7  UNL     1      84.107  34.021  13.598  1.00  0.00    -0.003 A 
HETATM   16  C8  UNL     1      85.312  34.670  13.562  1.00  0.00     0.048 A 
HETATM   17  C9  UNL     1      86.338  34.316  12.701  1.00  0.00     0.125 A 
HETATM   18  C10 UNL     1      86.171  33.267  11.838  1.00  0.00     0.068 A 
HETATM   19 CL1  UNL     1      87.470  32.788  10.747  1.00  0.00    -0.082 Cl
HETATM   20  C11 UNL     1      84.986  32.584  11.826  1.00  0.00     0.051 A 
HETATM   21  C12 UNL     1      83.978  32.957  12.686  1.00  0.00     0.044 A 
HETATM   22 CL2  UNL     1      82.482  32.064  12.703  1.00  0.00    -0.084 Cl
BRANCH  17  23
HETATM   23  N1  UNL     1      87.548  35.080  12.624  1.00  0.00    -0.114 N 
HETATM   24  O2  UNL     1      87.611  36.174  12.042  1.00  0.00    -0.532 OA
HETATM   25  O3  UNL     1      88.707  34.582  13.202  1.00  0.00    -0.532 OA
ENDBRANCH  17  23
ENDBRANCH   6  15
BRANCH  10  26
HETATM   26  C14 UNL     1      82.142  38.131  14.586  1.00  0.00     0.028 C 
HETATM   27  C15 UNL     1      81.688  39.010  15.712  1.00  0.00     0.007 C 
ENDBRANCH  10  26
BRANCH   3  28
HETATM   28  O1  UNL     1      82.311  31.441  17.329  1.00  0.00    -0.391 OA
ATOM     29  H1  UNL     1      81.431  31.800  17.326  1.00  0.00     0.210 HD
ENDBRANCH   3  28
TORSDOF 4
ENDMDL
