MODEL 1
REMARK VINA RESULT: -7.370935464      0.000      0.000
REMARK  6 active torsions:
REMARK  status: ('A' for Active; 'I' for Inactive)
REMARK    1  A    between atoms: C2_2  and  N2_6 
REMARK    2  A    between atoms: N2_6  and  C3_8 
REMARK    3  A    between atoms: C3_8  and  C4_9 
REMARK       I    between atoms: C4_9  and  N3_11 
REMARK    4  A    between atoms: N3_11  and  C5_13 
REMARK    5  A    between atoms: C5_13  and  C6_14 
REMARK    6  A    between atoms: C6_14  and  C7_15 
ROOT
HETATM    1  C3  UNL     1      38.797  37.169  69.454  1.00  0.00     0.112 C 
HETATM    2  C13 UNL     1      37.615  37.571  70.276  1.00  0.00     0.041 C 
HETATM    3  C14 UNL     1      38.148  38.398  71.399  1.00  0.00     0.003 C 
HETATM    4  C15 UNL     1      39.610  38.074  71.538  1.00  0.00     0.003 C 
HETATM    5  C16 UNL     1      39.985  37.199  70.367  1.00  0.00     0.041 C 
ENDROOT
BRANCH   1   6
HETATM    6  N2  UNL     1      38.995  38.021  68.299  1.00  0.00    -0.362 N 
ATOM      7  H2  UNL     1      39.768  38.686  68.329  1.00  0.00     0.162 HD
BRANCH   6   8
HETATM    8  C2  UNL     1      38.196  37.998  67.134  1.00  0.00     0.067 C 
HETATM    9  C1  UNL     1      36.990  38.849  67.044  1.00  0.00     0.088 C 
HETATM   10  N1  UNL     1      38.519  37.241  66.156  1.00  0.00    -0.389 N 
ATOM     11  H12 UNL     1      37.942  37.225  65.315  1.00  0.00     0.157 HD
ATOM     12  H11 UNL     1      39.350  36.654  66.218  1.00  0.00     0.157 HD
ENDBRANCH   6   8
ENDBRANCH   1   6
BRANCH   1  13
HETATM   13  C4  UNL     1      38.530  35.786  68.960  1.00  0.00     0.246 C 
HETATM   14  O1  UNL     1      39.407  35.168  68.348  1.00  0.00    -0.271 OA
HETATM   15  N3  UNL     1      37.260  35.194  69.203  1.00  0.00    -0.359 N 
ATOM     16  H3  UNL     1      36.543  35.711  69.710  1.00  0.00     0.162 HD
BRANCH  15  17
HETATM   17  C5  UNL     1      36.991  33.856  68.729  1.00  0.00     0.123 C 
BRANCH  17  18
HETATM   18  C6  UNL     1      36.454  33.038  69.868  1.00  0.00     0.024 C 
BRANCH  18  19
HETATM   19  C7  UNL     1      35.631  31.863  69.392  1.00  0.00    -0.013 C 
HETATM   20  C8  UNL     1      35.045  32.069  68.039  1.00  0.00     0.005 C 
HETATM   21  C9  UNL     1      33.535  32.054  68.020  1.00  0.00     0.000 C 
HETATM   22  C10 UNL     1      32.971  30.797  68.638  1.00  0.00     0.000 C 
HETATM   23  C11 UNL     1      33.800  30.317  69.808  1.00  0.00     0.000 C 
HETATM   24  C12 UNL     1      34.537  31.521  70.404  1.00  0.00     0.005 C 
ENDBRANCH  18  19
ENDBRANCH  17  18
ENDBRANCH  15  17
ENDBRANCH   1  13
TORSDOF 6
ENDMDL
MODEL 2
REMARK VINA RESULT: -7.243413825      1.640      2.342
REMARK  6 active torsions:
REMARK  status: ('A' for Active; 'I' for Inactive)
REMARK    1  A    between atoms: C2_2  and  N2_6 
REMARK    2  A    between atoms: N2_6  and  C3_8 
REMARK    3  A    between atoms: C3_8  and  C4_9 
REMARK       I    between atoms: C4_9  and  N3_11 
REMARK    4  A    between atoms: N3_11  and  C5_13 
REMARK    5  A    between atoms: C5_13  and  C6_14 
REMARK    6  A    between atoms: C6_14  and  C7_15 
ROOT
HETATM    1  C3  UNL     1      38.030  35.062  69.520  1.00  0.00     0.112 C 
HETATM    2  C13 UNL     1      38.078  35.430  70.968  1.00  0.00     0.041 C 
HETATM    3  C14 UNL     1      39.457  35.943  71.224  1.00  0.00     0.003 C 
HETATM    4  C15 UNL     1      40.339  35.423  70.123  1.00  0.00     0.003 C 
HETATM    5  C16 UNL     1      39.440  34.764  69.107  1.00  0.00     0.041 C 
ENDROOT
BRANCH   1   6
HETATM    6  N2  UNL     1      37.445  36.099  68.695  1.00  0.00    -0.362 N 
ATOM      7  H2  UNL     1      36.433  36.086  68.567  1.00  0.00     0.162 HD
BRANCH   6   8
HETATM    8  C2  UNL     1      38.173  37.127  68.055  1.00  0.00     0.067 C 
HETATM    9  C1  UNL     1      38.405  38.414  68.747  1.00  0.00     0.088 C 
HETATM   10  N1  UNL     1      38.634  36.942  66.878  1.00  0.00    -0.389 N 
ATOM     11  H12 UNL     1      39.160  37.684  66.416  1.00  0.00     0.157 HD
ATOM     12  H11 UNL     1      38.475  36.055  66.401  1.00  0.00     0.157 HD
ENDBRANCH   6   8
ENDBRANCH   1   6
BRANCH   1  13
HETATM   13  C4  UNL     1      37.167  33.850  69.410  1.00  0.00     0.246 C 
HETATM   14  O1  UNL     1      36.403  33.720  68.449  1.00  0.00    -0.271 OA
HETATM   15  N3  UNL     1      37.237  32.852  70.421  1.00  0.00    -0.359 N 
ATOM     16  H3  UNL     1      37.872  32.968  71.211  1.00  0.00     0.162 HD
BRANCH  15  17
HETATM   17  C5  UNL     1      36.405  31.676  70.325  1.00  0.00     0.123 C 
BRANCH  17  18
HETATM   18  C6  UNL     1      35.356  31.734  71.398  1.00  0.00     0.024 C 
BRANCH  18  19
HETATM   19  C7  UNL     1      34.017  31.223  70.921  1.00  0.00    -0.013 C 
HETATM   20  C8  UNL     1      34.081  30.579  69.580  1.00  0.00     0.005 C 
HETATM   21  C9  UNL     1      33.243  31.272  68.531  1.00  0.00     0.000 C 
HETATM   22  C10 UNL     1      31.804  31.421  68.961  1.00  0.00     0.000 C 
HETATM   23  C11 UNL     1      31.677  31.686  70.444  1.00  0.00     0.000 C 
HETATM   24  C12 UNL     1      32.974  32.341  70.930  1.00  0.00     0.005 C 
ENDBRANCH  18  19
ENDBRANCH  17  18
ENDBRANCH  15  17
ENDBRANCH   1  13
TORSDOF 6
ENDMDL
MODEL 3
REMARK VINA RESULT: -7.149586419      1.396      1.682
REMARK  6 active torsions:
REMARK  status: ('A' for Active; 'I' for Inactive)
REMARK    1  A    between atoms: C2_2  and  N2_6 
REMARK    2  A    between atoms: N2_6  and  C3_8 
REMARK    3  A    between atoms: C3_8  and  C4_9 
REMARK       I    between atoms: C4_9  and  N3_11 
REMARK    4  A    between atoms: N3_11  and  C5_13 
REMARK    5  A    between atoms: C5_13  and  C6_14 
REMARK    6  A    between atoms: C6_14  and  C7_15 
ROOT
HETATM    1  C3  UNL     1      38.182  35.871  69.919  1.00  0.00     0.112 C 
HETATM    2  C13 UNL     1      37.593  35.911  71.292  1.00  0.00     0.041 C 
HETATM    3  C14 UNL     1      38.476  36.804  72.101  1.00  0.00     0.003 C 
HETATM    4  C15 UNL     1      39.804  36.874  71.397  1.00  0.00     0.003 C 
HETATM    5  C16 UNL     1      39.641  36.179  70.069  1.00  0.00     0.041 C 
ENDROOT
BRANCH   1   6
HETATM    6  N2  UNL     1      37.538  36.790  69.004  1.00  0.00    -0.362 N 
ATOM      7  H2  UNL     1      36.525  36.886  69.064  1.00  0.00     0.162 HD
BRANCH   6   8
HETATM    8  C2  UNL     1      38.212  37.566  68.033  1.00  0.00     0.067 C 
HETATM    9  C1  UNL     1      38.408  39.016  68.247  1.00  0.00     0.088 C 
HETATM   10  N1  UNL     1      38.654  37.011  66.971  1.00  0.00    -0.389 N 
ATOM     11  H12 UNL     1      39.140  37.570  66.270  1.00  0.00     0.157 HD
ATOM     12  H11 UNL     1      38.519  36.011  66.823  1.00  0.00     0.157 HD
ENDBRANCH   6   8
ENDBRANCH   1   6
BRANCH   1  13
HETATM   13  C4  UNL     1      37.973  34.488  69.399  1.00  0.00     0.246 C 
HETATM   14  O1  UNL     1      38.626  34.086  68.431  1.00  0.00    -0.271 OA
HETATM   15  N3  UNL     1      37.016  33.645  70.029  1.00  0.00    -0.359 N 
ATOM     16  H3  UNL     1      36.482  33.985  70.829  1.00  0.00     0.162 HD
BRANCH  15  17
HETATM   17  C5  UNL     1      36.806  32.305  69.534  1.00  0.00     0.123 C 
BRANCH  17  18
HETATM   18  C6  UNL     1      35.495  32.260  68.802  1.00  0.00     0.024 C 
BRANCH  18  19
HETATM   19  C7  UNL     1      34.415  31.567  69.600  1.00  0.00    -0.013 C 
HETATM   20  C8  UNL     1      33.367  30.942  68.748  1.00  0.00     0.005 C 
HETATM   21  C9  UNL     1      31.985  31.513  68.964  1.00  0.00     0.000 C 
HETATM   22  C10 UNL     1      31.568  31.459  70.413  1.00  0.00     0.000 C 
HETATM   23  C11 UNL     1      32.730  31.700  71.349  1.00  0.00     0.000 C 
HETATM   24  C12 UNL     1      33.784  32.529  70.608  1.00  0.00     0.005 C 
ENDBRANCH  18  19
ENDBRANCH  17  18
ENDBRANCH  15  17
ENDBRANCH   1  13
TORSDOF 6
ENDMDL
MODEL 4
REMARK VINA RESULT: -7.140209381      1.159      1.642
REMARK  6 active torsions:
REMARK  status: ('A' for Active; 'I' for Inactive)
REMARK    1  A    between atoms: C2_2  and  N2_6 
REMARK    2  A    between atoms: N2_6  and  C3_8 
REMARK    3  A    between atoms: C3_8  and  C4_9 
REMARK       I    between atoms: C4_9  and  N3_11 
REMARK    4  A    between atoms: N3_11  and  C5_13 
REMARK    5  A    between atoms: C5_13  and  C6_14 
REMARK    6  A    between atoms: C6_14  and  C7_15 
ROOT
HETATM    1  C3  UNL     1      38.185  36.123  69.916  1.00  0.00     0.112 C 
HETATM    2  C13 UNL     1      37.569  36.220  71.274  1.00  0.00     0.041 C 
HETATM    3  C14 UNL     1      38.358  37.246  72.021  1.00  0.00     0.003 C 
HETATM    4  C15 UNL     1      39.688  37.373  71.331  1.00  0.00     0.003 C 
HETATM    5  C16 UNL     1      39.611  36.564  70.061  1.00  0.00     0.041 C 
ENDROOT
BRANCH   1   6
HETATM    6  N2  UNL     1      37.485  36.910  68.923  1.00  0.00    -0.362 N 
ATOM      7  H2  UNL     1      36.466  36.925  68.963  1.00  0.00     0.162 HD
BRANCH   6   8
HETATM    8  C2  UNL     1      38.110  37.660  67.901  1.00  0.00     0.067 C 
HETATM    9  C1  UNL     1      38.144  39.136  67.979  1.00  0.00     0.088 C 
HETATM   10  N1  UNL     1      38.648  37.059  66.910  1.00  0.00    -0.389 N 
ATOM     11  H12 UNL     1      39.100  37.600  66.173  1.00  0.00     0.157 HD
ATOM     12  H11 UNL     1      38.625  36.041  66.856  1.00  0.00     0.157 HD
ENDBRANCH   6   8
ENDBRANCH   1   6
BRANCH   1  13
HETATM   13  C4  UNL     1      38.103  34.691  69.506  1.00  0.00     0.246 C 
HETATM   14  O1  UNL     1      38.782  34.279  68.561  1.00  0.00    -0.271 OA
HETATM   15  N3  UNL     1      37.236  33.813  70.213  1.00  0.00    -0.359 N 
ATOM     16  H3  UNL     1      36.679  34.162  70.992  1.00  0.00     0.162 HD
BRANCH  15  17
HETATM   17  C5  UNL     1      37.148  32.425  69.823  1.00  0.00     0.123 C 
BRANCH  17  18
HETATM   18  C6  UNL     1      36.186  32.304  68.676  1.00  0.00     0.024 C 
BRANCH  18  19
HETATM   19  C7  UNL     1      34.745  32.331  69.130  1.00  0.00    -0.013 C 
HETATM   20  C8  UNL     1      34.320  31.073  69.802  1.00  0.00     0.005 C 
HETATM   21  C9  UNL     1      33.201  30.350  69.089  1.00  0.00     0.000 C 
HETATM   22  C10 UNL     1      32.003  31.240  68.860  1.00  0.00     0.000 C 
HETATM   23  C11 UNL     1      32.404  32.666  68.560  1.00  0.00     0.000 C 
HETATM   24  C12 UNL     1      33.814  32.656  67.961  1.00  0.00     0.005 C 
ENDBRANCH  18  19
ENDBRANCH  17  18
ENDBRANCH  15  17
ENDBRANCH   1  13
TORSDOF 6
ENDMDL
MODEL 5
REMARK VINA RESULT: -7.128657650      1.435      1.901
REMARK  6 active torsions:
REMARK  status: ('A' for Active; 'I' for Inactive)
REMARK    1  A    between atoms: C2_2  and  N2_6 
REMARK    2  A    between atoms: N2_6  and  C3_8 
REMARK    3  A    between atoms: C3_8  and  C4_9 
REMARK       I    between atoms: C4_9  and  N3_11 
REMARK    4  A    between atoms: N3_11  and  C5_13 
REMARK    5  A    between atoms: C5_13  and  C6_14 
REMARK    6  A    between atoms: C6_14  and  C7_15 
ROOT
HETATM    1  C3  UNL     1      38.129  35.828  69.979  1.00  0.00     0.112 C 
HETATM    2  C13 UNL     1      37.454  35.809  71.312  1.00  0.00     0.041 C 
HETATM    3  C14 UNL     1      38.245  36.719  72.195  1.00  0.00     0.003 C 
HETATM    4  C15 UNL     1      39.610  36.862  71.579  1.00  0.00     0.003 C 
HETATM    5  C16 UNL     1      39.561  36.193  70.228  1.00  0.00     0.041 C 
ENDROOT
BRANCH   1   6
HETATM    6  N2  UNL     1      37.504  36.742  69.045  1.00  0.00    -0.362 N 
ATOM      7  H2  UNL     1      36.486  36.806  69.056  1.00  0.00     0.162 HD
BRANCH   6   8
HETATM    8  C2  UNL     1      38.201  37.551  68.121  1.00  0.00     0.067 C 
HETATM    9  C1  UNL     1      38.369  38.998  68.379  1.00  0.00     0.088 C 
HETATM   10  N1  UNL     1      38.690  37.030  67.061  1.00  0.00    -0.389 N 
ATOM     11  H12 UNL     1      39.193  37.615  66.393  1.00  0.00     0.157 HD
ATOM     12  H11 UNL     1      38.574  36.033  66.882  1.00  0.00     0.157 HD
ENDBRANCH   6   8
ENDBRANCH   1   6
BRANCH   1  13
HETATM   13  C4  UNL     1      38.013  34.451  69.416  1.00  0.00     0.246 C 
HETATM   14  O1  UNL     1      38.675  34.131  68.424  1.00  0.00    -0.271 OA
HETATM   15  N3  UNL     1      37.136  33.518  70.034  1.00  0.00    -0.359 N 
ATOM     16  H3  UNL     1      36.593  33.791  70.854  1.00  0.00     0.162 HD
BRANCH  15  17
HETATM   17  C5  UNL     1      37.016  32.183  69.498  1.00  0.00     0.123 C 
BRANCH  17  18
HETATM   18  C6  UNL     1      35.959  31.444  70.267  1.00  0.00     0.024 C 
BRANCH  18  19
HETATM   19  C7  UNL     1      34.562  31.880  69.889  1.00  0.00    -0.013 C 
HETATM   20  C8  UNL     1      33.825  32.520  71.012  1.00  0.00     0.005 C 
HETATM   21  C9  UNL     1      32.573  31.778  71.421  1.00  0.00     0.000 C 
HETATM   22  C10 UNL     1      31.640  31.553  70.256  1.00  0.00     0.000 C 
HETATM   23  C11 UNL     1      32.389  31.289  68.970  1.00  0.00     0.000 C 
HETATM   24  C12 UNL     1      33.762  30.707  69.321  1.00  0.00     0.005 C 
ENDBRANCH  18  19
ENDBRANCH  17  18
ENDBRANCH  15  17
ENDBRANCH   1  13
TORSDOF 6
ENDMDL
