MODEL 1
REMARK VINA RESULT: -6.728196141      0.000      0.000
REMARK  6 active torsions:
REMARK  status: ('A' for Active; 'I' for Inactive)
REMARK    1  A    between atoms: N1_1  and  C1_5 
REMARK    2  A    between atoms: C1_5  and  C2_6 
REMARK    3  A    between atoms: C2_6  and  C3_7 
REMARK    4  A    between atoms: C10_17  and  C11_18 
REMARK    5  A    between atoms: C11_18  and  C12_19 
REMARK    6  A    between atoms: C12_19  and  C13_20 
ROOT
HETATM    1  C3  UNL     1      35.298  33.218  71.331  1.00  0.00     0.002 C 
HETATM    2  C4  UNL     1      33.854  32.845  71.564  1.00  0.00     0.036 C 
HETATM    3  C5  UNL     1      33.316  31.836  70.569  1.00  0.00     0.033 C 
HETATM    4  C6  UNL     1      32.850  32.372  69.261  1.00  0.00     0.031 C 
HETATM    5  C7  UNL     1      31.568  31.560  69.437  1.00  0.00     0.005 C 
HETATM    6  C8  UNL     1      31.903  31.473  70.915  1.00  0.00     0.031 C 
HETATM    7  N2  UNL     1      34.226  30.678  70.491  1.00  0.00    -0.351 N 
ATOM      8  H2  UNL     1      33.876  29.725  70.388  1.00  0.00     0.163 HD
HETATM    9  C9  UNL     1      35.622  30.961  70.567  1.00  0.00     0.222 C 
HETATM   10  O1  UNL     1      36.383  30.004  70.839  1.00  0.00    -0.273 OA
HETATM   11  C10 UNL     1      35.989  32.350  70.314  1.00  0.00     0.082 C 
ENDROOT
BRANCH  11  12
HETATM   12  C11 UNL     1      37.414  32.674  70.234  1.00  0.00     0.015 C 
BRANCH  12  13
HETATM   13  C12 UNL     1      37.826  33.631  69.156  1.00  0.00     0.005 C 
BRANCH  13  14
HETATM   14  C13 UNL     1      37.970  35.052  69.659  1.00  0.00    -0.011 C 
HETATM   15  C14 UNL     1      38.376  35.895  68.447  1.00  0.00     0.032 C 
HETATM   16  C15 UNL     1      38.452  37.325  68.936  1.00  0.00     0.232 C 
HETATM   17  N3  UNL     1      39.572  37.459  69.841  1.00  0.00    -0.075 N 
HETATM   18  C16 UNL     1      40.114  36.208  70.274  1.00  0.00     0.232 C 
ATOM     19  H32 UNL     1      40.300  38.044  69.430  1.00  0.00     0.277 HD
ATOM     20  H31 UNL     1      39.320  38.039  70.642  1.00  0.00     0.277 HD
HETATM   21  C17 UNL     1      39.060  35.201  70.676  1.00  0.00     0.032 C 
ENDBRANCH  13  14
ENDBRANCH  12  13
ENDBRANCH  11  12
BRANCH   1  22
HETATM   22  C2  UNL     1      35.968  33.253  72.673  1.00  0.00     0.032 C 
BRANCH  22  23
HETATM   23  C1  UNL     1      35.978  34.689  73.184  1.00  0.00     0.230 C 
BRANCH  23  24
HETATM   24  N1  UNL     1      35.083  34.741  74.346  1.00  0.00    -0.079 N 
ATOM     25  H13 UNL     1      35.477  35.263  75.130  1.00  0.00     0.274 HD
ATOM     26  H12 UNL     1      34.265  35.330  74.194  1.00  0.00     0.274 HD
ATOM     27  H11 UNL     1      34.845  33.779  74.585  1.00  0.00     0.274 HD
ENDBRANCH  23  24
ENDBRANCH  22  23
ENDBRANCH   1  22
TORSDOF 6
ENDMDL
MODEL 2
REMARK VINA RESULT: -6.617260187      0.502      1.168
REMARK  6 active torsions:
REMARK  status: ('A' for Active; 'I' for Inactive)
REMARK    1  A    between atoms: N1_1  and  C1_5 
REMARK    2  A    between atoms: C1_5  and  C2_6 
REMARK    3  A    between atoms: C2_6  and  C3_7 
REMARK    4  A    between atoms: C10_17  and  C11_18 
REMARK    5  A    between atoms: C11_18  and  C12_19 
REMARK    6  A    between atoms: C12_19  and  C13_20 
ROOT
HETATM    1  C3  UNL     1      35.526  33.489  71.579  1.00  0.00     0.002 C 
HETATM    2  C4  UNL     1      34.153  32.960  71.918  1.00  0.00     0.036 C 
HETATM    3  C5  UNL     1      33.614  31.969  70.906  1.00  0.00     0.033 C 
HETATM    4  C6  UNL     1      32.972  32.539  69.691  1.00  0.00     0.031 C 
HETATM    5  C7  UNL     1      31.794  31.594  69.925  1.00  0.00     0.005 C 
HETATM    6  C8  UNL     1      32.282  31.445  71.355  1.00  0.00     0.031 C 
HETATM    7  N2  UNL     1      34.615  30.914  70.658  1.00  0.00    -0.351 N 
ATOM      8  H2  UNL     1      34.346  29.940  70.518  1.00  0.00     0.163 HD
HETATM    9  C9  UNL     1      35.980  31.329  70.624  1.00  0.00     0.222 C 
HETATM   10  O1  UNL     1      36.849  30.437  70.752  1.00  0.00    -0.273 OA
HETATM   11  C10 UNL     1      36.189  32.761  70.441  1.00  0.00     0.082 C 
ENDROOT
BRANCH  11  12
HETATM   12  C11 UNL     1      37.562  33.230  70.252  1.00  0.00     0.015 C 
BRANCH  12  13
HETATM   13  C12 UNL     1      37.889  33.836  68.921  1.00  0.00     0.005 C 
BRANCH  13  14
HETATM   14  C13 UNL     1      38.939  34.922  69.015  1.00  0.00    -0.011 C 
HETATM   15  C14 UNL     1      39.036  35.296  70.497  1.00  0.00     0.032 C 
HETATM   16  C15 UNL     1      40.134  36.331  70.600  1.00  0.00     0.232 C 
HETATM   17  N3  UNL     1      39.697  37.554  69.962  1.00  0.00    -0.075 N 
HETATM   18  C16 UNL     1      38.522  37.395  69.160  1.00  0.00     0.232 C 
ATOM     19  H32 UNL     1      39.564  38.293  70.653  1.00  0.00     0.277 HD
ATOM     20  H31 UNL     1      40.453  37.966  69.415  1.00  0.00     0.277 HD
HETATM   21  C17 UNL     1      38.556  36.169  68.277  1.00  0.00     0.032 C 
ENDBRANCH  13  14
ENDBRANCH  12  13
ENDBRANCH  11  12
BRANCH   1  22
HETATM   22  C2  UNL     1      36.321  33.503  72.852  1.00  0.00     0.032 C 
BRANCH  22  23
HETATM   23  C1  UNL     1      36.244  34.897  73.467  1.00  0.00     0.230 C 
BRANCH  23  24
HETATM   24  N1  UNL     1      35.181  34.866  74.477  1.00  0.00    -0.079 N 
ATOM     25  H13 UNL     1      34.598  35.704  74.471  1.00  0.00     0.274 HD
ATOM     26  H12 UNL     1      34.445  34.193  74.263  1.00  0.00     0.274 HD
ATOM     27  H11 UNL     1      35.627  34.696  75.378  1.00  0.00     0.274 HD
ENDBRANCH  23  24
ENDBRANCH  22  23
ENDBRANCH   1  22
TORSDOF 6
ENDMDL
MODEL 3
REMARK VINA RESULT: -6.542284627      1.067      1.081
REMARK  6 active torsions:
REMARK  status: ('A' for Active; 'I' for Inactive)
REMARK    1  A    between atoms: N1_1  and  C1_5 
REMARK    2  A    between atoms: C1_5  and  C2_6 
REMARK    3  A    between atoms: C2_6  and  C3_7 
REMARK    4  A    between atoms: C10_17  and  C11_18 
REMARK    5  A    between atoms: C11_18  and  C12_19 
REMARK    6  A    between atoms: C12_19  and  C13_20 
ROOT
HETATM    1  C3  UNL     1      35.765  33.447  71.393  1.00  0.00     0.002 C 
HETATM    2  C4  UNL     1      34.429  32.746  71.452  1.00  0.00     0.036 C 
HETATM    3  C5  UNL     1      34.198  31.777  70.311  1.00  0.00     0.033 C 
HETATM    4  C6  UNL     1      33.713  32.356  69.030  1.00  0.00     0.031 C 
HETATM    5  C7  UNL     1      32.636  31.273  69.000  1.00  0.00     0.005 C 
HETATM    6  C8  UNL     1      32.883  31.078  70.485  1.00  0.00     0.031 C 
HETATM    7  N2  UNL     1      35.349  30.860  70.195  1.00  0.00    -0.351 N 
ATOM      8  H2  UNL     1      35.228  29.874  69.960  1.00  0.00     0.163 HD
HETATM    9  C9  UNL     1      36.638  31.424  70.429  1.00  0.00     0.222 C 
HETATM   10  O1  UNL     1      37.573  30.627  70.667  1.00  0.00    -0.273 OA
HETATM   11  C10 UNL     1      36.699  32.880  70.359  1.00  0.00     0.082 C 
ENDROOT
BRANCH  11  12
HETATM   12  C11 UNL     1      38.017  33.511  70.445  1.00  0.00     0.015 C 
BRANCH  12  13
HETATM   13  C12 UNL     1      38.461  34.306  69.255  1.00  0.00     0.005 C 
BRANCH  13  14
HETATM   14  C13 UNL     1      37.872  35.701  69.232  1.00  0.00    -0.011 C 
HETATM   15  C14 UNL     1      38.590  36.450  68.105  1.00  0.00     0.032 C 
HETATM   16  C15 UNL     1      37.953  37.820  68.037  1.00  0.00     0.232 C 
HETATM   17  N3  UNL     1      38.304  38.567  69.225  1.00  0.00    -0.075 N 
HETATM   18  C16 UNL     1      38.875  37.762  70.262  1.00  0.00     0.232 C 
ATOM     19  H32 UNL     1      38.921  39.345  68.993  1.00  0.00     0.277 HD
ATOM     20  H31 UNL     1      37.499  39.086  69.576  1.00  0.00     0.277 HD
HETATM   21  C17 UNL     1      38.135  36.465  70.495  1.00  0.00     0.032 C 
ENDBRANCH  13  14
ENDBRANCH  12  13
ENDBRANCH  11  12
BRANCH   1  22
HETATM   22  C2  UNL     1      36.319  33.459  72.788  1.00  0.00     0.032 C 
BRANCH  22  23
HETATM   23  C1  UNL     1      36.112  34.845  73.390  1.00  0.00     0.230 C 
BRANCH  23  24
HETATM   24  N1  UNL     1      35.041  34.727  74.386  1.00  0.00    -0.079 N 
ATOM     25  H13 UNL     1      35.123  35.406  75.144  1.00  0.00     0.274 HD
ATOM     26  H12 UNL     1      34.133  35.031  74.035  1.00  0.00     0.274 HD
ATOM     27  H11 UNL     1      35.040  33.761  74.714  1.00  0.00     0.274 HD
ENDBRANCH  23  24
ENDBRANCH  22  23
ENDBRANCH   1  22
TORSDOF 6
ENDMDL
MODEL 4
REMARK VINA RESULT: -6.442597560      2.070      6.463
REMARK  6 active torsions:
REMARK  status: ('A' for Active; 'I' for Inactive)
REMARK    1  A    between atoms: N1_1  and  C1_5 
REMARK    2  A    between atoms: C1_5  and  C2_6 
REMARK    3  A    between atoms: C2_6  and  C3_7 
REMARK    4  A    between atoms: C10_17  and  C11_18 
REMARK    5  A    between atoms: C11_18  and  C12_19 
REMARK    6  A    between atoms: C12_19  and  C13_20 
ROOT
HETATM    1  C3  UNL     1      38.217  34.525  71.072  1.00  0.00     0.002 C 
HETATM    2  C4  UNL     1      39.293  35.382  71.694  1.00  0.00     0.036 C 
HETATM    3  C5  UNL     1      40.285  35.938  70.693  1.00  0.00     0.033 C 
HETATM    4  C6  UNL     1      41.395  35.038  70.281  1.00  0.00     0.031 C 
HETATM    5  C7  UNL     1      42.366  36.187  70.550  1.00  0.00     0.005 C 
HETATM    6  C8  UNL     1      41.273  36.829  71.385  1.00  0.00     0.031 C 
HETATM    7  N2  UNL     1      39.562  36.597  69.588  1.00  0.00    -0.351 N 
ATOM      8  H2  UNL     1      39.907  37.455  69.156  1.00  0.00     0.163 HD
HETATM    9  C9  UNL     1      38.356  35.971  69.155  1.00  0.00     0.222 C 
HETATM   10  O1  UNL     1      37.567  36.666  68.474  1.00  0.00    -0.273 OA
HETATM   11  C10 UNL     1      38.195  34.581  69.568  1.00  0.00     0.082 C 
ENDROOT
BRANCH  11  12
HETATM   12  C11 UNL     1      37.051  33.841  69.035  1.00  0.00     0.015 C 
BRANCH  12  13
HETATM   13  C12 UNL     1      37.054  32.357  69.244  1.00  0.00     0.005 C 
BRANCH  13  14
HETATM   14  C13 UNL     1      35.681  31.740  69.076  1.00  0.00    -0.011 C 
HETATM   15  C14 UNL     1      34.866  32.732  68.241  1.00  0.00     0.032 C 
HETATM   16  C15 UNL     1      33.518  32.084  68.015  1.00  0.00     0.232 C 
HETATM   17  N3  UNL     1      32.804  32.021  69.271  1.00  0.00    -0.075 N 
HETATM   18  C16 UNL     1      33.625  32.285  70.413  1.00  0.00     0.232 C 
ATOM     19  H32 UNL     1      31.996  32.643  69.258  1.00  0.00     0.277 HD
ATOM     20  H31 UNL     1      32.328  31.124  69.371  1.00  0.00     0.277 HD
HETATM   21  C17 UNL     1      34.956  31.569  70.377  1.00  0.00     0.032 C 
ENDBRANCH  13  14
ENDBRANCH  12  13
ENDBRANCH  11  12
BRANCH   1  22
HETATM   22  C2  UNL     1      36.920  34.902  71.724  1.00  0.00     0.032 C 
BRANCH  22  23
HETATM   23  C1  UNL     1      36.580  33.861  72.786  1.00  0.00     0.230 C 
BRANCH  23  24
HETATM   24  N1  UNL     1      35.202  34.120  73.219  1.00  0.00    -0.079 N 
ATOM     25  H13 UNL     1      34.911  35.086  73.070  1.00  0.00     0.274 HD
ATOM     26  H12 UNL     1      34.505  33.679  72.619  1.00  0.00     0.274 HD
ATOM     27  H11 UNL     1      35.133  33.827  74.193  1.00  0.00     0.274 HD
ENDBRANCH  23  24
ENDBRANCH  22  23
ENDBRANCH   1  22
TORSDOF 6
ENDMDL
MODEL 5
REMARK VINA RESULT: -6.363216328      1.929      5.894
REMARK  6 active torsions:
REMARK  status: ('A' for Active; 'I' for Inactive)
REMARK    1  A    between atoms: N1_1  and  C1_5 
REMARK    2  A    between atoms: C1_5  and  C2_6 
REMARK    3  A    between atoms: C2_6  and  C3_7 
REMARK    4  A    between atoms: C10_17  and  C11_18 
REMARK    5  A    between atoms: C11_18  and  C12_19 
REMARK    6  A    between atoms: C12_19  and  C13_20 
ROOT
HETATM    1  C3  UNL     1      36.701  33.771  70.591  1.00  0.00     0.002 C 
HETATM    2  C4  UNL     1      37.211  34.957  71.373  1.00  0.00     0.036 C 
HETATM    3  C5  UNL     1      37.406  34.676  72.849  1.00  0.00     0.033 C 
HETATM    4  C6  UNL     1      36.197  34.767  73.712  1.00  0.00     0.031 C 
HETATM    5  C7  UNL     1      37.005  35.636  74.674  1.00  0.00     0.005 C 
HETATM    6  C8  UNL     1      37.977  35.882  73.534  1.00  0.00     0.031 C 
HETATM    7  N2  UNL     1      38.216  33.454  73.022  1.00  0.00    -0.351 N 
ATOM      8  H2  UNL     1      38.913  33.372  73.762  1.00  0.00     0.163 HD
HETATM    9  C9  UNL     1      37.971  32.395  72.098  1.00  0.00     0.222 C 
HETATM   10  O1  UNL     1      38.850  31.506  72.006  1.00  0.00    -0.273 OA
HETATM   11  C10 UNL     1      36.710  32.484  71.370  1.00  0.00     0.082 C 
ENDROOT
BRANCH  11  12
HETATM   12  C11 UNL     1      36.335  31.355  70.518  1.00  0.00     0.015 C 
BRANCH  12  13
HETATM   13  C12 UNL     1      35.224  30.480  71.013  1.00  0.00     0.005 C 
BRANCH  13  14
HETATM   14  C13 UNL     1      33.967  30.604  70.178  1.00  0.00    -0.011 C 
HETATM   15  C14 UNL     1      34.367  31.367  68.912  1.00  0.00     0.032 C 
HETATM   16  C15 UNL     1      33.128  31.429  68.047  1.00  0.00     0.232 C 
HETATM   17  N3  UNL     1      32.151  32.291  68.677  1.00  0.00    -0.075 N 
HETATM   18  C16 UNL     1      32.457  32.606  70.039  1.00  0.00     0.232 C 
ATOM     19  H32 UNL     1      32.018  33.143  68.131  1.00  0.00     0.277 HD
ATOM     20  H31 UNL     1      31.216  31.892  68.601  1.00  0.00     0.277 HD
HETATM   21  C17 UNL     1      32.897  31.410  70.850  1.00  0.00     0.032 C 
ENDBRANCH  13  14
ENDBRANCH  12  13
ENDBRANCH  11  12
BRANCH   1  22
HETATM   22  C2  UNL     1      37.475  33.723  69.306  1.00  0.00     0.032 C 
BRANCH  22  23
HETATM   23  C1  UNL     1      37.742  35.149  68.836  1.00  0.00     0.230 C 
BRANCH  23  24
HETATM   24  N1  UNL     1      39.110  35.182  68.309  1.00  0.00    -0.079 N 
ATOM     25  H13 UNL     1      39.759  34.603  68.843  1.00  0.00     0.274 HD
ATOM     26  H12 UNL     1      39.207  34.697  67.417  1.00  0.00     0.274 HD
ATOM     27  H11 UNL     1      39.392  36.161  68.264  1.00  0.00     0.274 HD
ENDBRANCH  23  24
ENDBRANCH  22  23
ENDBRANCH   1  22
TORSDOF 6
ENDMDL
