MODEL 1
REMARK VINA RESULT: -7.753460883      0.000      0.000
REMARK  7 active torsions:
REMARK  status: ('A' for Active; 'I' for Inactive)
REMARK       I    between atoms: C1_2  and  N1_3 
REMARK       I    between atoms: C1_2  and  N2_12 
REMARK    1  A    between atoms: N1_3  and  C2_5 
REMARK    2  A    between atoms: C2_5  and  C3_6 
REMARK    3  A    between atoms: C3_6  and  C4_7 
REMARK    4  A    between atoms: C4_7  and  C5_8 
REMARK    5  A    between atoms: C5_8  and  C6_9 
REMARK    6  A    between atoms: C6_9  and  O2_10 
REMARK    7  A    between atoms: N2_12  and  C7_14 
ROOT
HETATM    1  O1  UNL     1      37.314  34.444  70.392  1.00  0.00    -0.247 OA
HETATM    2  C1  UNL     1      37.125  34.238  69.170  1.00  0.00     0.316 C 
HETATM    3  N1  UNL     1      37.798  35.049  68.252  1.00  0.00    -0.343 N 
ATOM      4  H1  UNL     1      37.630  34.871  67.261  1.00  0.00     0.164 HD
HETATM    5  N2  UNL     1      36.262  33.221  68.764  1.00  0.00    -0.334 N 
ATOM      6  H2  UNL     1      36.148  33.100  67.758  1.00  0.00     0.165 HD
ENDROOT
BRANCH   5   7
HETATM    7  C7  UNL     1      35.514  32.321  69.602  1.00  0.00     0.035 C 
HETATM    8  C8  UNL     1      34.645  33.096  70.580  1.00  0.00     0.035 C 
HETATM    9  C9  UNL     1      33.789  32.165  71.374  1.00  0.00    -0.012 C 
HETATM   10  C10 UNL     1      34.602  31.135  72.136  1.00  0.00     0.009 C 
HETATM   11  C14 UNL     1      32.833  31.412  70.480  1.00  0.00     0.009 C 
HETATM   12  C11 UNL     1      35.454  30.410  71.132  1.00  0.00    -0.012 C 
HETATM   13  C12 UNL     1      34.551  29.641  70.215  1.00  0.00     0.009 C 
HETATM   14  C16 UNL     1      36.361  31.351  70.375  1.00  0.00     0.035 C 
HETATM   15  C13 UNL     1      33.648  30.631  69.502  1.00  0.00    -0.012 C 
HETATM   16  C15 UNL     1      34.551  31.556  68.718  1.00  0.00     0.035 C 
ENDBRANCH   5   7
BRANCH   3  17
HETATM   17  C2  UNL     1      38.711  36.122  68.585  1.00  0.00     0.124 C 
BRANCH  17  18
HETATM   18  C3  UNL     1      38.323  37.432  68.006  1.00  0.00     0.020 C 
BRANCH  18  19
HETATM   19  C4  UNL     1      38.305  37.353  66.504  1.00  0.00     0.004 C 
BRANCH  19  20
HETATM   20  C5  UNL     1      38.388  38.725  65.887  1.00  0.00     0.026 C 
BRANCH  20  21
HETATM   21  C6  UNL     1      36.979  39.327  66.076  1.00  0.00     0.164 C 
BRANCH  21  22
HETATM   22  O2  UNL     1      36.717  40.095  64.938  1.00  0.00    -0.401 OA
ATOM     23  H2  UNL     1      36.089  39.605  64.420  1.00  0.00     0.209 HD
ENDBRANCH  21  22
ENDBRANCH  20  21
ENDBRANCH  19  20
ENDBRANCH  18  19
ENDBRANCH  17  18
ENDBRANCH   3  17
TORSDOF 7
ENDMDL
MODEL 2
REMARK VINA RESULT: -7.560999509      0.105      1.636
REMARK  7 active torsions:
REMARK  status: ('A' for Active; 'I' for Inactive)
REMARK       I    between atoms: C1_2  and  N1_3 
REMARK       I    between atoms: C1_2  and  N2_12 
REMARK    1  A    between atoms: N1_3  and  C2_5 
REMARK    2  A    between atoms: C2_5  and  C3_6 
REMARK    3  A    between atoms: C3_6  and  C4_7 
REMARK    4  A    between atoms: C4_7  and  C5_8 
REMARK    5  A    between atoms: C5_8  and  C6_9 
REMARK    6  A    between atoms: C6_9  and  O2_10 
REMARK    7  A    between atoms: N2_12  and  C7_14 
ROOT
HETATM    1  O1  UNL     1      37.138  34.504  70.375  1.00  0.00    -0.247 OA
HETATM    2  C1  UNL     1      37.078  34.214  69.156  1.00  0.00     0.316 C 
HETATM    3  N1  UNL     1      37.864  34.948  68.264  1.00  0.00    -0.343 N 
ATOM      4  H1  UNL     1      37.799  34.703  67.276  1.00  0.00     0.164 HD
HETATM    5  N2  UNL     1      36.240  33.184  68.729  1.00  0.00    -0.334 N 
ATOM      6  H2  UNL     1      36.232  32.995  67.727  1.00  0.00     0.165 HD
ENDROOT
BRANCH   5   7
HETATM    7  C7  UNL     1      35.385  32.358  69.540  1.00  0.00     0.035 C 
HETATM    8  C8  UNL     1      34.451  31.534  68.668  1.00  0.00     0.035 C 
HETATM    9  C9  UNL     1      33.641  30.598  69.504  1.00  0.00    -0.012 C 
HETATM   10  C10 UNL     1      32.829  31.319  70.563  1.00  0.00     0.009 C 
HETATM   11  C14 UNL     1      34.527  29.603  70.216  1.00  0.00     0.009 C 
HETATM   12  C11 UNL     1      33.791  32.130  71.386  1.00  0.00    -0.012 C 
HETATM   13  C12 UNL     1      34.698  31.188  72.118  1.00  0.00     0.009 C 
HETATM   14  C16 UNL     1      34.563  33.118  70.541  1.00  0.00     0.035 C 
HETATM   15  C13 UNL     1      35.462  30.373  71.090  1.00  0.00    -0.012 C 
HETATM   16  C15 UNL     1      36.260  31.355  70.263  1.00  0.00     0.035 C 
ENDBRANCH   5   7
BRANCH   3  17
HETATM   17  C2  UNL     1      38.761  36.027  68.621  1.00  0.00     0.124 C 
BRANCH  17  18
HETATM   18  C3  UNL     1      38.340  37.347  68.089  1.00  0.00     0.020 C 
BRANCH  18  19
HETATM   19  C4  UNL     1      38.306  37.316  66.585  1.00  0.00     0.004 C 
BRANCH  19  20
HETATM   20  C5  UNL     1      38.402  38.705  66.011  1.00  0.00     0.026 C 
BRANCH  20  21
HETATM   21  C6  UNL     1      36.976  39.282  66.135  1.00  0.00     0.164 C 
BRANCH  21  22
HETATM   22  O2  UNL     1      36.757  40.056  64.993  1.00  0.00    -0.401 OA
ATOM     23  H2  UNL     1      35.867  40.384  65.053  1.00  0.00     0.209 HD
ENDBRANCH  21  22
ENDBRANCH  20  21
ENDBRANCH  19  20
ENDBRANCH  18  19
ENDBRANCH  17  18
ENDBRANCH   3  17
TORSDOF 7
ENDMDL
MODEL 3
REMARK VINA RESULT: -7.534531662      0.118      1.634
REMARK  7 active torsions:
REMARK  status: ('A' for Active; 'I' for Inactive)
REMARK       I    between atoms: C1_2  and  N1_3 
REMARK       I    between atoms: C1_2  and  N2_12 
REMARK    1  A    between atoms: N1_3  and  C2_5 
REMARK    2  A    between atoms: C2_5  and  C3_6 
REMARK    3  A    between atoms: C3_6  and  C4_7 
REMARK    4  A    between atoms: C4_7  and  C5_8 
REMARK    5  A    between atoms: C5_8  and  C6_9 
REMARK    6  A    between atoms: C6_9  and  O2_10 
REMARK    7  A    between atoms: N2_12  and  C7_14 
ROOT
HETATM    1  O1  UNL     1      37.211  34.366  70.350  1.00  0.00    -0.247 OA
HETATM    2  C1  UNL     1      37.069  34.206  69.114  1.00  0.00     0.316 C 
HETATM    3  N1  UNL     1      37.776  35.049  68.253  1.00  0.00    -0.343 N 
ATOM      4  H1  UNL     1      37.646  34.908  67.251  1.00  0.00     0.164 HD
HETATM    5  N2  UNL     1      36.221  33.206  68.638  1.00  0.00    -0.334 N 
ATOM      6  H2  UNL     1      36.145  33.123  67.624  1.00  0.00     0.165 HD
ENDROOT
BRANCH   5   7
HETATM    7  C7  UNL     1      35.441  32.277  69.413  1.00  0.00     0.035 C 
HETATM    8  C8  UNL     1      36.346  31.365  70.226  1.00  0.00     0.035 C 
HETATM    9  C9  UNL     1      35.536  30.476  71.112  1.00  0.00    -0.012 C 
HETATM   10  C10 UNL     1      34.543  29.631  70.336  1.00  0.00     0.009 C 
HETATM   11  C14 UNL     1      34.750  31.283  72.118  1.00  0.00     0.009 C 
HETATM   12  C11 UNL     1      33.686  30.573  69.537  1.00  0.00    -0.012 C 
HETATM   13  C12 UNL     1      32.880  31.402  70.491  1.00  0.00     0.009 C 
HETATM   14  C16 UNL     1      34.507  31.428  68.599  1.00  0.00     0.035 C 
HETATM   15  C13 UNL     1      33.842  32.194  71.358  1.00  0.00    -0.012 C 
HETATM   16  C15 UNL     1      34.645  33.073  70.427  1.00  0.00     0.035 C 
ENDBRANCH   5   7
BRANCH   3  17
HETATM   17  C2  UNL     1      38.677  36.106  68.661  1.00  0.00     0.124 C 
BRANCH  17  18
HETATM   18  C3  UNL     1      38.337  37.430  68.082  1.00  0.00     0.020 C 
BRANCH  18  19
HETATM   19  C4  UNL     1      38.301  37.349  66.580  1.00  0.00     0.004 C 
BRANCH  19  20
HETATM   20  C5  UNL     1      38.391  38.719  65.960  1.00  0.00     0.026 C 
BRANCH  20  21
HETATM   21  C6  UNL     1      36.973  39.311  66.109  1.00  0.00     0.164 C 
BRANCH  21  22
HETATM   22  O2  UNL     1      36.740  40.083  64.968  1.00  0.00    -0.401 OA
ATOM     23  H2  UNL     1      36.896  40.987  65.215  1.00  0.00     0.209 HD
ENDBRANCH  21  22
ENDBRANCH  20  21
ENDBRANCH  19  20
ENDBRANCH  18  19
ENDBRANCH  17  18
ENDBRANCH   3  17
TORSDOF 7
ENDMDL
MODEL 4
REMARK VINA RESULT: -7.414977865      1.005      1.086
REMARK  7 active torsions:
REMARK  status: ('A' for Active; 'I' for Inactive)
REMARK       I    between atoms: C1_2  and  N1_3 
REMARK       I    between atoms: C1_2  and  N2_12 
REMARK    1  A    between atoms: N1_3  and  C2_5 
REMARK    2  A    between atoms: C2_5  and  C3_6 
REMARK    3  A    between atoms: C3_6  and  C4_7 
REMARK    4  A    between atoms: C4_7  and  C5_8 
REMARK    5  A    between atoms: C5_8  and  C6_9 
REMARK    6  A    between atoms: C6_9  and  O2_10 
REMARK    7  A    between atoms: N2_12  and  C7_14 
ROOT
HETATM    1  O1  UNL     1      37.572  34.119  70.676  1.00  0.00    -0.247 OA
HETATM    2  C1  UNL     1      37.495  33.905  69.443  1.00  0.00     0.316 C 
HETATM    3  N1  UNL     1      38.326  34.641  68.592  1.00  0.00    -0.343 N 
ATOM      4  H1  UNL     1      38.248  34.457  67.592  1.00  0.00     0.164 HD
HETATM    5  N2  UNL     1      36.597  32.954  68.959  1.00  0.00    -0.334 N 
ATOM      6  H2  UNL     1      36.579  32.824  67.948  1.00  0.00     0.165 HD
ENDROOT
BRANCH   5   7
HETATM    7  C7  UNL     1      35.693  32.136  69.723  1.00  0.00     0.035 C 
HETATM    8  C8  UNL     1      34.835  32.995  70.639  1.00  0.00     0.035 C 
HETATM    9  C9  UNL     1      33.824  32.157  71.350  1.00  0.00    -0.012 C 
HETATM   10  C10 UNL     1      34.459  31.043  72.161  1.00  0.00     0.009 C 
HETATM   11  C14 UNL     1      32.869  31.513  70.372  1.00  0.00     0.009 C 
HETATM   12  C11 UNL     1      35.308  30.235  71.220  1.00  0.00    -0.012 C 
HETATM   13  C12 UNL     1      34.406  29.570  70.223  1.00  0.00     0.009 C 
HETATM   14  C16 UNL     1      36.368  31.078  70.549  1.00  0.00     0.035 C 
HETATM   15  C13 UNL     1      33.674  30.654  69.453  1.00  0.00    -0.012 C 
HETATM   16  C15 UNL     1      34.729  31.481  68.756  1.00  0.00     0.035 C 
ENDBRANCH   5   7
BRANCH   3  17
HETATM   17  C2  UNL     1      39.286  35.640  69.009  1.00  0.00     0.124 C 
BRANCH  17  18
HETATM   18  C3  UNL     1      38.719  37.010  69.087  1.00  0.00     0.020 C 
BRANCH  18  19
HETATM   19  C4  UNL     1      37.929  37.318  67.844  1.00  0.00     0.004 C 
BRANCH  19  20
HETATM   20  C5  UNL     1      38.278  38.680  67.304  1.00  0.00     0.026 C 
BRANCH  20  21
HETATM   21  C6  UNL     1      38.638  38.435  65.823  1.00  0.00     0.164 C 
BRANCH  21  22
HETATM   22  O2  UNL     1      38.336  37.097  65.555  1.00  0.00    -0.401 OA
ATOM     23  H2  UNL     1      37.816  36.784  66.286  1.00  0.00     0.209 HD
ENDBRANCH  21  22
ENDBRANCH  20  21
ENDBRANCH  19  20
ENDBRANCH  18  19
ENDBRANCH  17  18
ENDBRANCH   3  17
TORSDOF 7
ENDMDL
MODEL 5
REMARK VINA RESULT: -7.226634586      0.978      1.952
REMARK  7 active torsions:
REMARK  status: ('A' for Active; 'I' for Inactive)
REMARK       I    between atoms: C1_2  and  N1_3 
REMARK       I    between atoms: C1_2  and  N2_12 
REMARK    1  A    between atoms: N1_3  and  C2_5 
REMARK    2  A    between atoms: C2_5  and  C3_6 
REMARK    3  A    between atoms: C3_6  and  C4_7 
REMARK    4  A    between atoms: C4_7  and  C5_8 
REMARK    5  A    between atoms: C5_8  and  C6_9 
REMARK    6  A    between atoms: C6_9  and  O2_10 
REMARK    7  A    between atoms: N2_12  and  C7_14 
ROOT
HETATM    1  O1  UNL     1      37.505  33.919  70.641  1.00  0.00    -0.247 OA
HETATM    2  C1  UNL     1      37.353  33.895  69.396  1.00  0.00     0.316 C 
HETATM    3  N1  UNL     1      38.165  34.722  68.615  1.00  0.00    -0.343 N 
ATOM      4  H1  UNL     1      38.025  34.693  67.605  1.00  0.00     0.164 HD
HETATM    5  N2  UNL     1      36.390  33.058  68.832  1.00  0.00    -0.334 N 
ATOM      6  H2  UNL     1      36.312  33.081  67.816  1.00  0.00     0.165 HD
ENDROOT
BRANCH   5   7
HETATM    7  C7  UNL     1      35.496  32.164  69.520  1.00  0.00     0.035 C 
HETATM    8  C8  UNL     1      36.277  31.168  70.363  1.00  0.00     0.035 C 
HETATM    9  C9  UNL     1      35.348  30.313  71.160  1.00  0.00    -0.012 C 
HETATM   10  C10 UNL     1      34.357  29.562  70.290  1.00  0.00     0.009 C 
HETATM   11  C14 UNL     1      34.548  31.144  72.136  1.00  0.00     0.009 C 
HETATM   12  C11 UNL     1      33.626  30.584  69.465  1.00  0.00    -0.012 C 
HETATM   13  C12 UNL     1      32.811  31.440  70.388  1.00  0.00     0.009 C 
HETATM   14  C16 UNL     1      34.568  31.406  68.616  1.00  0.00     0.035 C 
HETATM   15  C13 UNL     1      33.761  32.137  71.346  1.00  0.00    -0.012 C 
HETATM   16  C15 UNL     1      34.686  32.984  70.502  1.00  0.00     0.035 C 
ENDBRANCH   5   7
BRANCH   3  17
HETATM   17  C2  UNL     1      39.188  35.616  69.117  1.00  0.00     0.124 C 
BRANCH  17  18
HETATM   18  C3  UNL     1      38.785  37.044  69.101  1.00  0.00     0.020 C 
BRANCH  18  19
HETATM   19  C4  UNL     1      37.967  37.342  67.874  1.00  0.00     0.004 C 
BRANCH  19  20
HETATM   20  C5  UNL     1      38.297  38.703  67.318  1.00  0.00     0.026 C 
BRANCH  20  21
HETATM   21  C6  UNL     1      38.417  38.487  65.794  1.00  0.00     0.164 C 
BRANCH  21  22
HETATM   22  O2  UNL     1      38.419  37.105  65.586  1.00  0.00    -0.401 OA
ATOM     23  H2  UNL     1      39.265  36.888  65.211  1.00  0.00     0.209 HD
ENDBRANCH  21  22
ENDBRANCH  20  21
ENDBRANCH  19  20
ENDBRANCH  18  19
ENDBRANCH  17  18
ENDBRANCH   3  17
TORSDOF 7
ENDMDL
