MODEL 1
REMARK VINA RESULT: -6.397435258      0.000      0.000
REMARK  5 active torsions:
REMARK  status: ('A' for Active; 'I' for Inactive)
REMARK    1  A    between atoms: C2_2  and  N1_3 
REMARK    2  A    between atoms: N1_3  and  C3_5 
REMARK    3  A    between atoms: C4_6  and  C5_7 
REMARK       I    between atoms: C5_7  and  N2_9 
REMARK    4  A    between atoms: C11_17  and  O2_18 
REMARK    5  A    between atoms: C13_20  and  O3_21 
ROOT
HETATM    1  C3  UNL     1      43.260  30.066   0.866  1.00  0.00     0.058 A 
HETATM    2  C4  UNL     1      43.477  29.958   2.221  1.00  0.00     0.074 A 
HETATM    3  C8  UNL     1      42.504  30.439   3.097  1.00  0.00     0.107 A 
HETATM    4  N3  UNL     1      41.377  30.997   2.625  1.00  0.00    -0.364 N 
ATOM      5  H3  UNL     1      40.683  31.340   3.288  1.00  0.00     0.165 HD
HETATM    6  C9  UNL     1      41.135  31.118   1.311  1.00  0.00     0.047 A 
HETATM    7  C10 UNL     1      39.978  31.691   0.820  1.00  0.00     0.070 A 
HETATM    8  C11 UNL     1      39.726  31.817  -0.542  1.00  0.00     0.103 A 
HETATM    9  C13 UNL     1      40.673  31.349  -1.418  1.00  0.00     0.102 A 
HETATM   10  C15 UNL     1      41.826  30.777  -0.953  1.00  0.00     0.055 A 
HETATM   11  C16 UNL     1      42.059  30.661   0.423  1.00  0.00     0.021 A 
ENDROOT
BRANCH   2  12
HETATM   12  C5  UNL     1      44.669  29.354   2.822  1.00  0.00     0.256 C 
HETATM   13  O1  UNL     1      45.768  30.014   2.803  1.00  0.00    -0.267 OA
HETATM   14  N2  UNL     1      44.622  28.072   3.409  1.00  0.00    -0.357 N 
HETATM   15  C6  UNL     1      43.358  27.360   3.404  1.00  0.00     0.152 C 
HETATM   16  C7  UNL     1      45.746  27.419   4.017  1.00  0.00     0.152 C 
ENDBRANCH   2  12
BRANCH   1  17
HETATM   17  N1  UNL     1      44.045  29.688  -0.008  1.00  0.00    -0.389 N 
ATOM     18  H1  UNL     1      44.487  30.518  -0.404  1.00  0.00     0.159 HD
BRANCH  17  19
HETATM   19  C2  UNL     1      44.563  28.594  -0.659  1.00  0.00     0.115 C 
HETATM   20  C1  UNL     1      43.820  27.276  -0.329  1.00  0.00     0.026 C 
ENDBRANCH  17  19
ENDBRANCH   1  17
BRANCH   9  21
HETATM   21  O3  UNL     1      40.478  31.445  -2.785  1.00  0.00    -0.353 OA
HETATM   22  C14 UNL     1      41.474  31.129  -3.721  1.00  0.00     0.210 C 
ENDBRANCH   9  21
BRANCH   8  23
HETATM   23  O2  UNL     1      38.579  32.384  -1.039  1.00  0.00    -0.353 OA
HETATM   24  C12 UNL     1      37.464  32.533  -0.181  1.00  0.00     0.210 C 
ENDBRANCH   8  23
TORSDOF 5
ENDMDL
MODEL 2
REMARK VINA RESULT: -6.282872812      2.744      7.435
REMARK  5 active torsions:
REMARK  status: ('A' for Active; 'I' for Inactive)
REMARK    1  A    between atoms: C2_2  and  N1_3 
REMARK    2  A    between atoms: N1_3  and  C3_5 
REMARK    3  A    between atoms: C4_6  and  C5_7 
REMARK       I    between atoms: C5_7  and  N2_9 
REMARK    4  A    between atoms: C11_17  and  O2_18 
REMARK    5  A    between atoms: C13_20  and  O3_21 
ROOT
HETATM    1  C3  UNL     1      44.850  27.869   1.235  1.00  0.00     0.058 A 
HETATM    2  C4  UNL     1      44.443  29.173   1.072  1.00  0.00     0.074 A 
HETATM    3  C8  UNL     1      44.932  30.144   1.947  1.00  0.00     0.107 A 
HETATM    4  N3  UNL     1      45.784  29.809   2.929  1.00  0.00    -0.364 N 
ATOM      5  H3  UNL     1      46.126  30.539   3.554  1.00  0.00     0.165 HD
HETATM    6  C9  UNL     1      46.200  28.548   3.115  1.00  0.00     0.047 A 
HETATM    7  C10 UNL     1      47.076  28.198   4.125  1.00  0.00     0.070 A 
HETATM    8  C11 UNL     1      47.509  26.889   4.319  1.00  0.00     0.103 A 
HETATM    9  C13 UNL     1      47.038  25.923   3.467  1.00  0.00     0.102 A 
HETATM   10  C15 UNL     1      46.169  26.247   2.461  1.00  0.00     0.055 A 
HETATM   11  C16 UNL     1      45.747  27.571   2.284  1.00  0.00     0.021 A 
ENDROOT
BRANCH   2  12
HETATM   12  C5  UNL     1      43.527  29.629   0.023  1.00  0.00     0.256 C 
HETATM   13  O1  UNL     1      44.002  29.885  -1.139  1.00  0.00    -0.267 OA
HETATM   14  N2  UNL     1      42.147  29.788   0.276  1.00  0.00    -0.357 N 
HETATM   15  C6  UNL     1      41.655  29.489   1.607  1.00  0.00     0.152 C 
HETATM   16  C7  UNL     1      41.192  30.227  -0.700  1.00  0.00     0.152 C 
ENDBRANCH   2  12
BRANCH   1  17
HETATM   17  N1  UNL     1      44.483  26.921   0.535  1.00  0.00    -0.389 N 
ATOM     18  H1  UNL     1      44.734  26.062   1.025  1.00  0.00     0.159 HD
BRANCH  17  19
HETATM   19  C2  UNL     1      43.871  26.563  -0.642  1.00  0.00     0.115 C 
HETATM   20  C1  UNL     1      44.807  26.653  -1.872  1.00  0.00     0.026 C 
ENDBRANCH  17  19
ENDBRANCH   1  17
BRANCH   9  21
HETATM   21  O3  UNL     1      47.433  24.604   3.610  1.00  0.00    -0.353 OA
HETATM   22  C14 UNL     1      48.599  24.089   3.024  1.00  0.00     0.210 C 
ENDBRANCH   9  21
BRANCH   8  23
HETATM   23  O2  UNL     1      48.380  26.533   5.318  1.00  0.00    -0.353 OA
HETATM   24  C12 UNL     1      49.733  26.935   5.221  1.00  0.00     0.210 C 
ENDBRANCH   8  23
TORSDOF 5
ENDMDL
MODEL 3
REMARK VINA RESULT: -6.184366663      2.156      6.791
REMARK  5 active torsions:
REMARK  status: ('A' for Active; 'I' for Inactive)
REMARK    1  A    between atoms: C2_2  and  N1_3 
REMARK    2  A    between atoms: N1_3  and  C3_5 
REMARK    3  A    between atoms: C4_6  and  C5_7 
REMARK       I    between atoms: C5_7  and  N2_9 
REMARK    4  A    between atoms: C11_17  and  O2_18 
REMARK    5  A    between atoms: C13_20  and  O3_21 
ROOT
HETATM    1  C3  UNL     1      44.131  29.057   1.031  1.00  0.00     0.058 A 
HETATM    2  C4  UNL     1      42.869  29.553   1.263  1.00  0.00     0.074 A 
HETATM    3  C8  UNL     1      42.317  29.413   2.537  1.00  0.00     0.107 A 
HETATM    4  N3  UNL     1      43.005  28.806   3.516  1.00  0.00    -0.364 N 
ATOM      5  H3  UNL     1      42.578  28.718   4.437  1.00  0.00     0.165 HD
HETATM    6  C9  UNL     1      44.238  28.312   3.322  1.00  0.00     0.047 A 
HETATM    7  C10 UNL     1      44.951  27.685   4.326  1.00  0.00     0.070 A 
HETATM    8  C11 UNL     1      46.229  27.172   4.127  1.00  0.00     0.103 A 
HETATM    9  C13 UNL     1      46.787  27.302   2.880  1.00  0.00     0.102 A 
HETATM   10  C15 UNL     1      46.098  27.918   1.871  1.00  0.00     0.055 A 
HETATM   11  C16 UNL     1      44.812  28.428   2.095  1.00  0.00     0.021 A 
ENDROOT
BRANCH   2  12
HETATM   12  C5  UNL     1      42.051  30.239   0.258  1.00  0.00     0.256 C 
HETATM   13  O1  UNL     1      41.215  29.551  -0.427  1.00  0.00    -0.267 OA
HETATM   14  N2  UNL     1      42.177  31.628   0.039  1.00  0.00    -0.357 N 
HETATM   15  C6  UNL     1      43.138  32.365   0.835  1.00  0.00     0.152 C 
HETATM   16  C7  UNL     1      41.411  32.366  -0.924  1.00  0.00     0.152 C 
ENDBRANCH   2  12
BRANCH   1  17
HETATM   17  N1  UNL     1      44.723  29.110  -0.051  1.00  0.00    -0.389 N 
ATOM     18  H1  UNL     1      45.539  29.710   0.074  1.00  0.00     0.159 HD
BRANCH  17  19
HETATM   19  C2  UNL     1      44.721  28.683  -1.357  1.00  0.00     0.115 C 
HETATM   20  C1  UNL     1      44.426  27.170  -1.506  1.00  0.00     0.026 C 
ENDBRANCH  17  19
ENDBRANCH   1  17
BRANCH   9  21
HETATM   21  O3  UNL     1      48.055  26.812   2.621  1.00  0.00    -0.353 OA
HETATM   22  C14 UNL     1      49.226  27.500   2.975  1.00  0.00     0.210 C 
ENDBRANCH   9  21
BRANCH   8  23
HETATM   23  O2  UNL     1      46.945  26.550   5.118  1.00  0.00    -0.353 OA
HETATM   24  C12 UNL     1      47.943  27.282   5.802  1.00  0.00     0.210 C 
ENDBRANCH   8  23
TORSDOF 5
ENDMDL
MODEL 4
REMARK VINA RESULT: -6.091871212      2.236      6.053
REMARK  5 active torsions:
REMARK  status: ('A' for Active; 'I' for Inactive)
REMARK    1  A    between atoms: C2_2  and  N1_3 
REMARK    2  A    between atoms: N1_3  and  C3_5 
REMARK    3  A    between atoms: C4_6  and  C5_7 
REMARK       I    between atoms: C5_7  and  N2_9 
REMARK    4  A    between atoms: C11_17  and  O2_18 
REMARK    5  A    between atoms: C13_20  and  O3_21 
ROOT
HETATM    1  C3  UNL     1      41.067  30.545  -0.588  1.00  0.00     0.058 A 
HETATM    2  C4  UNL     1      40.307  31.576  -0.086  1.00  0.00     0.074 A 
HETATM    3  C8  UNL     1      40.249  31.757   1.296  1.00  0.00     0.107 A 
HETATM    4  N3  UNL     1      40.923  30.938   2.120  1.00  0.00    -0.364 N 
ATOM      5  H3  UNL     1      40.863  31.093   3.126  1.00  0.00     0.165 HD
HETATM    6  C9  UNL     1      41.672  29.924   1.663  1.00  0.00     0.047 A 
HETATM    7  C10 UNL     1      42.368  29.078   2.506  1.00  0.00     0.070 A 
HETATM    8  C11 UNL     1      43.146  28.025   2.033  1.00  0.00     0.103 A 
HETATM    9  C13 UNL     1      43.214  27.834   0.677  1.00  0.00     0.102 A 
HETATM   10  C15 UNL     1      42.533  28.659  -0.176  1.00  0.00     0.055 A 
HETATM   11  C16 UNL     1      41.756  29.713   0.322  1.00  0.00     0.021 A 
ENDROOT
BRANCH   2  12
HETATM   12  C5  UNL     1      39.549  32.522  -0.910  1.00  0.00     0.256 C 
HETATM   13  O1  UNL     1      38.384  32.183  -1.321  1.00  0.00    -0.267 OA
HETATM   14  N2  UNL     1      40.084  33.783  -1.253  1.00  0.00    -0.357 N 
HETATM   15  C6  UNL     1      41.408  34.122  -0.769  1.00  0.00     0.152 C 
HETATM   16  C7  UNL     1      39.402  34.760  -2.053  1.00  0.00     0.152 C 
ENDBRANCH   2  12
BRANCH   1  17
HETATM   17  N1  UNL     1      41.191  30.276  -1.786  1.00  0.00    -0.389 N 
ATOM     18  H1  UNL     1      40.737  29.377  -1.948  1.00  0.00     0.159 HD
BRANCH  17  19
HETATM   19  C2  UNL     1      41.697  30.706  -2.989  1.00  0.00     0.115 C 
HETATM   20  C1  UNL     1      43.009  31.516  -2.847  1.00  0.00     0.026 C 
ENDBRANCH  17  19
ENDBRANCH   1  17
BRANCH   9  21
HETATM   21  O3  UNL     1      43.971  26.804   0.147  1.00  0.00    -0.353 OA
HETATM   22  C14 UNL     1      44.336  26.743  -1.207  1.00  0.00     0.210 C 
ENDBRANCH   9  21
BRANCH   8  23
HETATM   23  O2  UNL     1      43.840  27.181   2.863  1.00  0.00    -0.353 OA
HETATM   24  C12 UNL     1      44.585  27.734   3.931  1.00  0.00     0.210 C 
ENDBRANCH   8  23
TORSDOF 5
ENDMDL
MODEL 5
REMARK VINA RESULT: -6.028945377      3.555      5.955
REMARK  5 active torsions:
REMARK  status: ('A' for Active; 'I' for Inactive)
REMARK    1  A    between atoms: C2_2  and  N1_3 
REMARK    2  A    between atoms: N1_3  and  C3_5 
REMARK    3  A    between atoms: C4_6  and  C5_7 
REMARK       I    between atoms: C5_7  and  N2_9 
REMARK    4  A    between atoms: C11_17  and  O2_18 
REMARK    5  A    between atoms: C13_20  and  O3_21 
ROOT
HETATM    1  C3  UNL     1      43.421  28.001  -0.412  1.00  0.00     0.058 A 
HETATM    2  C4  UNL     1      42.494  28.995  -0.202  1.00  0.00     0.074 A 
HETATM    3  C8  UNL     1      42.006  29.701  -1.302  1.00  0.00     0.107 A 
HETATM    4  N3  UNL     1      42.435  29.414  -2.542  1.00  0.00    -0.364 N 
ATOM      5  H3  UNL     1      42.062  29.945  -3.328  1.00  0.00     0.165 HD
HETATM    6  C9  UNL     1      43.338  28.450  -2.780  1.00  0.00     0.047 A 
HETATM    7  C10 UNL     1      43.783  28.150  -4.053  1.00  0.00     0.070 A 
HETATM    8  C11 UNL     1      44.719  27.151  -4.302  1.00  0.00     0.103 A 
HETATM    9  C13 UNL     1      45.209  26.448  -3.231  1.00  0.00     0.102 A 
HETATM   10  C15 UNL     1      44.782  26.728  -1.961  1.00  0.00     0.055 A 
HETATM   11  C16 UNL     1      43.838  27.739  -1.734  1.00  0.00     0.021 A 
ENDROOT
BRANCH   2  12
HETATM   12  C5  UNL     1      41.963  29.368   1.112  1.00  0.00     0.256 C 
HETATM   13  O1  UNL     1      41.104  28.597   1.669  1.00  0.00    -0.267 OA
HETATM   14  N2  UNL     1      42.379  30.551   1.760  1.00  0.00    -0.357 N 
HETATM   15  C6  UNL     1      43.350  31.395   1.091  1.00  0.00     0.152 C 
HETATM   16  C7  UNL     1      41.905  30.979   3.045  1.00  0.00     0.152 C 
ENDBRANCH   2  12
BRANCH   1  17
HETATM   17  N1  UNL     1      43.933  27.314   0.477  1.00  0.00    -0.389 N 
ATOM     18  H1  UNL     1      43.638  26.348   0.328  1.00  0.00     0.159 HD
BRANCH  17  19
HETATM   19  C2  UNL     1      44.743  27.331   1.586  1.00  0.00     0.115 C 
HETATM   20  C1  UNL     1      45.698  28.550   1.629  1.00  0.00     0.026 C 
ENDBRANCH  17  19
ENDBRANCH   1  17
BRANCH   9  21
HETATM   21  O3  UNL     1      46.141  25.442  -3.415  1.00  0.00    -0.353 OA
HETATM   22  C14 UNL     1      45.802  24.080  -3.434  1.00  0.00     0.210 C 
ENDBRANCH   9  21
BRANCH   8  23
HETATM   23  O2  UNL     1      45.166  26.846  -5.563  1.00  0.00    -0.353 OA
HETATM   24  C12 UNL     1      46.051  27.740  -6.209  1.00  0.00     0.210 C 
ENDBRANCH   8  23
TORSDOF 5
ENDMDL
