MODEL 1
REMARK VINA RESULT: -7.524977885      0.000      0.000
REMARK  11 active torsions:
REMARK  status: ('A' for Active; 'I' for Inactive)
REMARK    1  A    between atoms: N1_1  and  C1_4 
REMARK    2  A    between atoms: C2_7  and  N3_8 
REMARK    3  A    between atoms: N3_8  and  C3_10 
REMARK    4  A    between atoms: C3_10  and  C4_11 
REMARK    5  A    between atoms: C4_11  and  N4_12 
REMARK    6  A    between atoms: N4_12  and  C5_15 
REMARK    7  A    between atoms: C5_15  and  C6_16 
REMARK    8  A    between atoms: C6_16  and  C7_17 
REMARK    9  A    between atoms: C7_17  and  N5_18 
REMARK   10  A    between atoms: C9_25  and  N7_26 
REMARK   11  A    between atoms: N7_26  and  O1_30 
ROOT
HETATM    1  C1  UNL     1      29.799  20.795  43.934  1.00  0.00     0.678 A 
HETATM    2  N2  UNL     1      29.367  21.903  44.556  1.00  0.00    -0.175 N 
ATOM      3  H2  UNL     1      28.391  22.176  44.442  1.00  0.00     0.186 HD
HETATM    4  C2  UNL     1      30.162  22.668  45.320  1.00  0.00     0.146 A 
HETATM    5  C8  UNL     1      31.493  22.272  45.459  1.00  0.00     0.124 A 
HETATM    6  N6  UNL     1      32.298  23.028  46.221  1.00  0.00    -0.182 N 
ATOM      7  H6  UNL     1      31.916  23.860  46.671  1.00  0.00     0.184 HD
HETATM    8  C9  UNL     1      33.594  22.721  46.410  1.00  0.00     0.726 A 
HETATM    9  N9  UNL     1      34.050  21.623  45.801  1.00  0.00    -0.171 N 
ATOM     10  H9  UNL     1      35.031  21.377  45.934  1.00  0.00     0.186 HD
HETATM   11  C10 UNL     1      33.289  20.807  45.012  1.00  0.00     0.144 A 
HETATM   12  N10 UNL     1      33.775  19.782  44.462  1.00  0.00    -0.383 N 
ATOM     13 1H10 UNL     1      33.206  19.174  43.873  1.00  0.00     0.157 HD
ATOM     14 2H10 UNL     1      34.757  19.546  44.602  1.00  0.00     0.157 HD
HETATM   15  C11 UNL     1      31.957  21.127  44.822  1.00  0.00     0.124 A 
HETATM   16  N11 UNL     1      31.104  20.415  44.075  1.00  0.00    -0.186 N 
ATOM     17  H11 UNL     1      31.434  19.574  43.603  1.00  0.00     0.184 HD
ENDROOT
BRANCH   4  18
HETATM   18  N3  UNL     1      29.798  23.714  45.926  1.00  0.00    -0.372 N 
ATOM     19  H3  UNL     1      30.562  24.292  46.276  1.00  0.00     0.161 HD
BRANCH  18  20
HETATM   20  C3  UNL     1      28.500  24.218  46.200  1.00  0.00     0.148 C 
BRANCH  20  21
HETATM   21  C4  UNL     1      28.476  25.701  45.838  1.00  0.00     0.251 C 
BRANCH  21  22
HETATM   22  N4  UNL     1      27.262  26.133  45.235  1.00  0.00    -0.074 N 
ATOM     23  H42 UNL     1      26.936  26.998  45.664  1.00  0.00     0.277 HD
ATOM     24  H41 UNL     1      27.432  26.465  44.285  1.00  0.00     0.277 HD
BRANCH  22  25
HETATM   25  C5  UNL     1      26.220  25.138  45.245  1.00  0.00     0.234 C 
BRANCH  25  26
HETATM   26  C6  UNL     1      25.609  25.088  43.858  1.00  0.00     0.055 C 
BRANCH  26  27
HETATM   27  C7  UNL     1      25.993  26.313  43.049  1.00  0.00     0.231 C 
BRANCH  27  28
HETATM   28  N5  UNL     1      26.312  25.949  41.682  1.00  0.00    -0.079 N 
ATOM     29  H53 UNL     1      26.893  25.113  41.640  1.00  0.00     0.274 HD
ATOM     30  H52 UNL     1      25.495  25.594  41.186  1.00  0.00     0.274 HD
ATOM     31  H51 UNL     1      26.742  26.732  41.188  1.00  0.00     0.274 HD
ENDBRANCH  27  28
ENDBRANCH  26  27
ENDBRANCH  25  26
ENDBRANCH  22  25
ENDBRANCH  21  22
ENDBRANCH  20  21
ENDBRANCH  18  20
ENDBRANCH   4  18
BRANCH   1  32
HETATM   32  N1  UNL     1      29.016  20.059  43.194  1.00  0.00    -0.234 N 
ATOM     33  H12 UNL     1      28.909  20.304  42.209  1.00  0.00     0.174 HD
ATOM     34  H11 UNL     1      28.512  19.254  43.565  1.00  0.00     0.174 HD
ENDBRANCH   1  32
BRANCH   8  35
HETATM   35  N7  UNL     1      34.444  23.539  47.228  1.00  0.00     0.009 N 
HETATM   36  N8  UNL     1      35.679  23.322  47.358  1.00  0.00    -0.304 N 
ATOM     37  H82 UNL     1      36.103  22.536  46.866  1.00  0.00     0.180 HD
ATOM     38  H81 UNL     1      36.283  23.903  47.939  1.00  0.00     0.180 HD
BRANCH  35  39
HETATM   39  O1  UNL     1      33.879  24.589  47.885  1.00  0.00    -0.255 OA
ATOM     40  H1  UNL     1      34.399  25.376  47.997  1.00  0.00     0.247 HD
ENDBRANCH  35  39
ENDBRANCH   8  35
TORSDOF 11
ENDMDL
MODEL 2
REMARK VINA RESULT: -7.442026506      0.955      1.066
REMARK  11 active torsions:
REMARK  status: ('A' for Active; 'I' for Inactive)
REMARK    1  A    between atoms: N1_1  and  C1_4 
REMARK    2  A    between atoms: C2_7  and  N3_8 
REMARK    3  A    between atoms: N3_8  and  C3_10 
REMARK    4  A    between atoms: C3_10  and  C4_11 
REMARK    5  A    between atoms: C4_11  and  N4_12 
REMARK    6  A    between atoms: N4_12  and  C5_15 
REMARK    7  A    between atoms: C5_15  and  C6_16 
REMARK    8  A    between atoms: C6_16  and  C7_17 
REMARK    9  A    between atoms: C7_17  and  N5_18 
REMARK   10  A    between atoms: C9_25  and  N7_26 
REMARK   11  A    between atoms: N7_26  and  O1_30 
ROOT
HETATM    1  C1  UNL     1      29.812  20.753  43.947  1.00  0.00     0.678 A 
HETATM    2  N2  UNL     1      29.369  21.853  44.574  1.00  0.00    -0.175 N 
ATOM      3  H2  UNL     1      28.389  22.115  44.466  1.00  0.00     0.186 HD
HETATM    4  C2  UNL     1      30.157  22.625  45.339  1.00  0.00     0.146 A 
HETATM    5  C8  UNL     1      31.494  22.245  45.471  1.00  0.00     0.124 A 
HETATM    6  N6  UNL     1      32.293  23.007  46.233  1.00  0.00    -0.182 N 
ATOM      7  H6  UNL     1      31.903  23.832  46.687  1.00  0.00     0.184 HD
HETATM    8  C9  UNL     1      33.593  22.715  46.414  1.00  0.00     0.726 A 
HETATM    9  N9  UNL     1      34.060  21.625  45.800  1.00  0.00    -0.171 N 
ATOM     10  H9  UNL     1      35.045  21.390  45.928  1.00  0.00     0.186 HD
HETATM   11  C10 UNL     1      33.305  20.803  45.010  1.00  0.00     0.144 A 
HETATM   12  N10 UNL     1      33.801  19.786  44.454  1.00  0.00    -0.383 N 
ATOM     13 1H10 UNL     1      33.238  19.173  43.865  1.00  0.00     0.157 HD
ATOM     14 2H10 UNL     1      34.787  19.561  44.589  1.00  0.00     0.157 HD
HETATM   15  C11 UNL     1      31.969  21.108  44.827  1.00  0.00     0.124 A 
HETATM   16  N11 UNL     1      31.121  20.389  44.081  1.00  0.00    -0.186 N 
ATOM     17  H11 UNL     1      31.460  19.553  43.603  1.00  0.00     0.184 HD
ENDROOT
BRANCH   4  18
HETATM   18  N3  UNL     1      29.784  23.664  45.950  1.00  0.00    -0.372 N 
ATOM     19  H3  UNL     1      30.540  24.219  46.351  1.00  0.00     0.161 HD
BRANCH  18  20
HETATM   20  C3  UNL     1      28.483  24.187  46.172  1.00  0.00     0.148 C 
BRANCH  20  21
HETATM   21  C4  UNL     1      28.524  25.693  45.921  1.00  0.00     0.251 C 
BRANCH  21  22
HETATM   22  N4  UNL     1      27.313  26.229  45.403  1.00  0.00    -0.074 N 
ATOM     23  H42 UNL     1      27.083  27.109  45.864  1.00  0.00     0.277 HD
ATOM     24  H41 UNL     1      27.448  26.565  44.449  1.00  0.00     0.277 HD
BRANCH  22  25
HETATM   25  C5  UNL     1      26.198  25.318  45.466  1.00  0.00     0.234 C 
BRANCH  25  26
HETATM   26  C6  UNL     1      25.063  26.019  46.188  1.00  0.00     0.055 C 
BRANCH  26  27
HETATM   27  C7  UNL     1      24.073  26.611  45.202  1.00  0.00     0.231 C 
BRANCH  27  28
HETATM   28  N5  UNL     1      23.967  25.783  44.017  1.00  0.00    -0.079 N 
ATOM     29  H53 UNL     1      24.351  24.851  44.172  1.00  0.00     0.274 HD
ATOM     30  H52 UNL     1      23.001  25.521  43.825  1.00  0.00     0.274 HD
ATOM     31  H51 UNL     1      24.401  26.241  43.214  1.00  0.00     0.274 HD
ENDBRANCH  27  28
ENDBRANCH  26  27
ENDBRANCH  25  26
ENDBRANCH  22  25
ENDBRANCH  21  22
ENDBRANCH  20  21
ENDBRANCH  18  20
ENDBRANCH   4  18
BRANCH   1  32
HETATM   32  N1  UNL     1      29.034  20.011  43.206  1.00  0.00    -0.234 N 
ATOM     33  H12 UNL     1      28.072  19.862  43.511  1.00  0.00     0.174 HD
ATOM     34  H11 UNL     1      29.355  19.579  42.340  1.00  0.00     0.174 HD
ENDBRANCH   1  32
BRANCH   8  35
HETATM   35  N7  UNL     1      34.436  23.540  47.232  1.00  0.00     0.009 N 
HETATM   36  N8  UNL     1      35.673  23.331  47.365  1.00  0.00    -0.304 N 
ATOM     37  H82 UNL     1      36.102  22.546  46.875  1.00  0.00     0.180 HD
ATOM     38  H81 UNL     1      36.272  23.917  47.946  1.00  0.00     0.180 HD
BRANCH  35  39
HETATM   39  O1  UNL     1      33.864  24.587  47.886  1.00  0.00    -0.255 OA
ATOM     40  H1  UNL     1      33.350  24.399  48.663  1.00  0.00     0.247 HD
ENDBRANCH  35  39
ENDBRANCH   8  35
TORSDOF 11
ENDMDL
MODEL 3
REMARK VINA RESULT: -7.439237340      1.370      1.459
REMARK  11 active torsions:
REMARK  status: ('A' for Active; 'I' for Inactive)
REMARK    1  A    between atoms: N1_1  and  C1_4 
REMARK    2  A    between atoms: C2_7  and  N3_8 
REMARK    3  A    between atoms: N3_8  and  C3_10 
REMARK    4  A    between atoms: C3_10  and  C4_11 
REMARK    5  A    between atoms: C4_11  and  N4_12 
REMARK    6  A    between atoms: N4_12  and  C5_15 
REMARK    7  A    between atoms: C5_15  and  C6_16 
REMARK    8  A    between atoms: C6_16  and  C7_17 
REMARK    9  A    between atoms: C7_17  and  N5_18 
REMARK   10  A    between atoms: C9_25  and  N7_26 
REMARK   11  A    between atoms: N7_26  and  O1_30 
ROOT
HETATM    1  C1  UNL     1      29.843  19.947  44.089  1.00  0.00     0.678 A 
HETATM    2  N2  UNL     1      29.378  21.078  44.640  1.00  0.00    -0.175 N 
ATOM      3  H2  UNL     1      28.375  21.261  44.604  1.00  0.00     0.186 HD
HETATM    4  C2  UNL     1      30.172  21.979  45.239  1.00  0.00     0.146 A 
HETATM    5  C8  UNL     1      31.540  21.704  45.275  1.00  0.00     0.124 A 
HETATM    6  N6  UNL     1      32.345  22.597  45.871  1.00  0.00    -0.182 N 
ATOM      7  H6  UNL     1      31.937  23.440  46.275  1.00  0.00     0.184 HD
HETATM    8  C9  UNL     1      33.675  22.413  45.952  1.00  0.00     0.726 A 
HETATM    9  N9  UNL     1      34.165  21.294  45.409  1.00  0.00    -0.171 N 
ATOM     10  H9  UNL     1      35.172  21.140  45.462  1.00  0.00     0.186 HD
HETATM   11  C10 UNL     1      33.406  20.343  44.788  1.00  0.00     0.144 A 
HETATM   12  N10 UNL     1      33.924  19.305  44.293  1.00  0.00    -0.383 N 
ATOM     13 1H10 UNL     1      33.357  18.596  43.830  1.00  0.00     0.157 HD
ATOM     14 2H10 UNL     1      34.932  19.162  44.352  1.00  0.00     0.157 HD
HETATM   15  C11 UNL     1      32.039  20.537  44.708  1.00  0.00     0.124 A 
HETATM   16  N11 UNL     1      31.183  19.686  44.129  1.00  0.00    -0.186 N 
ATOM     17  H11 UNL     1      31.539  18.827  43.709  1.00  0.00     0.184 HD
ENDROOT
BRANCH   4  18
HETATM   18  N3  UNL     1      29.778  23.053  45.774  1.00  0.00    -0.372 N 
ATOM     19  H3  UNL     1      30.511  23.596  46.230  1.00  0.00     0.161 HD
BRANCH  18  20
HETATM   20  C3  UNL     1      28.482  23.627  45.844  1.00  0.00     0.148 C 
BRANCH  20  21
HETATM   21  C4  UNL     1      28.535  24.808  46.810  1.00  0.00     0.251 C 
BRANCH  21  22
HETATM   22  N4  UNL     1      27.264  25.208  47.310  1.00  0.00    -0.074 N 
ATOM     23  H42 UNL     1      27.263  25.208  48.329  1.00  0.00     0.277 HD
ATOM     24  H41 UNL     1      27.107  26.201  47.138  1.00  0.00     0.277 HD
BRANCH  22  25
HETATM   25  C5  UNL     1      26.166  24.425  46.802  1.00  0.00     0.234 C 
BRANCH  25  26
HETATM   26  C6  UNL     1      25.144  25.380  46.216  1.00  0.00     0.055 C 
BRANCH  26  27
HETATM   27  C7  UNL     1      24.963  25.140  44.729  1.00  0.00     0.231 C 
BRANCH  27  28
HETATM   28  N5  UNL     1      23.835  25.894  44.218  1.00  0.00    -0.079 N 
ATOM     29  H53 UNL     1      23.131  26.054  44.938  1.00  0.00     0.274 HD
ATOM     30  H52 UNL     1      24.085  26.864  44.027  1.00  0.00     0.274 HD
ATOM     31  H51 UNL     1      23.436  25.438  43.397  1.00  0.00     0.274 HD
ENDBRANCH  27  28
ENDBRANCH  26  27
ENDBRANCH  25  26
ENDBRANCH  22  25
ENDBRANCH  21  22
ENDBRANCH  20  21
ENDBRANCH  18  20
ENDBRANCH   4  18
BRANCH   1  32
HETATM   32  N1  UNL     1      29.059  19.078  43.510  1.00  0.00    -0.234 N 
ATOM     33  H12 UNL     1      28.440  18.518  44.096  1.00  0.00     0.174 HD
ATOM     34  H11 UNL     1      29.047  18.942  42.500  1.00  0.00     0.174 HD
ENDBRANCH   1  32
BRANCH   8  35
HETATM   35  N7  UNL     1      34.525  23.376  46.592  1.00  0.00     0.009 N 
HETATM   36  N8  UNL     1      34.524  23.565  47.839  1.00  0.00    -0.304 N 
ATOM     37  H82 UNL     1      33.897  23.015  48.426  1.00  0.00     0.180 HD
ATOM     38  H81 UNL     1      35.127  24.249  48.294  1.00  0.00     0.180 HD
BRANCH  35  39
HETATM   39  O1  UNL     1      35.361  24.110  45.808  1.00  0.00    -0.255 OA
ATOM     40  H1  UNL     1      35.627  24.967  46.122  1.00  0.00     0.247 HD
ENDBRANCH  35  39
ENDBRANCH   8  35
TORSDOF 11
ENDMDL
MODEL 4
REMARK VINA RESULT: -7.431175753      1.599      1.739
REMARK  11 active torsions:
REMARK  status: ('A' for Active; 'I' for Inactive)
REMARK    1  A    between atoms: N1_1  and  C1_4 
REMARK    2  A    between atoms: C2_7  and  N3_8 
REMARK    3  A    between atoms: N3_8  and  C3_10 
REMARK    4  A    between atoms: C3_10  and  C4_11 
REMARK    5  A    between atoms: C4_11  and  N4_12 
REMARK    6  A    between atoms: N4_12  and  C5_15 
REMARK    7  A    between atoms: C5_15  and  C6_16 
REMARK    8  A    between atoms: C6_16  and  C7_17 
REMARK    9  A    between atoms: C7_17  and  N5_18 
REMARK   10  A    between atoms: C9_25  and  N7_26 
REMARK   11  A    between atoms: N7_26  and  O1_30 
ROOT
HETATM    1  C1  UNL     1      29.865  20.819  44.122  1.00  0.00     0.678 A 
HETATM    2  N2  UNL     1      29.416  21.865  44.833  1.00  0.00    -0.175 N 
ATOM      3  H2  UNL     1      28.427  22.106  44.774  1.00  0.00     0.186 HD
HETATM    4  C2  UNL     1      30.210  22.607  45.620  1.00  0.00     0.146 A 
HETATM    5  C8  UNL     1      31.559  22.256  45.684  1.00  0.00     0.124 A 
HETATM    6  N6  UNL     1      32.364  22.991  46.467  1.00  0.00    -0.182 N 
ATOM      7  H6  UNL     1      31.969  23.774  46.986  1.00  0.00     0.184 HD
HETATM    8  C9  UNL     1      33.677  22.723  46.587  1.00  0.00     0.726 A 
HETATM    9  N9  UNL     1      34.150  21.688  45.889  1.00  0.00    -0.171 N 
ATOM     10  H9  UNL     1      35.144  21.472  45.970  1.00  0.00     0.186 HD
HETATM   11  C10 UNL     1      33.390  20.898  45.073  1.00  0.00     0.144 A 
HETATM   12  N10 UNL     1      33.892  19.932  44.436  1.00  0.00    -0.383 N 
ATOM     13 1H10 UNL     1      33.325  19.343  43.827  1.00  0.00     0.157 HD
ATOM     14 2H10 UNL     1      34.887  19.726  44.525  1.00  0.00     0.157 HD
HETATM   15  C11 UNL     1      32.041  21.176  44.953  1.00  0.00     0.124 A 
HETATM   16  N11 UNL     1      31.187  20.483  44.190  1.00  0.00    -0.186 N 
ATOM     17  H11 UNL     1      31.530  19.689  43.649  1.00  0.00     0.184 HD
ENDROOT
BRANCH   4  18
HETATM   18  N3  UNL     1      29.831  23.595  46.309  1.00  0.00    -0.372 N 
ATOM     19  H3  UNL     1      30.174  23.602  47.270  1.00  0.00     0.161 HD
BRANCH  18  20
HETATM   20  C3  UNL     1      29.006  24.697  45.966  1.00  0.00     0.148 C 
BRANCH  20  21
HETATM   21  C4  UNL     1      27.601  24.426  46.497  1.00  0.00     0.251 C 
BRANCH  21  22
HETATM   22  N4  UNL     1      27.191  25.309  47.535  1.00  0.00    -0.074 N 
ATOM     23  H42 UNL     1      27.053  24.800  48.407  1.00  0.00     0.277 HD
ATOM     24  H41 UNL     1      27.961  25.919  47.812  1.00  0.00     0.277 HD
BRANCH  22  25
HETATM   25  C5  UNL     1      26.022  26.087  47.211  1.00  0.00     0.234 C 
BRANCH  25  26
HETATM   26  C6  UNL     1      26.336  27.543  47.496  1.00  0.00     0.055 C 
BRANCH  26  27
HETATM   27  C7  UNL     1      27.160  28.152  46.377  1.00  0.00     0.231 C 
BRANCH  27  28
HETATM   28  N5  UNL     1      26.325  28.463  45.232  1.00  0.00    -0.079 N 
ATOM     29  H53 UNL     1      26.634  27.968  44.396  1.00  0.00     0.274 HD
ATOM     30  H52 UNL     1      25.396  28.052  45.321  1.00  0.00     0.274 HD
ATOM     31  H51 UNL     1      26.280  29.471  45.079  1.00  0.00     0.274 HD
ENDBRANCH  27  28
ENDBRANCH  26  27
ENDBRANCH  25  26
ENDBRANCH  22  25
ENDBRANCH  21  22
ENDBRANCH  20  21
ENDBRANCH  18  20
ENDBRANCH   4  18
BRANCH   1  32
HETATM   32  N1  UNL     1      29.082  20.104  43.361  1.00  0.00    -0.234 N 
ATOM     33  H12 UNL     1      29.224  20.139  42.351  1.00  0.00     0.174 HD
ATOM     34  H11 UNL     1      28.339  19.517  43.740  1.00  0.00     0.174 HD
ENDBRANCH   1  32
BRANCH   8  35
HETATM   35  N7  UNL     1      34.527  23.517  47.429  1.00  0.00     0.009 N 
HETATM   36  N8  UNL     1      35.773  23.339  47.503  1.00  0.00    -0.304 N 
ATOM     37  H82 UNL     1      36.206  22.602  46.946  1.00  0.00     0.180 HD
ATOM     38  H81 UNL     1      36.376  23.902  48.101  1.00  0.00     0.180 HD
BRANCH  35  39
HETATM   39  O1  UNL     1      33.950  24.500  48.173  1.00  0.00    -0.255 OA
ATOM     40  H1  UNL     1      34.235  25.395  48.027  1.00  0.00     0.247 HD
ENDBRANCH  35  39
ENDBRANCH   8  35
TORSDOF 11
ENDMDL
MODEL 5
REMARK VINA RESULT: -7.427141054      1.880      2.025
REMARK  11 active torsions:
REMARK  status: ('A' for Active; 'I' for Inactive)
REMARK    1  A    between atoms: N1_1  and  C1_4 
REMARK    2  A    between atoms: C2_7  and  N3_8 
REMARK    3  A    between atoms: N3_8  and  C3_10 
REMARK    4  A    between atoms: C3_10  and  C4_11 
REMARK    5  A    between atoms: C4_11  and  N4_12 
REMARK    6  A    between atoms: N4_12  and  C5_15 
REMARK    7  A    between atoms: C5_15  and  C6_16 
REMARK    8  A    between atoms: C6_16  and  C7_17 
REMARK    9  A    between atoms: C7_17  and  N5_18 
REMARK   10  A    between atoms: C9_25  and  N7_26 
REMARK   11  A    between atoms: N7_26  and  O1_30 
ROOT
HETATM    1  C1  UNL     1      29.839  19.922  44.041  1.00  0.00     0.678 A 
HETATM    2  N2  UNL     1      29.366  21.053  44.585  1.00  0.00    -0.175 N 
ATOM      3  H2  UNL     1      28.363  21.234  44.536  1.00  0.00     0.186 HD
HETATM    4  C2  UNL     1      30.152  21.957  45.189  1.00  0.00     0.146 A 
HETATM    5  C8  UNL     1      31.520  21.686  45.242  1.00  0.00     0.124 A 
HETATM    6  N6  UNL     1      32.317  22.582  45.844  1.00  0.00    -0.182 N 
ATOM      7  H6  UNL     1      31.902  23.424  46.241  1.00  0.00     0.184 HD
HETATM    8  C9  UNL     1      33.646  22.400  45.940  1.00  0.00     0.726 A 
HETATM    9  N9  UNL     1      34.144  21.282  45.406  1.00  0.00    -0.171 N 
ATOM     10  H9  UNL     1      35.151  21.130  45.470  1.00  0.00     0.186 HD
HETATM   11  C10 UNL     1      33.393  20.327  44.778  1.00  0.00     0.144 A 
HETATM   12  N10 UNL     1      33.919  19.289  44.292  1.00  0.00    -0.383 N 
ATOM     13 1H10 UNL     1      33.359  18.577  43.824  1.00  0.00     0.157 HD
ATOM     14 2H10 UNL     1      34.927  19.148  44.363  1.00  0.00     0.157 HD
HETATM   15  C11 UNL     1      32.027  20.518  44.683  1.00  0.00     0.124 A 
HETATM   16  N11 UNL     1      31.180  19.664  44.096  1.00  0.00    -0.186 N 
ATOM     17  H11 UNL     1      31.542  18.804  43.683  1.00  0.00     0.184 HD
ENDROOT
BRANCH   4  18
HETATM   18  N3  UNL     1      29.750  23.032  45.717  1.00  0.00    -0.372 N 
ATOM     19  H3  UNL     1      30.487  23.616  46.110  1.00  0.00     0.161 HD
BRANCH  18  20
HETATM   20  C3  UNL     1      28.439  23.558  45.853  1.00  0.00     0.148 C 
BRANCH  20  21
HETATM   21  C4  UNL     1      28.504  24.766  46.786  1.00  0.00     0.251 C 
BRANCH  21  22
HETATM   22  N4  UNL     1      27.548  25.778  46.493  1.00  0.00    -0.074 N 
ATOM     23  H42 UNL     1      26.929  25.480  45.740  1.00  0.00     0.277 HD
ATOM     24  H41 UNL     1      26.869  25.860  47.251  1.00  0.00     0.277 HD
BRANCH  22  25
HETATM   25  C5  UNL     1      28.131  27.061  46.193  1.00  0.00     0.234 C 
BRANCH  25  26
HETATM   26  C6  UNL     1      27.101  28.127  46.513  1.00  0.00     0.055 C 
BRANCH  26  27
HETATM   27  C7  UNL     1      25.909  27.534  47.241  1.00  0.00     0.231 C 
BRANCH  27  28
HETATM   28  N5  UNL     1      24.689  27.737  46.485  1.00  0.00    -0.079 N 
ATOM     29  H53 UNL     1      24.874  27.828  45.487  1.00  0.00     0.274 HD
ATOM     30  H52 UNL     1      24.117  26.893  46.459  1.00  0.00     0.274 HD
ATOM     31  H51 UNL     1      24.166  28.535  46.846  1.00  0.00     0.274 HD
ENDBRANCH  27  28
ENDBRANCH  26  27
ENDBRANCH  25  26
ENDBRANCH  22  25
ENDBRANCH  21  22
ENDBRANCH  20  21
ENDBRANCH  18  20
ENDBRANCH   4  18
BRANCH   1  32
HETATM   32  N1  UNL     1      29.064  19.049  43.456  1.00  0.00    -0.234 N 
ATOM     33  H12 UNL     1      29.160  18.067  43.713  1.00  0.00     0.174 HD
ATOM     34  H11 UNL     1      28.372  19.317  42.757  1.00  0.00     0.174 HD
ENDBRANCH   1  32
BRANCH   8  35
HETATM   35  N7  UNL     1      34.487  23.367  46.587  1.00  0.00     0.009 N 
HETATM   36  N8  UNL     1      34.460  23.570  47.831  1.00  0.00    -0.304 N 
ATOM     37  H82 UNL     1      33.819  23.029  48.411  1.00  0.00     0.180 HD
ATOM     38  H81 UNL     1      35.057  24.257  48.291  1.00  0.00     0.180 HD
BRANCH  35  39
HETATM   39  O1  UNL     1      35.342  24.089  45.813  1.00  0.00    -0.255 OA
ATOM     40  H1  UNL     1      35.943  24.683  46.248  1.00  0.00     0.247 HD
ENDBRANCH  35  39
ENDBRANCH   8  35
TORSDOF 11
ENDMDL
