MODEL 1
REMARK VINA RESULT: -7.591239097      0.000      0.000
REMARK  9 active torsions:
REMARK  status: ('A' for Active; 'I' for Inactive)
REMARK       I    between atoms: N1_1  and  C1_5 
REMARK       I    between atoms: C1_5  and  N2_6 
REMARK       I    between atoms: C1_5  and  N3_10 
REMARK    1  A    between atoms: N3_10  and  C2_13 
REMARK    2  A    between atoms: C2_13  and  C3_14 
REMARK    3  A    between atoms: C3_14  and  C4_15 
REMARK    4  A    between atoms: C4_15  and  N4_16 
REMARK    5  A    between atoms: C4_15  and  C8_31 
REMARK    6  A    between atoms: N4_16  and  C5_19 
REMARK    7  A    between atoms: C5_19  and  O1_20 
REMARK    8  A    between atoms: C5_19  and  C6_22 
REMARK    9  A    between atoms: N5_24  and  O2_25 
ROOT
HETATM    1  C4  UNL     1      30.024  23.473  45.523  1.00  0.00     0.224 C 
ENDROOT
BRANCH   1   2
HETATM    2  C3  UNL     1      30.975  23.267  46.654  1.00  0.00     0.065 C 
BRANCH   2   3
HETATM    3  C2  UNL     1      32.386  22.933  46.244  1.00  0.00     0.239 C 
BRANCH   3   4
HETATM    4  N3  UNL     1      33.221  23.183  47.415  1.00  0.00    -0.022 N 
HETATM    5  C1  UNL     1      34.630  23.065  47.091  1.00  0.00     0.575 C 
HETATM    6  N1  UNL     1      34.982  21.766  46.595  1.00  0.00    -0.026 N 
HETATM    7  N2  UNL     1      35.023  24.108  46.177  1.00  0.00    -0.026 N 
ATOM      8  H13 UNL     1      34.601  21.607  45.662  1.00  0.00     0.278 HD
ATOM      9  H12 UNL     1      35.977  21.710  46.372  1.00  0.00     0.278 HD
ATOM     10  H11 UNL     1      34.704  21.028  47.241  1.00  0.00     0.278 HD
ATOM     11  H23 UNL     1      36.017  24.051  45.954  1.00  0.00     0.278 HD
ATOM     12  H22 UNL     1      34.642  23.949  45.244  1.00  0.00     0.278 HD
ATOM     13  H21 UNL     1      34.773  25.032  46.529  1.00  0.00     0.278 HD
ATOM     14  H32 UNL     1      32.964  22.579  48.195  1.00  0.00     0.281 HD
ATOM     15  H31 UNL     1      33.008  24.085  47.840  1.00  0.00     0.281 HD
ENDBRANCH   3   4
ENDBRANCH   2   3
ENDBRANCH   1   2
BRANCH   1  16
HETATM   16  N4  UNL     1      29.389  22.240  45.085  1.00  0.00    -0.035 N 
ATOM     17  H42 UNL     1      29.730  21.448  45.631  1.00  0.00     0.281 HD
ATOM     18  H41 UNL     1      28.407  22.228  45.359  1.00  0.00     0.281 HD
BRANCH  16  19
HETATM   19  C5  UNL     1      29.523  21.980  43.687  1.00  0.00     0.373 C 
BRANCH  19  20
HETATM   20  O1  UNL     1      28.367  22.417  43.039  1.00  0.00    -0.365 OA
ATOM     21  H1  UNL     1      27.916  21.662  42.683  1.00  0.00     0.212 HD
ENDBRANCH  19  20
BRANCH  19  22
HETATM   22  C6  UNL     1      29.527  20.485  43.534  1.00  0.00     0.102 A 
HETATM   23  C7  UNL     1      30.499  19.612  43.950  1.00  0.00     0.175 A 
HETATM   24  N5  UNL     1      30.101  18.391  43.618  1.00  0.00    -0.158 N 
HETATM   25  N6  UNL     1      28.924  18.519  43.020  1.00  0.00    -0.216 N 
HETATM   26  N7  UNL     1      28.559  19.774  42.958  1.00  0.00    -0.283 N 
ATOM     27  H6  UNL     1      28.376  17.740  42.656  1.00  0.00     0.211 HD
ATOM     28  H7  UNL     1      27.699  20.137  42.548  1.00  0.00     0.188 HD
BRANCH  24  29
HETATM   29  O2  UNL     1      30.741  17.194  43.828  1.00  0.00    -0.267 OA
ATOM     30  H2  UNL     1      30.480  16.326  43.547  1.00  0.00     0.247 HD
ENDBRANCH  24  29
ENDBRANCH  19  22
ENDBRANCH  16  19
ENDBRANCH   1  16
BRANCH   1  31
HETATM   31  C8  UNL     1      28.869  24.357  45.905  1.00  0.00    -0.028 A 
HETATM   32  C9  UNL     1      27.640  23.770  46.225  1.00  0.00     0.009 A 
HETATM   33  C10 UNL     1      26.551  24.485  46.613  1.00  0.00     0.001 A 
HETATM   34  C11 UNL     1      26.641  25.858  46.701  1.00  0.00     0.000 A 
HETATM   35  C12 UNL     1      27.839  26.463  46.391  1.00  0.00     0.001 A 
HETATM   36  C13 UNL     1      28.952  25.716  45.995  1.00  0.00     0.009 A 
ENDBRANCH   1  31
TORSDOF 9
ENDMDL
MODEL 2
REMARK VINA RESULT: -7.588174971      0.189      1.025
REMARK  9 active torsions:
REMARK  status: ('A' for Active; 'I' for Inactive)
REMARK       I    between atoms: N1_1  and  C1_5 
REMARK       I    between atoms: C1_5  and  N2_6 
REMARK       I    between atoms: C1_5  and  N3_10 
REMARK    1  A    between atoms: N3_10  and  C2_13 
REMARK    2  A    between atoms: C2_13  and  C3_14 
REMARK    3  A    between atoms: C3_14  and  C4_15 
REMARK    4  A    between atoms: C4_15  and  N4_16 
REMARK    5  A    between atoms: C4_15  and  C8_31 
REMARK    6  A    between atoms: N4_16  and  C5_19 
REMARK    7  A    between atoms: C5_19  and  O1_20 
REMARK    8  A    between atoms: C5_19  and  C6_22 
REMARK    9  A    between atoms: N5_24  and  O2_25 
ROOT
HETATM    1  C4  UNL     1      30.047  23.435  45.544  1.00  0.00     0.224 C 
ENDROOT
BRANCH   1   2
HETATM    2  C3  UNL     1      31.005  23.279  46.677  1.00  0.00     0.065 C 
BRANCH   2   3
HETATM    3  C2  UNL     1      32.409  22.908  46.274  1.00  0.00     0.239 C 
BRANCH   3   4
HETATM    4  N3  UNL     1      33.250  23.173  47.437  1.00  0.00    -0.022 N 
HETATM    5  C1  UNL     1      34.657  23.069  47.103  1.00  0.00     0.575 C 
HETATM    6  N1  UNL     1      35.020  21.772  46.611  1.00  0.00    -0.026 N 
HETATM    7  N2  UNL     1      35.032  24.112  46.182  1.00  0.00    -0.026 N 
ATOM      8  H13 UNL     1      34.634  21.604  45.681  1.00  0.00     0.278 HD
ATOM      9  H12 UNL     1      36.013  21.725  46.380  1.00  0.00     0.278 HD
ATOM     10  H11 UNL     1      34.755  21.034  47.262  1.00  0.00     0.278 HD
ATOM     11  H23 UNL     1      36.025  24.065  45.952  1.00  0.00     0.278 HD
ATOM     12  H22 UNL     1      34.646  23.944  45.253  1.00  0.00     0.278 HD
ATOM     13  H21 UNL     1      34.774  25.034  46.532  1.00  0.00     0.278 HD
ATOM     14  H32 UNL     1      33.005  22.569  48.222  1.00  0.00     0.281 HD
ATOM     15  H31 UNL     1      33.030  24.075  47.860  1.00  0.00     0.281 HD
ENDBRANCH   3   4
ENDBRANCH   2   3
ENDBRANCH   1   2
BRANCH   1  16
HETATM   16  N4  UNL     1      29.470  22.171  45.111  1.00  0.00    -0.035 N 
ATOM     17  H42 UNL     1      29.826  21.402  45.680  1.00  0.00     0.281 HD
ATOM     18  H41 UNL     1      28.482  22.126  45.359  1.00  0.00     0.281 HD
BRANCH  16  19
HETATM   19  C5  UNL     1      29.652  21.893  43.722  1.00  0.00     0.373 C 
BRANCH  19  20
HETATM   20  O1  UNL     1      28.494  22.262  43.037  1.00  0.00    -0.365 OA
ATOM     21  H1  UNL     1      28.741  22.632  42.199  1.00  0.00     0.212 HD
ENDBRANCH  19  20
BRANCH  19  22
HETATM   22  C6  UNL     1      29.731  20.397  43.598  1.00  0.00     0.102 A 
HETATM   23  C7  UNL     1      30.740  19.581  44.040  1.00  0.00     0.175 A 
HETATM   24  N5  UNL     1      30.406  18.336  43.728  1.00  0.00    -0.158 N 
HETATM   25  N6  UNL     1      29.231  18.395  43.116  1.00  0.00    -0.216 N 
HETATM   26  N7  UNL     1      28.806  19.628  43.026  1.00  0.00    -0.283 N 
ATOM     27  H6  UNL     1      28.726  17.583  42.761  1.00  0.00     0.211 HD
ATOM     28  H7  UNL     1      27.933  19.941  42.600  1.00  0.00     0.188 HD
BRANCH  24  29
HETATM   29  O2  UNL     1      31.101  17.176  43.968  1.00  0.00    -0.267 OA
ATOM     30  H2  UNL     1      30.762  16.310  44.158  1.00  0.00     0.247 HD
ENDBRANCH  24  29
ENDBRANCH  19  22
ENDBRANCH  16  19
ENDBRANCH   1  16
BRANCH   1  31
HETATM   31  C8  UNL     1      28.850  24.266  45.920  1.00  0.00    -0.028 A 
HETATM   32  C9  UNL     1      28.985  25.655  45.999  1.00  0.00     0.009 A 
HETATM   33  C10 UNL     1      27.954  26.488  46.299  1.00  0.00     0.001 A 
HETATM   34  C11 UNL     1      26.705  25.957  46.542  1.00  0.00     0.000 A 
HETATM   35  C12 UNL     1      26.543  24.591  46.472  1.00  0.00     0.001 A 
HETATM   36  C13 UNL     1      27.613  23.745  46.161  1.00  0.00     0.009 A 
ENDBRANCH   1  31
TORSDOF 9
ENDMDL
MODEL 3
REMARK VINA RESULT: -7.584832638      2.325      5.212
REMARK  9 active torsions:
REMARK  status: ('A' for Active; 'I' for Inactive)
REMARK       I    between atoms: N1_1  and  C1_5 
REMARK       I    between atoms: C1_5  and  N2_6 
REMARK       I    between atoms: C1_5  and  N3_10 
REMARK    1  A    between atoms: N3_10  and  C2_13 
REMARK    2  A    between atoms: C2_13  and  C3_14 
REMARK    3  A    between atoms: C3_14  and  C4_15 
REMARK    4  A    between atoms: C4_15  and  N4_16 
REMARK    5  A    between atoms: C4_15  and  C8_31 
REMARK    6  A    between atoms: N4_16  and  C5_19 
REMARK    7  A    between atoms: C5_19  and  O1_20 
REMARK    8  A    between atoms: C5_19  and  C6_22 
REMARK    9  A    between atoms: N5_24  and  O2_25 
ROOT
HETATM    1  C4  UNL     1      29.367  22.445  45.540  1.00  0.00     0.224 C 
ENDROOT
BRANCH   1   2
HETATM    2  C3  UNL     1      29.785  22.315  44.113  1.00  0.00     0.065 C 
BRANCH   2   3
HETATM    3  C2  UNL     1      28.940  21.378  43.288  1.00  0.00     0.239 C 
BRANCH   3   4
HETATM    4  N3  UNL     1      29.849  20.358  42.774  1.00  0.00    -0.022 N 
HETATM    5  C1  UNL     1      29.444  19.032  43.199  1.00  0.00     0.575 C 
HETATM    6  N1  UNL     1      29.415  18.886  44.626  1.00  0.00    -0.026 N 
HETATM    7  N2  UNL     1      28.181  18.678  42.603  1.00  0.00    -0.026 N 
ATOM      8  H13 UNL     1      28.647  19.416  45.039  1.00  0.00     0.278 HD
ATOM      9  H12 UNL     1      29.125  17.947  44.899  1.00  0.00     0.278 HD
ATOM     10  H11 UNL     1      30.309  19.136  45.048  1.00  0.00     0.278 HD
ATOM     11  H23 UNL     1      27.891  17.738  42.876  1.00  0.00     0.278 HD
ATOM     12  H22 UNL     1      27.413  19.207  43.016  1.00  0.00     0.278 HD
ATOM     13  H21 UNL     1      28.201  18.781  41.588  1.00  0.00     0.278 HD
ATOM     14  H32 UNL     1      30.817  20.554  43.030  1.00  0.00     0.281 HD
ATOM     15  H31 UNL     1      29.941  20.415  41.760  1.00  0.00     0.281 HD
ENDBRANCH   3   4
ENDBRANCH   2   3
ENDBRANCH   1   2
BRANCH   1  16
HETATM   16  N4  UNL     1      30.494  22.578  46.450  1.00  0.00    -0.035 N 
ATOM     17  H42 UNL     1      31.069  23.381  46.194  1.00  0.00     0.281 HD
ATOM     18  H41 UNL     1      30.176  22.879  47.371  1.00  0.00     0.281 HD
BRANCH  16  19
HETATM   19  C5  UNL     1      31.298  21.402  46.558  1.00  0.00     0.373 C 
BRANCH  19  20
HETATM   20  O1  UNL     1      31.234  20.937  47.872  1.00  0.00    -0.365 OA
ATOM     21  H1  UNL     1      30.704  20.149  47.890  1.00  0.00     0.212 HD
ENDBRANCH  19  20
BRANCH  19  22
HETATM   22  C6  UNL     1      32.721  21.842  46.358  1.00  0.00     0.102 A 
HETATM   23  C7  UNL     1      33.223  23.110  46.500  1.00  0.00     0.175 A 
HETATM   24  N5  UNL     1      34.521  23.053  46.232  1.00  0.00    -0.158 N 
HETATM   25  N6  UNL     1      34.797  21.790  45.938  1.00  0.00    -0.216 N 
HETATM   26  N7  UNL     1      33.726  21.042  46.008  1.00  0.00    -0.283 N 
ATOM     27  H6  UNL     1      35.725  21.447  45.690  1.00  0.00     0.211 HD
ATOM     28  H7  UNL     1      33.671  20.040  45.828  1.00  0.00     0.188 HD
BRANCH  24  29
HETATM   29  O2  UNL     1      35.444  24.070  46.242  1.00  0.00    -0.267 OA
ATOM     30  H2  UNL     1      36.387  24.013  46.334  1.00  0.00     0.247 HD
ENDBRANCH  24  29
ENDBRANCH  19  22
ENDBRANCH  16  19
ENDBRANCH   1  16
BRANCH   1  31
HETATM   31  C8  UNL     1      28.559  23.690  45.785  1.00  0.00    -0.028 A 
HETATM   32  C9  UNL     1      29.223  24.906  45.970  1.00  0.00     0.009 A 
HETATM   33  C10 UNL     1      28.576  26.086  46.165  1.00  0.00     0.001 A 
HETATM   34  C11 UNL     1      27.198  26.106  46.184  1.00  0.00     0.000 A 
HETATM   35  C12 UNL     1      26.518  24.921  46.006  1.00  0.00     0.001 A 
HETATM   36  C13 UNL     1      27.195  23.715  45.805  1.00  0.00     0.009 A 
ENDBRANCH   1  31
TORSDOF 9
ENDMDL
MODEL 4
REMARK VINA RESULT: -7.569143464      2.555      5.592
REMARK  9 active torsions:
REMARK  status: ('A' for Active; 'I' for Inactive)
REMARK       I    between atoms: N1_1  and  C1_5 
REMARK       I    between atoms: C1_5  and  N2_6 
REMARK       I    between atoms: C1_5  and  N3_10 
REMARK    1  A    between atoms: N3_10  and  C2_13 
REMARK    2  A    between atoms: C2_13  and  C3_14 
REMARK    3  A    between atoms: C3_14  and  C4_15 
REMARK    4  A    between atoms: C4_15  and  N4_16 
REMARK    5  A    between atoms: C4_15  and  C8_31 
REMARK    6  A    between atoms: N4_16  and  C5_19 
REMARK    7  A    between atoms: C5_19  and  O1_20 
REMARK    8  A    between atoms: C5_19  and  C6_22 
REMARK    9  A    between atoms: N5_24  and  O2_25 
ROOT
HETATM    1  C4  UNL     1      30.735  21.032  46.266  1.00  0.00     0.224 C 
ENDROOT
BRANCH   1   2
HETATM    2  C3  UNL     1      31.539  21.212  47.510  1.00  0.00     0.065 C 
BRANCH   2   3
HETATM    3  C2  UNL     1      32.505  22.369  47.478  1.00  0.00     0.239 C 
BRANCH   3   4
HETATM    4  N3  UNL     1      33.806  21.823  47.854  1.00  0.00    -0.022 N 
HETATM    5  C1  UNL     1      34.812  22.129  46.855  1.00  0.00     0.575 C 
HETATM    6  N1  UNL     1      34.493  21.599  45.560  1.00  0.00    -0.026 N 
HETATM    7  N2  UNL     1      35.053  23.549  46.804  1.00  0.00    -0.026 N 
ATOM      8  H13 UNL     1      33.708  22.095  45.138  1.00  0.00     0.278 HD
ATOM      9  H12 UNL     1      35.214  21.830  44.876  1.00  0.00     0.278 HD
ATOM     10  H11 UNL     1      34.322  20.595  45.596  1.00  0.00     0.278 HD
ATOM     11  H23 UNL     1      35.773  23.779  46.119  1.00  0.00     0.278 HD
ATOM     12  H22 UNL     1      34.268  24.045  46.381  1.00  0.00     0.278 HD
ATOM     13  H21 UNL     1      35.279  23.926  47.724  1.00  0.00     0.278 HD
ATOM     14  H32 UNL     1      33.753  20.821  48.038  1.00  0.00     0.281 HD
ATOM     15  H31 UNL     1      34.090  22.138  48.781  1.00  0.00     0.281 HD
ENDBRANCH   3   4
ENDBRANCH   2   3
ENDBRANCH   1   2
BRANCH   1  16
HETATM   16  N4  UNL     1      30.957  22.087  45.290  1.00  0.00    -0.035 N 
ATOM     17  H42 UNL     1      31.433  22.880  45.721  1.00  0.00     0.281 HD
ATOM     18  H41 UNL     1      31.669  21.805  44.615  1.00  0.00     0.281 HD
BRANCH  16  19
HETATM   19  C5  UNL     1      29.773  22.518  44.618  1.00  0.00     0.373 C 
BRANCH  19  20
HETATM   20  O1  UNL     1      30.140  23.326  43.541  1.00  0.00    -0.365 OA
ATOM     21  H1  UNL     1      29.622  24.121  43.568  1.00  0.00     0.212 HD
ENDBRANCH  19  20
BRANCH  19  22
HETATM   22  C6  UNL     1      29.053  23.429  45.573  1.00  0.00     0.102 A 
HETATM   23  C7  UNL     1      27.701  23.497  45.792  1.00  0.00     0.175 A 
HETATM   24  N5  UNL     1      27.498  24.430  46.713  1.00  0.00    -0.158 N 
HETATM   25  N6  UNL     1      28.688  24.912  47.042  1.00  0.00    -0.216 N 
HETATM   26  N7  UNL     1      29.641  24.322  46.366  1.00  0.00    -0.283 N 
ATOM     27  H6  UNL     1      28.841  25.647  47.732  1.00  0.00     0.211 HD
ATOM     28  H7  UNL     1      30.641  24.511  46.434  1.00  0.00     0.188 HD
BRANCH  24  29
HETATM   29  O2  UNL     1      26.310  24.853  47.256  1.00  0.00    -0.267 OA
ATOM     30  H2  UNL     1      26.031  25.739  47.454  1.00  0.00     0.247 HD
ENDBRANCH  24  29
ENDBRANCH  19  22
ENDBRANCH  16  19
ENDBRANCH   1  16
BRANCH   1  31
HETATM   31  C8  UNL     1      31.103  19.774  45.527  1.00  0.00    -0.028 A 
HETATM   32  C9  UNL     1      32.219  19.043  45.944  1.00  0.00     0.009 A 
HETATM   33  C10 UNL     1      32.608  17.879  45.359  1.00  0.00     0.001 A 
HETATM   34  C11 UNL     1      31.880  17.379  44.301  1.00  0.00     0.000 A 
HETATM   35  C12 UNL     1      30.775  18.079  43.869  1.00  0.00     0.001 A 
HETATM   36  C13 UNL     1      30.385  19.275  44.480  1.00  0.00     0.009 A 
ENDBRANCH   1  31
TORSDOF 9
ENDMDL
MODEL 5
REMARK VINA RESULT: -7.522727554      3.590      6.386
REMARK  9 active torsions:
REMARK  status: ('A' for Active; 'I' for Inactive)
REMARK       I    between atoms: N1_1  and  C1_5 
REMARK       I    between atoms: C1_5  and  N2_6 
REMARK       I    between atoms: C1_5  and  N3_10 
REMARK    1  A    between atoms: N3_10  and  C2_13 
REMARK    2  A    between atoms: C2_13  and  C3_14 
REMARK    3  A    between atoms: C3_14  and  C4_15 
REMARK    4  A    between atoms: C4_15  and  N4_16 
REMARK    5  A    between atoms: C4_15  and  C8_31 
REMARK    6  A    between atoms: N4_16  and  C5_19 
REMARK    7  A    between atoms: C5_19  and  O1_20 
REMARK    8  A    between atoms: C5_19  and  C6_22 
REMARK    9  A    between atoms: N5_24  and  O2_25 
ROOT
HETATM    1  C4  UNL     1      32.752  20.081  44.885  1.00  0.00     0.224 C 
ENDROOT
BRANCH   1   2
HETATM    2  C3  UNL     1      33.291  19.149  43.852  1.00  0.00     0.065 C 
BRANCH   2   3
HETATM    3  C2  UNL     1      33.816  17.842  44.389  1.00  0.00     0.239 C 
BRANCH   3   4
HETATM    4  N3  UNL     1      32.953  17.487  45.511  1.00  0.00    -0.022 N 
HETATM    5  C1  UNL     1      33.608  16.548  46.401  1.00  0.00     0.575 C 
HETATM    6  N1  UNL     1      33.975  15.323  45.750  1.00  0.00    -0.026 N 
HETATM    7  N2  UNL     1      34.740  17.169  47.041  1.00  0.00    -0.026 N 
ATOM      8  H13 UNL     1      34.742  15.465  45.093  1.00  0.00     0.278 HD
ATOM      9  H12 UNL     1      34.436  14.681  46.396  1.00  0.00     0.278 HD
ATOM     10  H11 UNL     1      33.174  14.883  45.297  1.00  0.00     0.278 HD
ATOM     11  H23 UNL     1      35.201  16.527  47.687  1.00  0.00     0.278 HD
ATOM     12  H22 UNL     1      35.507  17.311  46.384  1.00  0.00     0.278 HD
ATOM     13  H21 UNL     1      34.479  18.040  47.504  1.00  0.00     0.278 HD
ATOM     14  H32 UNL     1      32.050  17.134  45.193  1.00  0.00     0.281 HD
ATOM     15  H31 UNL     1      32.629  18.314  46.011  1.00  0.00     0.281 HD
ENDBRANCH   3   4
ENDBRANCH   2   3
ENDBRANCH   1   2
BRANCH   1  16
HETATM   16  N4  UNL     1      33.674  21.157  45.214  1.00  0.00    -0.035 N 
ATOM     17  H42 UNL     1      34.380  21.259  44.484  1.00  0.00     0.281 HD
ATOM     18  H41 UNL     1      33.210  22.061  45.134  1.00  0.00     0.281 HD
BRANCH  16  19
HETATM   19  C5  UNL     1      34.293  21.022  46.493  1.00  0.00     0.373 C 
BRANCH  19  20
HETATM   20  O1  UNL     1      33.584  20.078  47.236  1.00  0.00    -0.365 OA
ATOM     21  H1  UNL     1      34.113  19.817  47.980  1.00  0.00     0.212 HD
ENDBRANCH  19  20
BRANCH  19  22
HETATM   22  C6  UNL     1      34.083  22.330  47.204  1.00  0.00     0.102 A 
HETATM   23  C7  UNL     1      33.247  22.571  48.264  1.00  0.00     0.175 A 
HETATM   24  N5  UNL     1      33.371  23.854  48.580  1.00  0.00    -0.158 N 
HETATM   25  N6  UNL     1      34.253  24.374  47.739  1.00  0.00    -0.216 N 
HETATM   26  N7  UNL     1      34.696  23.472  46.900  1.00  0.00    -0.283 N 
ATOM     27  H6  UNL     1      34.549  25.350  47.745  1.00  0.00     0.211 HD
ATOM     28  H7  UNL     1      35.378  23.617  46.156  1.00  0.00     0.188 HD
BRANCH  24  29
HETATM   29  O2  UNL     1      32.735  24.557  49.573  1.00  0.00    -0.267 OA
ATOM     30  H2  UNL     1      32.504  25.478  49.593  1.00  0.00     0.247 HD
ENDBRANCH  24  29
ENDBRANCH  19  22
ENDBRANCH  16  19
ENDBRANCH   1  16
BRANCH   1  31
HETATM   31  C8  UNL     1      31.516  20.798  44.415  1.00  0.00    -0.028 A 
HETATM   32  C9  UNL     1      30.668  20.164  43.501  1.00  0.00     0.009 A 
HETATM   33  C10 UNL     1      29.514  20.720  43.045  1.00  0.00     0.001 A 
HETATM   34  C11 UNL     1      29.143  21.969  43.494  1.00  0.00     0.000 A 
HETATM   35  C12 UNL     1      29.959  22.617  44.395  1.00  0.00     0.001 A 
HETATM   36  C13 UNL     1      31.144  22.033  44.856  1.00  0.00     0.009 A 
ENDBRANCH   1  31
TORSDOF 9
ENDMDL
