MODEL 1
REMARK VINA RESULT: -7.131142867      0.000      0.000
REMARK  11 active torsions:
REMARK  status: ('A' for Active; 'I' for Inactive)
REMARK    1  A    between atoms: C2_3  and  N2_4 
REMARK    2  A    between atoms: C2_3  and  C3_8 
REMARK    3  A    between atoms: N3_9  and  C4_11 
REMARK    4  A    between atoms: C5_12  and  N4_13 
REMARK    5  A    between atoms: N4_13  and  C6_15 
REMARK    6  A    between atoms: C6_15  and  C7_16 
REMARK    7  A    between atoms: C6_15  and  C8_19 
REMARK    8  A    between atoms: C7_16  and  O1_17 
REMARK    9  A    between atoms: C8_19  and  O2_20 
REMARK   10  A    between atoms: C10_23  and  N5_24 
REMARK   11  A    between atoms: N5_24  and  C11_26 
ROOT
HETATM    1  N1  UNL     1      32.336  19.678  41.134  1.00  0.00    -0.195 NA
HETATM    2  C1  UNL     1      32.367  19.492  42.291  1.00  0.00     0.098 C 
HETATM    3  C2  UNL     1      32.424  19.269  43.726  1.00  0.00     0.327 C 
ENDROOT
BRANCH   3   4
HETATM    4  N2  UNL     1      33.771  19.528  44.211  1.00  0.00    -0.058 N 
ATOM      5  H23 UNL     1      34.258  20.219  43.640  1.00  0.00     0.276 HD
ATOM      6  H22 UNL     1      33.768  20.040  45.093  1.00  0.00     0.276 HD
ATOM      7  H21 UNL     1      34.288  18.652  44.278  1.00  0.00     0.276 HD
ENDBRANCH   3   4
BRANCH   3   8
HETATM    8  C3  UNL     1      31.524  20.225  44.428  1.00  0.00     0.108 C 
HETATM    9  N3  UNL     1      31.264  21.389  43.964  1.00  0.00    -0.362 N 
ATOM     10  H3  UNL     1      31.669  21.708  43.085  1.00  0.00     0.165 HD
BRANCH   9  11
HETATM   11  C4  UNL     1      30.383  22.229  44.722  1.00  0.00     0.102 A 
HETATM   12  C5  UNL     1      30.872  22.995  45.763  1.00  0.00     0.062 A 
HETATM   13  C9  UNL     1      29.999  23.774  46.452  1.00  0.00     0.080 A 
HETATM   14  C10 UNL     1      28.652  23.787  46.100  1.00  0.00     0.105 A 
HETATM   15  N6  UNL     1      28.188  23.039  45.087  1.00  0.00    -0.327 N 
HETATM   16  C14 UNL     1      29.050  22.266  44.403  1.00  0.00     0.130 A 
ATOM     17  H6  UNL     1      27.198  23.058  44.840  1.00  0.00     0.169 HD
HETATM   18  N7  UNL     1      28.569  21.553  43.427  1.00  0.00    -0.384 N 
ATOM     19  H72 UNL     1      29.222  20.966  42.908  1.00  0.00     0.157 HD
ATOM     20  H71 UNL     1      27.578  21.580  43.189  1.00  0.00     0.157 HD
BRANCH  12  21
HETATM   21  N4  UNL     1      32.262  22.913  46.069  1.00  0.00    -0.379 N 
ATOM     22  H4  UNL     1      32.918  23.023  45.296  1.00  0.00     0.160 HD
BRANCH  21  23
HETATM   23  C6  UNL     1      32.811  22.689  47.368  1.00  0.00     0.129 C 
BRANCH  23  24
HETATM   24  C7  UNL     1      33.665  21.406  47.337  1.00  0.00     0.191 C 
BRANCH  24  25
HETATM   25  O1  UNL     1      34.619  21.472  46.340  1.00  0.00    -0.399 OA
ATOM     26  H1  UNL     1      34.614  20.682  45.812  1.00  0.00     0.209 HD
ENDBRANCH  24  25
ENDBRANCH  23  24
BRANCH  23  27
HETATM   27  C8  UNL     1      33.762  23.799  47.792  1.00  0.00     0.191 C 
BRANCH  27  28
HETATM   28  O2  UNL     1      34.289  24.441  46.671  1.00  0.00    -0.399 OA
ATOM     29  H2  UNL     1      34.876  23.859  46.202  1.00  0.00     0.209 HD
ENDBRANCH  27  28
ENDBRANCH  23  27
ENDBRANCH  21  23
ENDBRANCH  12  21
BRANCH  14  30
HETATM   30  N5  UNL     1      27.814  24.639  46.866  1.00  0.00    -0.372 N 
ATOM     31  H5  UNL     1      27.650  24.447  47.854  1.00  0.00     0.161 HD
BRANCH  30  32
HETATM   32  C11 UNL     1      27.199  25.775  46.236  1.00  0.00     0.083 A 
HETATM   33  C12 UNL     1      26.640  26.898  47.091  1.00  0.00     0.027 A 
HETATM   34  C13 UNL     1      27.869  27.104  46.261  1.00  0.00     0.027 A 
ENDBRANCH  30  32
ENDBRANCH  14  30
ENDBRANCH   9  11
ENDBRANCH   3   8
TORSDOF 11
ENDMDL
MODEL 2
REMARK VINA RESULT: -7.106732772      3.928      5.952
REMARK  11 active torsions:
REMARK  status: ('A' for Active; 'I' for Inactive)
REMARK    1  A    between atoms: C2_3  and  N2_4 
REMARK    2  A    between atoms: C2_3  and  C3_8 
REMARK    3  A    between atoms: N3_9  and  C4_11 
REMARK    4  A    between atoms: C5_12  and  N4_13 
REMARK    5  A    between atoms: N4_13  and  C6_15 
REMARK    6  A    between atoms: C6_15  and  C7_16 
REMARK    7  A    between atoms: C6_15  and  C8_19 
REMARK    8  A    between atoms: C7_16  and  O1_17 
REMARK    9  A    between atoms: C8_19  and  O2_20 
REMARK   10  A    between atoms: C10_23  and  N5_24 
REMARK   11  A    between atoms: N5_24  and  C11_26 
ROOT
HETATM    1  N1  UNL     1      33.267  24.165  47.216  1.00  0.00    -0.195 NA
HETATM    2  C1  UNL     1      33.702  23.267  46.603  1.00  0.00     0.098 C 
HETATM    3  C2  UNL     1      34.248  22.142  45.861  1.00  0.00     0.327 C 
ENDROOT
BRANCH   3   4
HETATM    4  N2  UNL     1      34.923  21.232  46.772  1.00  0.00    -0.058 N 
ATOM      5  H23 UNL     1      34.819  20.257  46.488  1.00  0.00     0.276 HD
ATOM      6  H22 UNL     1      35.938  21.299  46.698  1.00  0.00     0.276 HD
ATOM      7  H21 UNL     1      34.597  21.391  47.725  1.00  0.00     0.276 HD
ENDBRANCH   3   4
BRANCH   3   8
HETATM    8  C3  UNL     1      33.147  21.371  45.220  1.00  0.00     0.108 C 
HETATM    9  N3  UNL     1      33.338  20.231  44.671  1.00  0.00    -0.362 N 
ATOM     10  H3  UNL     1      34.263  19.804  44.651  1.00  0.00     0.165 HD
BRANCH   9  11
HETATM   11  C4  UNL     1      32.207  19.574  44.083  1.00  0.00     0.102 A 
HETATM   12  C5  UNL     1      31.239  18.998  44.883  1.00  0.00     0.062 A 
HETATM   13  C9  UNL     1      30.188  18.387  44.281  1.00  0.00     0.080 A 
HETATM   14  C10 UNL     1      30.106  18.355  42.891  1.00  0.00     0.105 A 
HETATM   15  N6  UNL     1      31.051  18.918  42.123  1.00  0.00    -0.327 N 
HETATM   16  C14 UNL     1      32.095  19.524  42.717  1.00  0.00     0.130 A 
ATOM     17  H6  UNL     1      30.978  18.888  41.106  1.00  0.00     0.169 HD
HETATM   18  N7  UNL     1      32.993  20.060  41.945  1.00  0.00    -0.384 N 
ATOM     19  H72 UNL     1      33.786  20.519  42.395  1.00  0.00     0.157 HD
ATOM     20  H71 UNL     1      32.910  20.023  40.929  1.00  0.00     0.157 HD
BRANCH  12  21
HETATM   21  N4  UNL     1      31.406  19.061  46.298  1.00  0.00    -0.379 N 
ATOM     22  H4  UNL     1      32.174  18.524  46.702  1.00  0.00     0.160 HD
BRANCH  21  23
HETATM   23  C6  UNL     1      30.588  19.812  47.195  1.00  0.00     0.129 C 
BRANCH  23  24
HETATM   24  C7  UNL     1      29.771  18.837  48.065  1.00  0.00     0.191 C 
BRANCH  24  25
HETATM   25  O1  UNL     1      29.809  19.210  49.394  1.00  0.00    -0.399 OA
ATOM     26  H1  UNL     1      30.585  19.727  49.580  1.00  0.00     0.209 HD
ENDBRANCH  24  25
ENDBRANCH  23  24
BRANCH  23  27
HETATM   27  C8  UNL     1      31.411  20.637  48.174  1.00  0.00     0.191 C 
BRANCH  27  28
HETATM   28  O2  UNL     1      32.656  20.041  48.384  1.00  0.00    -0.399 OA
ATOM     29  H2  UNL     1      33.214  20.615  48.897  1.00  0.00     0.209 HD
ENDBRANCH  27  28
ENDBRANCH  23  27
ENDBRANCH  21  23
ENDBRANCH  12  21
BRANCH  14  30
HETATM   30  N5  UNL     1      28.966  17.706  42.347  1.00  0.00    -0.372 N 
ATOM     31  H5  UNL     1      28.880  16.691  42.396  1.00  0.00     0.161 HD
BRANCH  30  32
HETATM   32  C11 UNL     1      27.936  18.493  41.727  1.00  0.00     0.083 A 
HETATM   33  C12 UNL     1      27.387  18.080  40.373  1.00  0.00     0.027 A 
HETATM   34  C13 UNL     1      26.550  17.961  41.608  1.00  0.00     0.027 A 
ENDBRANCH  30  32
ENDBRANCH  14  30
ENDBRANCH   9  11
ENDBRANCH   3   8
TORSDOF 11
ENDMDL
MODEL 3
REMARK VINA RESULT: -7.075985580      0.841      1.110
REMARK  11 active torsions:
REMARK  status: ('A' for Active; 'I' for Inactive)
REMARK    1  A    between atoms: C2_3  and  N2_4 
REMARK    2  A    between atoms: C2_3  and  C3_8 
REMARK    3  A    between atoms: N3_9  and  C4_11 
REMARK    4  A    between atoms: C5_12  and  N4_13 
REMARK    5  A    between atoms: N4_13  and  C6_15 
REMARK    6  A    between atoms: C6_15  and  C7_16 
REMARK    7  A    between atoms: C6_15  and  C8_19 
REMARK    8  A    between atoms: C7_16  and  O1_17 
REMARK    9  A    between atoms: C8_19  and  O2_20 
REMARK   10  A    between atoms: C10_23  and  N5_24 
REMARK   11  A    between atoms: N5_24  and  C11_26 
ROOT
HETATM    1  N1  UNL     1      32.361  19.662  41.182  1.00  0.00    -0.195 NA
HETATM    2  C1  UNL     1      32.364  19.466  42.337  1.00  0.00     0.098 C 
HETATM    3  C2  UNL     1      32.387  19.231  43.771  1.00  0.00     0.327 C 
ENDROOT
BRANCH   3   4
HETATM    4  N2  UNL     1      33.727  19.463  44.287  1.00  0.00    -0.058 N 
ATOM      5  H23 UNL     1      34.400  18.786  43.926  1.00  0.00     0.276 HD
ATOM      6  H22 UNL     1      34.146  20.308  43.899  1.00  0.00     0.276 HD
ATOM      7  H21 UNL     1      33.707  19.478  45.306  1.00  0.00     0.276 HD
ENDBRANCH   3   4
BRANCH   3   8
HETATM    8  C3  UNL     1      31.489  20.197  44.462  1.00  0.00     0.108 C 
HETATM    9  N3  UNL     1      31.260  21.370  44.003  1.00  0.00    -0.362 N 
ATOM     10  H3  UNL     1      31.691  21.690  43.136  1.00  0.00     0.165 HD
BRANCH   9  11
HETATM   11  C4  UNL     1      30.378  22.220  44.749  1.00  0.00     0.102 A 
HETATM   12  C5  UNL     1      30.852  22.950  45.822  1.00  0.00     0.062 A 
HETATM   13  C9  UNL     1      29.979  23.739  46.498  1.00  0.00     0.080 A 
HETATM   14  C10 UNL     1      28.645  23.797  46.102  1.00  0.00     0.105 A 
HETATM   15  N6  UNL     1      28.195  23.083  45.058  1.00  0.00    -0.327 N 
HETATM   16  C14 UNL     1      29.058  22.300  44.387  1.00  0.00     0.130 A 
ATOM     17  H6  UNL     1      27.215  23.135  44.778  1.00  0.00     0.169 HD
HETATM   18  N7  UNL     1      28.591  21.621  43.380  1.00  0.00    -0.384 N 
ATOM     19  H72 UNL     1      29.245  21.026  42.871  1.00  0.00     0.157 HD
ATOM     20  H71 UNL     1      27.610  21.681  43.110  1.00  0.00     0.157 HD
BRANCH  12  21
HETATM   21  N4  UNL     1      32.228  22.822  46.172  1.00  0.00    -0.379 N 
ATOM     22  H4  UNL     1      32.914  22.962  45.430  1.00  0.00     0.160 HD
BRANCH  21  23
HETATM   23  C6  UNL     1      32.726  22.515  47.474  1.00  0.00     0.129 C 
BRANCH  23  24
HETATM   24  C7  UNL     1      32.114  21.181  47.944  1.00  0.00     0.191 C 
BRANCH  24  25
HETATM   25  O1  UNL     1      32.701  20.755  49.119  1.00  0.00    -0.399 OA
ATOM     26  H1  UNL     1      33.642  20.669  49.017  1.00  0.00     0.209 HD
ENDBRANCH  24  25
ENDBRANCH  23  24
BRANCH  23  27
HETATM   27  C8  UNL     1      34.232  22.295  47.481  1.00  0.00     0.191 C 
BRANCH  27  28
HETATM   28  O2  UNL     1      34.558  21.152  46.750  1.00  0.00    -0.399 OA
ATOM     29  H2  UNL     1      34.493  21.326  45.818  1.00  0.00     0.209 HD
ENDBRANCH  27  28
ENDBRANCH  23  27
ENDBRANCH  21  23
ENDBRANCH  12  21
BRANCH  14  30
HETATM   30  N5  UNL     1      27.805  24.657  46.857  1.00  0.00    -0.372 N 
ATOM     31  H5  UNL     1      27.619  24.461  47.840  1.00  0.00     0.161 HD
BRANCH  30  32
HETATM   32  C11 UNL     1      27.220  25.806  46.223  1.00  0.00     0.083 A 
HETATM   33  C12 UNL     1      26.644  26.923  47.075  1.00  0.00     0.027 A 
HETATM   34  C13 UNL     1      27.899  27.130  46.287  1.00  0.00     0.027 A 
ENDBRANCH  30  32
ENDBRANCH  14  30
ENDBRANCH   9  11
ENDBRANCH   3   8
TORSDOF 11
ENDMDL
MODEL 4
REMARK VINA RESULT: -7.026676374      1.599      1.638
REMARK  11 active torsions:
REMARK  status: ('A' for Active; 'I' for Inactive)
REMARK    1  A    between atoms: C2_3  and  N2_4 
REMARK    2  A    between atoms: C2_3  and  C3_8 
REMARK    3  A    between atoms: N3_9  and  C4_11 
REMARK    4  A    between atoms: C5_12  and  N4_13 
REMARK    5  A    between atoms: N4_13  and  C6_15 
REMARK    6  A    between atoms: C6_15  and  C7_16 
REMARK    7  A    between atoms: C6_15  and  C8_19 
REMARK    8  A    between atoms: C7_16  and  O1_17 
REMARK    9  A    between atoms: C8_19  and  O2_20 
REMARK   10  A    between atoms: C10_23  and  N5_24 
REMARK   11  A    between atoms: N5_24  and  C11_26 
ROOT
HETATM    1  N1  UNL     1      31.208  17.267  43.958  1.00  0.00    -0.195 NA
HETATM    2  C1  UNL     1      31.771  18.104  44.554  1.00  0.00     0.098 C 
HETATM    3  C2  UNL     1      32.479  19.148  45.276  1.00  0.00     0.327 C 
ENDROOT
BRANCH   3   4
HETATM    4  N2  UNL     1      33.500  19.732  44.421  1.00  0.00    -0.058 N 
ATOM      5  H23 UNL     1      33.160  19.893  43.473  1.00  0.00     0.276 HD
ATOM      6  H22 UNL     1      33.701  20.700  44.672  1.00  0.00     0.276 HD
ATOM      7  H21 UNL     1      34.337  19.150  44.435  1.00  0.00     0.276 HD
ENDBRANCH   3   4
BRANCH   3   8
HETATM    8  C3  UNL     1      31.540  20.246  45.637  1.00  0.00     0.108 C 
HETATM    9  N3  UNL     1      31.464  21.332  44.964  1.00  0.00    -0.362 N 
ATOM     10  H3  UNL     1      32.051  21.486  44.144  1.00  0.00     0.165 HD
BRANCH   9  11
HETATM   11  C4  UNL     1      30.525  22.324  45.400  1.00  0.00     0.102 A 
HETATM   12  C5  UNL     1      30.880  23.246  46.366  1.00  0.00     0.062 A 
HETATM   13  C9  UNL     1      29.957  24.165  46.747  1.00  0.00     0.080 A 
HETATM   14  C10 UNL     1      28.692  24.162  46.165  1.00  0.00     0.105 A 
HETATM   15  N6  UNL     1      28.357  23.262  45.227  1.00  0.00    -0.327 N 
HETATM   16  C14 UNL     1      29.270  22.349  44.848  1.00  0.00     0.130 A 
ATOM     17  H6  UNL     1      27.427  23.271  44.809  1.00  0.00     0.169 HD
HETATM   18  N7  UNL     1      28.915  21.492  43.937  1.00  0.00    -0.384 N 
ATOM     19  H72 UNL     1      29.606  20.799  43.650  1.00  0.00     0.157 HD
ATOM     20  H71 UNL     1      27.982  21.510  43.527  1.00  0.00     0.157 HD
BRANCH  12  21
HETATM   21  N4  UNL     1      32.191  23.171  46.923  1.00  0.00    -0.379 N 
ATOM     22  H4  UNL     1      32.978  23.234  46.276  1.00  0.00     0.160 HD
BRANCH  21  23
HETATM   23  C6  UNL     1      32.493  23.016  48.309  1.00  0.00     0.129 C 
BRANCH  23  24
HETATM   24  C7  UNL     1      33.385  21.772  48.492  1.00  0.00     0.191 C 
BRANCH  24  25
HETATM   25  O1  UNL     1      32.697  20.761  49.133  1.00  0.00    -0.399 OA
ATOM     26  H1  UNL     1      31.987  20.437  48.591  1.00  0.00     0.209 HD
ENDBRANCH  24  25
ENDBRANCH  23  24
BRANCH  23  27
HETATM   27  C8  UNL     1      33.303  24.181  48.859  1.00  0.00     0.191 C 
BRANCH  27  28
HETATM   28  O2  UNL     1      32.508  24.980  49.681  1.00  0.00    -0.399 OA
ATOM     29  H2  UNL     1      33.052  25.529  50.234  1.00  0.00     0.209 HD
ENDBRANCH  27  28
ENDBRANCH  23  27
ENDBRANCH  21  23
ENDBRANCH  12  21
BRANCH  14  30
HETATM   30  N5  UNL     1      27.795  25.166  46.614  1.00  0.00    -0.372 N 
ATOM     31  H5  UNL     1      27.293  25.051  47.494  1.00  0.00     0.161 HD
BRANCH  30  32
HETATM   32  C11 UNL     1      27.601  26.346  45.817  1.00  0.00     0.083 A 
HETATM   33  C12 UNL     1      26.376  27.214  46.044  1.00  0.00     0.027 A 
HETATM   34  C13 UNL     1      27.740  27.698  46.426  1.00  0.00     0.027 A 
ENDBRANCH  30  32
ENDBRANCH  14  30
ENDBRANCH   9  11
ENDBRANCH   3   8
TORSDOF 11
ENDMDL
MODEL 5
REMARK VINA RESULT: -6.943470108      1.490      1.856
REMARK  11 active torsions:
REMARK  status: ('A' for Active; 'I' for Inactive)
REMARK    1  A    between atoms: C2_3  and  N2_4 
REMARK    2  A    between atoms: C2_3  and  C3_8 
REMARK    3  A    between atoms: N3_9  and  C4_11 
REMARK    4  A    between atoms: C5_12  and  N4_13 
REMARK    5  A    between atoms: N4_13  and  C6_15 
REMARK    6  A    between atoms: C6_15  and  C7_16 
REMARK    7  A    between atoms: C6_15  and  C8_19 
REMARK    8  A    between atoms: C7_16  and  O1_17 
REMARK    9  A    between atoms: C8_19  and  O2_20 
REMARK   10  A    between atoms: C10_23  and  N5_24 
REMARK   11  A    between atoms: N5_24  and  C11_26 
ROOT
HETATM    1  N1  UNL     1      32.723  16.799  45.424  1.00  0.00    -0.195 NA
HETATM    2  C1  UNL     1      32.896  17.893  45.043  1.00  0.00     0.098 C 
HETATM    3  C2  UNL     1      33.106  19.244  44.551  1.00  0.00     0.327 C 
ENDROOT
BRANCH   3   4
HETATM    4  N2  UNL     1      33.145  19.239  43.097  1.00  0.00    -0.058 N 
ATOM      5  H23 UNL     1      32.218  19.112  42.688  1.00  0.00     0.276 HD
ATOM      6  H22 UNL     1      33.349  20.163  42.716  1.00  0.00     0.276 HD
ATOM      7  H21 UNL     1      33.807  18.535  42.771  1.00  0.00     0.276 HD
ENDBRANCH   3   4
BRANCH   3   8
HETATM    8  C3  UNL     1      31.965  20.116  44.946  1.00  0.00     0.108 C 
HETATM    9  N3  UNL     1      31.784  21.279  44.445  1.00  0.00    -0.362 N 
ATOM     10  H3  UNL     1      32.424  21.657  43.747  1.00  0.00     0.165 HD
BRANCH   9  11
HETATM   11  C4  UNL     1      30.652  22.034  44.899  1.00  0.00     0.102 A 
HETATM   12  C5  UNL     1      30.790  22.956  45.918  1.00  0.00     0.062 A 
HETATM   13  C9  UNL     1      29.690  23.645  46.314  1.00  0.00     0.080 A 
HETATM   14  C10 UNL     1      28.465  23.415  45.692  1.00  0.00     0.105 A 
HETATM   15  N6  UNL     1      28.342  22.517  44.702  1.00  0.00    -0.327 N 
HETATM   16  C14 UNL     1      29.431  21.832  44.309  1.00  0.00     0.130 A 
ATOM     17  H6  UNL     1      27.439  22.358  44.255  1.00  0.00     0.169 HD
HETATM   18  N7  UNL     1      29.279  20.970  43.347  1.00  0.00    -0.384 N 
ATOM     19  H72 UNL     1      30.104  20.449  43.049  1.00  0.00     0.157 HD
ATOM     20  H71 UNL     1      28.371  20.819  42.908  1.00  0.00     0.157 HD
BRANCH  12  21
HETATM   21  N4  UNL     1      32.076  23.120  46.513  1.00  0.00    -0.379 N 
ATOM     22  H4  UNL     1      32.852  23.349  45.891  1.00  0.00     0.160 HD
BRANCH  21  23
HETATM   23  C6  UNL     1      32.366  22.992  47.905  1.00  0.00     0.129 C 
BRANCH  23  24
HETATM   24  C7  UNL     1      33.191  21.709  48.129  1.00  0.00     0.191 C 
BRANCH  24  25
HETATM   25  O1  UNL     1      32.747  21.025  49.244  1.00  0.00    -0.399 OA
ATOM     26  H1  UNL     1      31.815  21.158  49.375  1.00  0.00     0.209 HD
ENDBRANCH  24  25
ENDBRANCH  23  24
BRANCH  23  27
HETATM   27  C8  UNL     1      33.237  24.129  48.420  1.00  0.00     0.191 C 
BRANCH  27  28
HETATM   28  O2  UNL     1      32.687  24.672  49.583  1.00  0.00    -0.399 OA
ATOM     29  H2  UNL     1      33.223  25.391  49.897  1.00  0.00     0.209 HD
ENDBRANCH  27  28
ENDBRANCH  23  27
ENDBRANCH  21  23
ENDBRANCH  12  21
BRANCH  14  30
HETATM   30  N5  UNL     1      27.371  24.189  46.161  1.00  0.00    -0.372 N 
ATOM     31  H5  UNL     1      26.430  24.016  45.807  1.00  0.00     0.161 HD
BRANCH  30  32
HETATM   32  C11 UNL     1      27.601  25.218  47.137  1.00  0.00     0.083 A 
HETATM   33  C12 UNL     1      26.845  26.530  47.039  1.00  0.00     0.027 A 
HETATM   34  C13 UNL     1      26.552  25.556  48.138  1.00  0.00     0.027 A 
ENDBRANCH  30  32
ENDBRANCH  14  30
ENDBRANCH   9  11
ENDBRANCH   3   8
TORSDOF 11
ENDMDL
