MODEL 1
REMARK VINA RESULT: -9.659860413      0.000      0.000
REMARK  8 active torsions:
REMARK  status: ('A' for Active; 'I' for Inactive)
REMARK    1  A    between atoms: C6_6  and  N1_7 
REMARK       I    between atoms: N1_7  and  C7_9 
REMARK       I    between atoms: C7_9  and  N2_11 
REMARK    2  A    between atoms: C10_14  and  C11_15 
REMARK    3  A    between atoms: C11_15  and  C12_16 
REMARK    4  A    between atoms: C12_16  and  C13_17 
REMARK    5  A    between atoms: C13_17  and  C14_19 
REMARK    6  A    between atoms: C18_24  and  C19_25 
REMARK    7  A    between atoms: C19_25  and  N3_26 
REMARK    8  A    between atoms: C21_31  and  N4_32 
ROOT
HETATM    1  N1  UNL     1     -13.494  14.760  40.586  1.00  0.00    -0.308 N 
ATOM      2  H1  UNL     1     -13.110  15.018  39.676  1.00  0.00     0.170 HD
HETATM    3  C7  UNL     1     -12.740  15.052  41.721  1.00  0.00     0.323 C 
HETATM    4  O1  UNL     1     -13.180  14.747  42.855  1.00  0.00    -0.247 OA
HETATM    5  N2  UNL     1     -11.481  15.690  41.637  1.00  0.00    -0.332 N 
HETATM    6  C8  UNL     1     -10.928  16.084  40.367  1.00  0.00     0.128 C 
HETATM    7  C9  UNL     1     -10.042  17.271  40.535  1.00  0.00     0.027 C 
HETATM    8  C10 UNL     1      -8.927  17.100  41.532  1.00  0.00     0.019 C 
HETATM    9  C21 UNL     1      -9.206  16.011  42.517  1.00  0.00     0.205 C 
HETATM   10  C22 UNL     1     -10.695  15.958  42.839  1.00  0.00     0.160 C 
ENDROOT
BRANCH   8  11
HETATM   11  C11 UNL     1      -7.634  16.940  40.805  1.00  0.00     0.009 C 
BRANCH  11  12
HETATM   12  C12 UNL     1      -7.172  18.164  40.063  1.00  0.00     0.038 C 
BRANCH  12  13
HETATM   13  C13 UNL     1      -6.421  17.820  38.802  1.00  0.00     0.174 C 
HETATM   14  F1  UNL     1      -5.152  17.370  39.146  1.00  0.00    -0.249 F 
BRANCH  13  15
HETATM   15  C14 UNL     1      -7.107  16.732  38.050  1.00  0.00     0.022 C 
HETATM   16  C15 UNL     1      -7.354  17.226  36.635  1.00  0.00     0.044 C 
HETATM   17  C16 UNL     1      -8.072  16.247  35.775  1.00  0.00     0.171 C 
HETATM   18  F2  UNL     1      -7.901  16.664  34.447  1.00  0.00    -0.249 F 
HETATM   19  C17 UNL     1      -7.524  14.849  35.850  1.00  0.00     0.043 C 
HETATM   20  C18 UNL     1      -7.077  14.451  37.215  1.00  0.00     0.014 C 
HETATM   21  C20 UNL     1      -6.240  15.500  37.918  1.00  0.00     0.013 C 
BRANCH  20  22
HETATM   22  C19 UNL     1      -6.251  13.188  37.138  1.00  0.00     0.234 C 
BRANCH  22  23
HETATM   23  N3  UNL     1      -4.933  13.397  37.739  1.00  0.00    -0.079 N 
ATOM     24  H33 UNL     1      -4.321  13.939  37.130  1.00  0.00     0.274 HD
ATOM     25  H32 UNL     1      -4.975  14.042  38.528  1.00  0.00     0.274 HD
ATOM     26  H31 UNL     1      -4.513  12.505  38.002  1.00  0.00     0.274 HD
ENDBRANCH  22  23
ENDBRANCH  20  22
ENDBRANCH  13  15
ENDBRANCH  12  13
ENDBRANCH  11  12
ENDBRANCH   8  11
BRANCH   9  27
HETATM   27  N4  UNL     1      -8.819  14.696  42.128  1.00  0.00    -0.073 N 
ATOM     28  H43 UNL     1      -7.987  14.741  41.541  1.00  0.00     0.274 HD
ATOM     29  H42 UNL     1      -8.450  14.193  42.935  1.00  0.00     0.274 HD
ATOM     30  H41 UNL     1      -9.535  14.131  41.669  1.00  0.00     0.274 HD
ENDBRANCH   9  27
BRANCH   1  31
HETATM   31  C6  UNL     1     -14.768  14.122  40.619  1.00  0.00     0.048 A 
HETATM   32  C4  UNL     1     -15.922  14.836  40.840  1.00  0.00    -0.034 A 
HETATM   33  C3  UNL     1     -17.157  14.181  40.867  1.00  0.00     0.015 A 
HETATM   34  C5  UNL     1     -15.825  16.306  41.046  1.00  0.00     0.050 C 
HETATM   35  C2  UNL     1     -17.238  12.837  40.676  1.00  0.00    -0.061 A 
HETATM   36  C1  UNL     1     -18.552  12.104  40.701  1.00  0.00     0.048 C 
HETATM   37  C25 UNL     1     -16.083  12.124  40.457  1.00  0.00     0.015 A 
HETATM   38  C23 UNL     1     -14.838  12.766  40.426  1.00  0.00    -0.034 A 
HETATM   39  C24 UNL     1     -13.575  12.020  40.191  1.00  0.00     0.050 C 
ENDBRANCH   1  31
TORSDOF 8
ENDMDL
MODEL 2
REMARK VINA RESULT: -9.629669299      0.142      1.493
REMARK  8 active torsions:
REMARK  status: ('A' for Active; 'I' for Inactive)
REMARK    1  A    between atoms: C6_6  and  N1_7 
REMARK       I    between atoms: N1_7  and  C7_9 
REMARK       I    between atoms: C7_9  and  N2_11 
REMARK    2  A    between atoms: C10_14  and  C11_15 
REMARK    3  A    between atoms: C11_15  and  C12_16 
REMARK    4  A    between atoms: C12_16  and  C13_17 
REMARK    5  A    between atoms: C13_17  and  C14_19 
REMARK    6  A    between atoms: C18_24  and  C19_25 
REMARK    7  A    between atoms: C19_25  and  N3_26 
REMARK    8  A    between atoms: C21_31  and  N4_32 
ROOT
HETATM    1  N1  UNL     1     -13.597  14.729  40.645  1.00  0.00    -0.308 N 
ATOM      2  H1  UNL     1     -13.226  15.032  39.744  1.00  0.00     0.170 HD
HETATM    3  C7  UNL     1     -12.834  14.978  41.785  1.00  0.00     0.323 C 
HETATM    4  O1  UNL     1     -13.258  14.617  42.908  1.00  0.00    -0.247 OA
HETATM    5  N2  UNL     1     -11.583  15.632  41.716  1.00  0.00    -0.332 N 
HETATM    6  C8  UNL     1     -11.047  16.090  40.460  1.00  0.00     0.128 C 
HETATM    7  C9  UNL     1     -10.171  17.277  40.673  1.00  0.00     0.027 C 
HETATM    8  C10 UNL     1      -9.044  17.072  41.650  1.00  0.00     0.019 C 
HETATM    9  C21 UNL     1      -9.301  15.937  42.586  1.00  0.00     0.205 C 
HETATM   10  C22 UNL     1     -10.787  15.854  42.921  1.00  0.00     0.160 C 
ENDROOT
BRANCH   8  11
HETATM   11  C11 UNL     1      -7.758  16.959  40.902  1.00  0.00     0.009 C 
BRANCH  11  12
HETATM   12  C12 UNL     1      -7.379  18.180  40.110  1.00  0.00     0.038 C 
BRANCH  12  13
HETATM   13  C13 UNL     1      -6.578  17.839  38.880  1.00  0.00     0.174 C 
HETATM   14  F1  UNL     1      -5.322  17.390  39.273  1.00  0.00    -0.249 F 
BRANCH  13  15
HETATM   15  C14 UNL     1      -7.231  16.751  38.099  1.00  0.00     0.022 C 
HETATM   16  C15 UNL     1      -7.409  17.240  36.673  1.00  0.00     0.044 C 
HETATM   17  C16 UNL     1      -8.089  16.260  35.783  1.00  0.00     0.171 C 
HETATM   18  F2  UNL     1      -7.854  16.671  34.463  1.00  0.00    -0.249 F 
HETATM   19  C17 UNL     1      -7.551  14.860  35.890  1.00  0.00     0.043 C 
HETATM   20  C18 UNL     1      -7.170  14.466  37.276  1.00  0.00     0.014 C 
HETATM   21  C20 UNL     1      -6.363  15.515  38.013  1.00  0.00     0.013 C 
BRANCH  20  22
HETATM   22  C19 UNL     1      -6.347  13.200  37.242  1.00  0.00     0.234 C 
BRANCH  22  23
HETATM   23  N3  UNL     1      -4.979  13.463  37.694  1.00  0.00    -0.079 N 
ATOM     24  H33 UNL     1      -4.293  13.243  36.972  1.00  0.00     0.274 HD
ATOM     25  H32 UNL     1      -4.795  14.462  37.782  1.00  0.00     0.274 HD
ATOM     26  H31 UNL     1      -4.787  12.965  38.563  1.00  0.00     0.274 HD
ENDBRANCH  22  23
ENDBRANCH  20  22
ENDBRANCH  13  15
ENDBRANCH  12  13
ENDBRANCH  11  12
ENDBRANCH   8  11
BRANCH   9  27
HETATM   27  N4  UNL     1      -8.906  14.645  42.135  1.00  0.00    -0.073 N 
ATOM     28  H43 UNL     1      -9.558  14.315  41.423  1.00  0.00     0.274 HD
ATOM     29  H42 UNL     1      -8.051  14.720  41.583  1.00  0.00     0.274 HD
ATOM     30  H41 UNL     1      -8.790  13.931  42.854  1.00  0.00     0.274 HD
ENDBRANCH   9  27
BRANCH   1  31
HETATM   31  C6  UNL     1     -14.864  14.077  40.662  1.00  0.00     0.048 A 
HETATM   32  C4  UNL     1     -14.974  12.717  40.492  1.00  0.00    -0.034 A 
HETATM   33  C3  UNL     1     -16.232  12.107  40.514  1.00  0.00     0.015 A 
HETATM   34  C5  UNL     1     -13.735  11.920  40.288  1.00  0.00     0.050 C 
HETATM   35  C2  UNL     1     -17.360  12.843  40.702  1.00  0.00    -0.061 A 
HETATM   36  C1  UNL     1     -18.728  12.215  40.729  1.00  0.00     0.048 C 
HETATM   37  C25 UNL     1     -17.250  14.203  40.871  1.00  0.00     0.015 A 
HETATM   38  C23 UNL     1     -15.997  14.828  40.852  1.00  0.00    -0.034 A 
HETATM   39  C24 UNL     1     -15.848  16.295  41.032  1.00  0.00     0.050 C 
ENDBRANCH   1  31
TORSDOF 8
ENDMDL
MODEL 3
REMARK VINA RESULT: -9.222257060      1.459      2.652
REMARK  8 active torsions:
REMARK  status: ('A' for Active; 'I' for Inactive)
REMARK    1  A    between atoms: C6_6  and  N1_7 
REMARK       I    between atoms: N1_7  and  C7_9 
REMARK       I    between atoms: C7_9  and  N2_11 
REMARK    2  A    between atoms: C10_14  and  C11_15 
REMARK    3  A    between atoms: C11_15  and  C12_16 
REMARK    4  A    between atoms: C12_16  and  C13_17 
REMARK    5  A    between atoms: C13_17  and  C14_19 
REMARK    6  A    between atoms: C18_24  and  C19_25 
REMARK    7  A    between atoms: C19_25  and  N3_26 
REMARK    8  A    between atoms: C21_31  and  N4_32 
ROOT
HETATM    1  N1  UNL     1     -13.662  14.775  40.806  1.00  0.00    -0.308 N 
ATOM      2  H1  UNL     1     -13.366  15.317  39.994  1.00  0.00     0.170 HD
HETATM    3  C7  UNL     1     -12.835  14.773  41.928  1.00  0.00     0.323 C 
HETATM    4  O1  UNL     1     -13.167  14.116  42.944  1.00  0.00    -0.247 OA
HETATM    5  N2  UNL     1     -11.621  15.495  41.961  1.00  0.00    -0.332 N 
HETATM    6  C8  UNL     1     -11.191  16.285  40.836  1.00  0.00     0.128 C 
HETATM    7  C9  UNL     1     -10.355  17.429  41.298  1.00  0.00     0.027 C 
HETATM    8  C10 UNL     1      -9.157  17.052  42.127  1.00  0.00     0.019 C 
HETATM    9  C21 UNL     1      -9.301  15.704  42.755  1.00  0.00     0.205 C 
HETATM   10  C22 UNL     1     -10.756  15.452  43.138  1.00  0.00     0.160 C 
ENDROOT
BRANCH   8  11
HETATM   11  C11 UNL     1      -7.920  17.207  41.307  1.00  0.00     0.009 C 
BRANCH  11  12
HETATM   12  C12 UNL     1      -8.052  18.141  40.136  1.00  0.00     0.038 C 
BRANCH  12  13
HETATM   13  C13 UNL     1      -7.060  17.833  39.043  1.00  0.00     0.174 C 
HETATM   14  F1  UNL     1      -6.387  16.660  39.367  1.00  0.00    -0.249 F 
BRANCH  13  15
HETATM   15  C14 UNL     1      -7.748  17.623  37.739  1.00  0.00     0.022 C 
HETATM   16  C15 UNL     1      -7.096  16.436  37.052  1.00  0.00     0.044 C 
HETATM   17  C16 UNL     1      -7.663  16.134  35.710  1.00  0.00     0.171 C 
HETATM   18  F2  UNL     1      -7.248  14.837  35.371  1.00  0.00    -0.249 F 
HETATM   19  C17 UNL     1      -9.166  16.117  35.670  1.00  0.00     0.043 C 
HETATM   20  C18 UNL     1      -9.802  17.156  36.529  1.00  0.00     0.014 C 
HETATM   21  C20 UNL     1      -9.204  17.256  37.917  1.00  0.00     0.013 C 
BRANCH  20  22
HETATM   22  C19 UNL     1     -11.275  16.860  36.688  1.00  0.00     0.234 C 
BRANCH  22  23
HETATM   23  N3  UNL     1     -11.960  17.985  37.324  1.00  0.00    -0.079 N 
ATOM     24  H33 UNL     1     -12.073  17.842  38.328  1.00  0.00     0.274 HD
ATOM     25  H32 UNL     1     -11.373  18.819  37.354  1.00  0.00     0.274 HD
ATOM     26  H31 UNL     1     -12.853  18.168  36.866  1.00  0.00     0.274 HD
ENDBRANCH  22  23
ENDBRANCH  20  22
ENDBRANCH  13  15
ENDBRANCH  12  13
ENDBRANCH  11  12
ENDBRANCH   8  11
BRANCH   9  27
HETATM   27  N4  UNL     1      -8.882  14.593  41.968  1.00  0.00    -0.073 N 
ATOM     28  H43 UNL     1      -9.659  14.267  41.393  1.00  0.00     0.274 HD
ATOM     29  H42 UNL     1      -8.236  14.908  41.245  1.00  0.00     0.274 HD
ATOM     30  H41 UNL     1      -8.474  13.808  42.476  1.00  0.00     0.274 HD
ENDBRANCH   9  27
BRANCH   1  31
HETATM   31  C6  UNL     1     -14.896  14.067  40.725  1.00  0.00     0.048 A 
HETATM   32  C4  UNL     1     -14.945  12.754  40.318  1.00  0.00    -0.034 A 
HETATM   33  C3  UNL     1     -16.171  12.087  40.248  1.00  0.00     0.015 A 
HETATM   34  C5  UNL     1     -13.674  12.070  39.958  1.00  0.00     0.050 C 
HETATM   35  C2  UNL     1     -17.329  12.719  40.580  1.00  0.00    -0.061 A 
HETATM   36  C1  UNL     1     -18.664  12.027  40.514  1.00  0.00     0.048 C 
HETATM   37  C25 UNL     1     -17.279  14.032  40.986  1.00  0.00     0.015 A 
HETATM   38  C23 UNL     1     -16.058  14.714  41.062  1.00  0.00    -0.034 A 
HETATM   39  C24 UNL     1     -15.976  16.131  41.497  1.00  0.00     0.050 C 
ENDBRANCH   1  31
TORSDOF 8
ENDMDL
MODEL 4
REMARK VINA RESULT: -9.200546452      2.572      3.722
REMARK  8 active torsions:
REMARK  status: ('A' for Active; 'I' for Inactive)
REMARK    1  A    between atoms: C6_6  and  N1_7 
REMARK       I    between atoms: N1_7  and  C7_9 
REMARK       I    between atoms: C7_9  and  N2_11 
REMARK    2  A    between atoms: C10_14  and  C11_15 
REMARK    3  A    between atoms: C11_15  and  C12_16 
REMARK    4  A    between atoms: C12_16  and  C13_17 
REMARK    5  A    between atoms: C13_17  and  C14_19 
REMARK    6  A    between atoms: C18_24  and  C19_25 
REMARK    7  A    between atoms: C19_25  and  N3_26 
REMARK    8  A    between atoms: C21_31  and  N4_32 
ROOT
HETATM    1  N1  UNL     1     -13.534  14.799  41.362  1.00  0.00    -0.308 N 
ATOM      2  H1  UNL     1     -12.807  14.130  41.617  1.00  0.00     0.170 HD
HETATM    3  C7  UNL     1     -13.226  15.770  40.411  1.00  0.00     0.323 C 
HETATM    4  O1  UNL     1     -14.095  16.610  40.076  1.00  0.00    -0.247 OA
HETATM    5  N2  UNL     1     -11.952  15.841  39.803  1.00  0.00    -0.332 N 
HETATM    6  C8  UNL     1     -10.916  14.894  40.128  1.00  0.00     0.128 C 
HETATM    7  C9  UNL     1     -10.003  14.708  38.965  1.00  0.00     0.027 C 
HETATM    8  C10 UNL     1      -9.377  15.970  38.435  1.00  0.00     0.019 C 
HETATM    9  C21 UNL     1     -10.150  17.191  38.813  1.00  0.00     0.205 C 
HETATM   10  C22 UNL     1     -11.644  16.887  38.830  1.00  0.00     0.160 C 
ENDROOT
BRANCH   8  11
HETATM   11  C11 UNL     1      -7.941  16.015  38.838  1.00  0.00     0.009 C 
BRANCH  11  12
HETATM   12  C12 UNL     1      -6.963  15.848  37.708  1.00  0.00     0.038 C 
BRANCH  12  13
HETATM   13  C13 UNL     1      -7.604  15.258  36.478  1.00  0.00     0.174 C 
HETATM   14  F1  UNL     1      -7.704  16.247  35.506  1.00  0.00    -0.249 F 
BRANCH  13  15
HETATM   15  C14 UNL     1      -6.779  14.149  35.923  1.00  0.00     0.022 C 
HETATM   16  C15 UNL     1      -6.465  13.187  37.055  1.00  0.00     0.044 C 
HETATM   17  C16 UNL     1      -5.608  12.041  36.647  1.00  0.00     0.171 C 
HETATM   18  F2  UNL     1      -5.710  11.071  37.656  1.00  0.00    -0.249 F 
HETATM   19  C17 UNL     1      -6.046  11.370  35.375  1.00  0.00     0.043 C 
HETATM   20  C18 UNL     1      -6.563  12.315  34.345  1.00  0.00     0.014 C 
HETATM   21  C20 UNL     1      -7.532  13.345  34.887  1.00  0.00     0.013 C 
BRANCH  20  22
HETATM   22  C19 UNL     1      -7.277  11.548  33.256  1.00  0.00     0.234 C 
BRANCH  22  23
HETATM   23  N3  UNL     1      -6.990  10.117  33.361  1.00  0.00    -0.079 N 
ATOM     24  H33 UNL     1      -7.717   9.621  33.876  1.00  0.00     0.274 HD
ATOM     25  H32 UNL     1      -7.089   9.644  32.463  1.00  0.00     0.274 HD
ATOM     26  H31 UNL     1      -6.067   9.964  33.768  1.00  0.00     0.274 HD
ENDBRANCH  22  23
ENDBRANCH  20  22
ENDBRANCH  13  15
ENDBRANCH  12  13
ENDBRANCH  11  12
ENDBRANCH   8  11
BRANCH   9  27
HETATM   27  N4  UNL     1      -9.831  17.775  40.072  1.00  0.00    -0.073 N 
ATOM     28  H43 UNL     1      -9.826  17.054  40.794  1.00  0.00     0.274 HD
ATOM     29  H42 UNL     1      -8.850  18.055  40.084  1.00  0.00     0.274 HD
ATOM     30  H41 UNL     1     -10.416  18.556  40.370  1.00  0.00     0.274 HD
ENDBRANCH   9  27
BRANCH   1  31
HETATM   31  C6  UNL     1     -14.803  14.684  42.001  1.00  0.00     0.048 A 
HETATM   32  C4  UNL     1     -15.781  13.850  41.511  1.00  0.00    -0.034 A 
HETATM   33  C3  UNL     1     -17.016  13.760  42.161  1.00  0.00     0.015 A 
HETATM   34  C5  UNL     1     -15.494  13.055  40.287  1.00  0.00     0.050 C 
HETATM   35  C2  UNL     1     -17.270  14.490  43.280  1.00  0.00    -0.061 A 
HETATM   36  C1  UNL     1     -18.589  14.416  44.000  1.00  0.00     0.048 C 
HETATM   37  C25 UNL     1     -16.292  15.325  43.768  1.00  0.00     0.015 A 
HETATM   38  C23 UNL     1     -15.050  15.426  43.129  1.00  0.00    -0.034 A 
HETATM   39  C24 UNL     1     -13.976  16.318  43.635  1.00  0.00     0.050 C 
ENDBRANCH   1  31
TORSDOF 8
ENDMDL
MODEL 5
REMARK VINA RESULT: -9.150584710      1.464      2.206
REMARK  8 active torsions:
REMARK  status: ('A' for Active; 'I' for Inactive)
REMARK    1  A    between atoms: C6_6  and  N1_7 
REMARK       I    between atoms: N1_7  and  C7_9 
REMARK       I    between atoms: C7_9  and  N2_11 
REMARK    2  A    between atoms: C10_14  and  C11_15 
REMARK    3  A    between atoms: C11_15  and  C12_16 
REMARK    4  A    between atoms: C12_16  and  C13_17 
REMARK    5  A    between atoms: C13_17  and  C14_19 
REMARK    6  A    between atoms: C18_24  and  C19_25 
REMARK    7  A    between atoms: C19_25  and  N3_26 
REMARK    8  A    between atoms: C21_31  and  N4_32 
ROOT
HETATM    1  N1  UNL     1     -13.663  14.844  40.870  1.00  0.00    -0.308 N 
ATOM      2  H1  UNL     1     -13.373  15.390  40.059  1.00  0.00     0.170 HD
HETATM    3  C7  UNL     1     -12.822  14.824  41.981  1.00  0.00     0.323 C 
HETATM    4  O1  UNL     1     -13.147  14.161  42.995  1.00  0.00    -0.247 OA
HETATM    5  N2  UNL     1     -11.600  15.534  42.004  1.00  0.00    -0.332 N 
HETATM    6  C8  UNL     1     -11.177  16.330  40.881  1.00  0.00     0.128 C 
HETATM    7  C9  UNL     1     -10.324  17.462  41.341  1.00  0.00     0.027 C 
HETATM    8  C10 UNL     1      -9.119  17.065  42.151  1.00  0.00     0.019 C 
HETATM    9  C21 UNL     1      -9.268  15.713  42.769  1.00  0.00     0.205 C 
HETATM   10  C22 UNL     1     -10.720  15.472  43.169  1.00  0.00     0.160 C 
ENDROOT
BRANCH   8  11
HETATM   11  C11 UNL     1      -7.891  17.215  41.316  1.00  0.00     0.009 C 
BRANCH  11  12
HETATM   12  C12 UNL     1      -8.038  18.140  40.139  1.00  0.00     0.038 C 
BRANCH  12  13
HETATM   13  C13 UNL     1      -7.053  17.830  39.041  1.00  0.00     0.174 C 
HETATM   14  F1  UNL     1      -6.383  16.654  39.360  1.00  0.00    -0.249 F 
BRANCH  13  15
HETATM   15  C14 UNL     1      -7.748  17.624  37.740  1.00  0.00     0.022 C 
HETATM   16  C15 UNL     1      -7.098  16.441  37.044  1.00  0.00     0.044 C 
HETATM   17  C16 UNL     1      -7.673  16.144  35.704  1.00  0.00     0.171 C 
HETATM   18  F2  UNL     1      -7.258  14.850  35.356  1.00  0.00    -0.249 F 
HETATM   19  C17 UNL     1      -9.177  16.125  35.673  1.00  0.00     0.043 C 
HETATM   20  C18 UNL     1      -9.809  17.159  36.540  1.00  0.00     0.014 C 
HETATM   21  C20 UNL     1      -9.203  17.254  37.925  1.00  0.00     0.013 C 
BRANCH  20  22
HETATM   22  C19 UNL     1     -11.280  16.860  36.707  1.00  0.00     0.234 C 
BRANCH  22  23
HETATM   23  N3  UNL     1     -11.968  17.991  37.331  1.00  0.00    -0.079 N 
ATOM     24  H33 UNL     1     -12.586  17.690  38.084  1.00  0.00     0.274 HD
ATOM     25  H32 UNL     1     -11.329  18.567  37.879  1.00  0.00     0.274 HD
ATOM     26  H31 UNL     1     -12.465  18.540  36.631  1.00  0.00     0.274 HD
ENDBRANCH  22  23
ENDBRANCH  20  22
ENDBRANCH  13  15
ENDBRANCH  12  13
ENDBRANCH  11  12
ENDBRANCH   8  11
BRANCH   9  27
HETATM   27  N4  UNL     1      -8.870  14.605  41.966  1.00  0.00    -0.073 N 
ATOM     28  H43 UNL     1      -9.421  14.586  41.108  1.00  0.00     0.274 HD
ATOM     29  H42 UNL     1      -7.939  14.773  41.585  1.00  0.00     0.274 HD
ATOM     30  H41 UNL     1      -8.898  13.689  42.414  1.00  0.00     0.274 HD
ENDBRANCH   9  27
BRANCH   1  31
HETATM   31  C6  UNL     1     -14.905  14.149  40.799  1.00  0.00     0.048 A 
HETATM   32  C4  UNL     1     -16.081  14.736  41.204  1.00  0.00    -0.034 A 
HETATM   33  C3  UNL     1     -17.283  14.027  41.122  1.00  0.00     0.015 A 
HETATM   34  C5  UNL     1     -16.042  16.129  41.725  1.00  0.00     0.050 C 
HETATM   35  C2  UNL     1     -17.311  12.753  40.644  1.00  0.00    -0.061 A 
HETATM   36  C1  UNL     1     -18.589  11.965  40.546  1.00  0.00     0.048 C 
HETATM   37  C25 UNL     1     -16.134  12.167  40.241  1.00  0.00     0.015 A 
HETATM   38  C23 UNL     1     -14.922  12.864  40.316  1.00  0.00    -0.034 A 
HETATM   39  C24 UNL     1     -13.637  12.256  39.887  1.00  0.00     0.050 C 
ENDBRANCH   1  31
TORSDOF 8
ENDMDL
