MODEL 1
REMARK VINA RESULT: -5.974254020      0.000      0.000
REMARK  4 active torsions:
REMARK  status: ('A' for Active; 'I' for Inactive)
REMARK    1  A    between atoms: N1_2  and  C2_3 
REMARK    2  A    between atoms: N1_2  and  N2_6 
REMARK    3  A    between atoms: C2_3  and  C3_4 
REMARK       I    between atoms: N2_6  and  C5_8 
REMARK    4  A    between atoms: C5_8  and  C6_10 
ROOT
HETATM    1  N2  UNL     1      -3.940   5.503  -2.709  1.00  0.00    -0.263 N 
HETATM    2  C4  UNL     1      -2.814   6.391  -2.645  1.00  0.00     0.181 C 
HETATM    3  C5  UNL     1      -4.643   5.213  -3.858  1.00  0.00     0.288 C 
HETATM    4  O1  UNL     1      -5.641   4.397  -3.705  1.00  0.00    -0.264 OA
ENDROOT
BRANCH   3   5
HETATM    5  C6  UNL     1      -4.418   5.688  -5.189  1.00  0.00     0.104 A 
HETATM    6  C7  UNL     1      -3.713   6.754  -5.631  1.00  0.00     0.057 A 
HETATM    7  C8  UNL     1      -3.751   6.821  -7.035  1.00  0.00     0.047 A 
HETATM    8 BR2  UNL     1      -2.925   8.118  -8.152  1.00  0.00    -0.048 Br
HETATM    9  C9  UNL     1      -4.503   5.760  -7.422  1.00  0.00     0.098 A 
HETATM   10 BR3  UNL     1      -4.949   5.276  -9.240  1.00  0.00    -0.030 Br
HETATM   11  N3  UNL     1      -4.890   5.098  -6.341  1.00  0.00    -0.345 N 
ATOM     12  H3  UNL     1      -5.466   4.256  -6.359  1.00  0.00     0.167 HD
ENDBRANCH   3   5
BRANCH   1  13
HETATM   13  N1  UNL     1      -4.370   4.888  -1.516  1.00  0.00    -0.327 N 
HETATM   14  C1  UNL     1      -3.461   3.995  -0.923  1.00  0.00     0.171 C 
BRANCH  13  15
HETATM   15  C2  UNL     1      -5.207   5.664  -0.687  1.00  0.00     0.153 C 
BRANCH  15  16
HETATM   16  C3  UNL     1      -4.524   5.701   0.693  1.00  0.00     0.106 C 
HETATM   17 BR1  UNL     1      -5.518   6.839   1.863  1.00  0.00    -0.095 Br
ENDBRANCH  15  16
ENDBRANCH  13  15
ENDBRANCH   1  13
TORSDOF 4
ENDMDL
MODEL 2
REMARK VINA RESULT: -5.922331644      0.635      1.579
REMARK  4 active torsions:
REMARK  status: ('A' for Active; 'I' for Inactive)
REMARK    1  A    between atoms: N1_2  and  C2_3 
REMARK    2  A    between atoms: N1_2  and  N2_6 
REMARK    3  A    between atoms: C2_3  and  C3_4 
REMARK       I    between atoms: N2_6  and  C5_8 
REMARK    4  A    between atoms: C5_8  and  C6_10 
ROOT
HETATM    1  N2  UNL     1      -3.914   5.436  -2.711  1.00  0.00    -0.263 N 
HETATM    2  C4  UNL     1      -2.855   6.404  -2.701  1.00  0.00     0.181 C 
HETATM    3  C5  UNL     1      -4.608   5.047  -3.835  1.00  0.00     0.288 C 
HETATM    4  O1  UNL     1      -5.542   4.168  -3.633  1.00  0.00    -0.264 OA
ENDROOT
BRANCH   3   5
HETATM    5  C6  UNL     1      -4.435   5.480  -5.189  1.00  0.00     0.104 A 
HETATM    6  C7  UNL     1      -4.889   4.944  -6.343  1.00  0.00     0.057 A 
HETATM    7  C8  UNL     1      -4.486   5.727  -7.441  1.00  0.00     0.047 A 
HETATM    8 BR2  UNL     1      -4.861   5.420  -9.278  1.00  0.00    -0.048 Br
HETATM    9  C9  UNL     1      -3.774   6.751  -6.905  1.00  0.00     0.098 A 
HETATM   10 BR3  UNL     1      -2.930   8.190  -7.881  1.00  0.00    -0.030 Br
HETATM   11  N3  UNL     1      -3.747   6.604  -5.587  1.00  0.00    -0.345 N 
ATOM     12  H3  UNL     1      -3.275   7.245  -4.949  1.00  0.00     0.167 HD
ENDBRANCH   3   5
BRANCH   1  13
HETATM   13  N1  UNL     1      -4.283   4.843  -1.486  1.00  0.00    -0.327 N 
HETATM   14  C1  UNL     1      -3.308   4.033  -0.878  1.00  0.00     0.171 C 
BRANCH  13  15
HETATM   15  C2  UNL     1      -5.153   5.595  -0.672  1.00  0.00     0.153 C 
BRANCH  15  16
HETATM   16  C3  UNL     1      -4.486   5.667   0.714  1.00  0.00     0.106 C 
HETATM   17 BR1  UNL     1      -5.501   6.822   1.849  1.00  0.00    -0.095 Br
ENDBRANCH  15  16
ENDBRANCH  13  15
ENDBRANCH   1  13
TORSDOF 4
ENDMDL
MODEL 3
REMARK VINA RESULT: -5.689803631      1.445      1.650
REMARK  4 active torsions:
REMARK  status: ('A' for Active; 'I' for Inactive)
REMARK    1  A    between atoms: N1_2  and  C2_3 
REMARK    2  A    between atoms: N1_2  and  N2_6 
REMARK    3  A    between atoms: C2_3  and  C3_4 
REMARK       I    between atoms: N2_6  and  C5_8 
REMARK    4  A    between atoms: C5_8  and  C6_10 
ROOT
HETATM    1  N2  UNL     1      -3.653   5.170  -2.550  1.00  0.00    -0.263 N 
HETATM    2  C4  UNL     1      -2.887   6.371  -2.722  1.00  0.00     0.181 C 
HETATM    3  C5  UNL     1      -4.082   4.361  -3.579  1.00  0.00     0.288 C 
HETATM    4  O1  UNL     1      -4.777   3.326  -3.216  1.00  0.00    -0.264 OA
ENDROOT
BRANCH   3   5
HETATM    5  C6  UNL     1      -3.863   4.510  -4.985  1.00  0.00     0.104 A 
HETATM    6  C7  UNL     1      -4.476   5.307  -5.887  1.00  0.00     0.057 A 
HETATM    7  C8  UNL     1      -3.913   5.132  -7.164  1.00  0.00     0.047 A 
HETATM    8 BR2  UNL     1      -4.406   6.011  -8.775  1.00  0.00    -0.048 Br
HETATM    9  C9  UNL     1      -2.940   4.200  -6.999  1.00  0.00     0.098 A 
HETATM   10 BR3  UNL     1      -1.780   3.501  -8.378  1.00  0.00    -0.030 Br
HETATM   11  N3  UNL     1      -2.912   3.839  -5.723  1.00  0.00    -0.345 N 
ATOM     12  H3  UNL     1      -2.266   3.151  -5.336  1.00  0.00     0.167 HD
ENDBRANCH   3   5
BRANCH   1  13
HETATM   13  N1  UNL     1      -4.002   4.788  -1.238  1.00  0.00    -0.327 N 
HETATM   14  C1  UNL     1      -2.998   4.140  -0.499  1.00  0.00     0.171 C 
BRANCH  13  15
HETATM   15  C2  UNL     1      -4.907   5.636  -0.568  1.00  0.00     0.153 C 
BRANCH  15  16
HETATM   16  C3  UNL     1      -4.471   5.644   0.908  1.00  0.00     0.106 C 
HETATM   17 BR1  UNL     1      -5.532   6.903   1.878  1.00  0.00    -0.095 Br
ENDBRANCH  15  16
ENDBRANCH  13  15
ENDBRANCH   1  13
TORSDOF 4
ENDMDL
MODEL 4
REMARK VINA RESULT: -5.566312630      1.606      1.903
REMARK  4 active torsions:
REMARK  status: ('A' for Active; 'I' for Inactive)
REMARK    1  A    between atoms: N1_2  and  C2_3 
REMARK    2  A    between atoms: N1_2  and  N2_6 
REMARK    3  A    between atoms: C2_3  and  C3_4 
REMARK       I    between atoms: N2_6  and  C5_8 
REMARK    4  A    between atoms: C5_8  and  C6_10 
ROOT
HETATM    1  N2  UNL     1      -3.554   5.024  -2.424  1.00  0.00    -0.263 N 
HETATM    2  C4  UNL     1      -2.872   6.270  -2.632  1.00  0.00     0.181 C 
HETATM    3  C5  UNL     1      -3.882   4.136  -3.424  1.00  0.00     0.288 C 
HETATM    4  O1  UNL     1      -4.512   3.070  -3.034  1.00  0.00    -0.264 OA
ENDROOT
BRANCH   3   5
HETATM    5  C6  UNL     1      -3.620   4.232  -4.829  1.00  0.00     0.104 A 
HETATM    6  C7  UNL     1      -2.753   3.546  -5.606  1.00  0.00     0.057 A 
HETATM    7  C8  UNL     1      -2.854   3.966  -6.945  1.00  0.00     0.047 A 
HETATM    8 BR2  UNL     1      -1.865   3.323  -8.435  1.00  0.00    -0.048 Br
HETATM    9  C9  UNL     1      -3.810   4.929  -6.944  1.00  0.00     0.098 A 
HETATM   10 BR3  UNL     1      -4.430   5.926  -8.480  1.00  0.00    -0.030 Br
HETATM   11  N3  UNL     1      -4.257   5.082  -5.706  1.00  0.00    -0.345 N 
ATOM     12  H3  UNL     1      -4.983   5.746  -5.436  1.00  0.00     0.167 HD
ENDBRANCH   3   5
BRANCH   1  13
HETATM   13  N1  UNL     1      -3.925   4.682  -1.108  1.00  0.00    -0.327 N 
HETATM   14  C1  UNL     1      -2.920   4.095  -0.319  1.00  0.00     0.171 C 
BRANCH  13  15
HETATM   15  C2  UNL     1      -4.873   5.525  -0.494  1.00  0.00     0.153 C 
BRANCH  15  16
HETATM   16  C3  UNL     1      -4.466   5.617   0.988  1.00  0.00     0.106 C 
HETATM   17 BR1  UNL     1      -5.577   6.893   1.876  1.00  0.00    -0.095 Br
ENDBRANCH  15  16
ENDBRANCH  13  15
ENDBRANCH   1  13
TORSDOF 4
ENDMDL
MODEL 5
REMARK VINA RESULT: -5.338343837      4.822      7.019
REMARK  4 active torsions:
REMARK  status: ('A' for Active; 'I' for Inactive)
REMARK    1  A    between atoms: N1_2  and  C2_3 
REMARK    2  A    between atoms: N1_2  and  N2_6 
REMARK    3  A    between atoms: C2_3  and  C3_4 
REMARK       I    between atoms: N2_6  and  C5_8 
REMARK    4  A    between atoms: C5_8  and  C6_10 
ROOT
HETATM    1  N2  UNL     1      -4.118   2.665  -2.892  1.00  0.00    -0.263 N 
HETATM    2  C4  UNL     1      -4.948   2.150  -3.943  1.00  0.00     0.181 C 
HETATM    3  C5  UNL     1      -3.765   1.965  -1.760  1.00  0.00     0.288 C 
HETATM    4  O1  UNL     1      -3.018   2.612  -0.918  1.00  0.00    -0.264 OA
ENDROOT
BRANCH   3   5
HETATM    5  C6  UNL     1      -4.109   0.625  -1.392  1.00  0.00     0.104 A 
HETATM    6  C7  UNL     1      -3.321  -0.445  -1.146  1.00  0.00     0.057 A 
HETATM    7  C8  UNL     1      -4.102  -1.562  -0.796  1.00  0.00     0.047 A 
HETATM    8 BR2  UNL     1      -3.491  -3.306  -0.353  1.00  0.00    -0.048 Br
HETATM    9  C9  UNL     1      -5.386  -1.126  -0.841  1.00  0.00     0.098 A 
HETATM   10 BR3  UNL     1      -6.965  -2.177  -0.466  1.00  0.00    -0.030 Br
HETATM   11  N3  UNL     1      -5.388   0.154  -1.188  1.00  0.00    -0.345 N 
ATOM     12  H3  UNL     1      -6.230   0.719  -1.291  1.00  0.00     0.167 HD
ENDBRANCH   3   5
BRANCH   1  13
HETATM   13  N1  UNL     1      -3.633   3.983  -3.015  1.00  0.00    -0.327 N 
HETATM   14  C1  UNL     1      -2.755   4.217  -4.087  1.00  0.00     0.171 C 
BRANCH  13  15
HETATM   15  C2  UNL     1      -4.517   5.007  -2.617  1.00  0.00     0.153 C 
BRANCH  15  16
HETATM   16  C3  UNL     1      -3.727   5.897  -1.641  1.00  0.00     0.106 C 
HETATM   17 BR1  UNL     1      -4.666   6.010   0.019  1.00  0.00    -0.095 Br
ENDBRANCH  15  16
ENDBRANCH  13  15
ENDBRANCH   1  13
TORSDOF 4
ENDMDL
