MODEL 1
REMARK VINA RESULT: -8.975128483      0.000      0.000
REMARK  9 active torsions:
REMARK  status: ('A' for Active; 'I' for Inactive)
REMARK    1  A    between atoms: C1_2  and  C2_4 
REMARK    2  A    between atoms: C2_4  and  C3_5 
REMARK       I    between atoms: C3_5  and  N1_7 
REMARK    3  A    between atoms: N1_7  and  C4_9 
REMARK    4  A    between atoms: C4_9  and  C5_10 
REMARK    5  A    between atoms: C5_10  and  C6_11 
REMARK    6  A    between atoms: C7_14  and  C8_15 
REMARK    7  A    between atoms: C11_18  and  S1_19 
REMARK    8  A    between atoms: S1_19  and  C12_20 
REMARK    9  A    between atoms: N4_28  and  C15_29 
ROOT
HETATM    1  C6  UNL     1      54.444  -0.435  80.527  1.00  0.00     0.101 A 
HETATM    2  N2  UNL     1      53.815   0.701  80.204  1.00  0.00    -0.329 N 
ATOM      3  H2  UNL     1      54.203   1.434  79.609  1.00  0.00     0.168 HD
HETATM    4  C7  UNL     1      52.591   0.738  80.781  1.00  0.00     0.131 A 
HETATM    5  N3  UNL     1      52.481  -0.405  81.468  1.00  0.00    -0.281 N 
ATOM      6  H3  UNL     1      51.669  -0.683  82.019  1.00  0.00     0.189 HD
HETATM    7  N4  UNL     1      53.585  -1.119  81.326  1.00  0.00    -0.274 N 
ENDROOT
BRANCH   1   8
HETATM    8  C5  UNL     1      55.795  -0.898  80.124  1.00  0.00     0.098 C 
BRANCH   8   9
HETATM    9  C4  UNL     1      55.926  -1.047  78.636  1.00  0.00     0.130 C 
BRANCH   9  10
HETATM   10  N1  UNL     1      54.756  -1.586  78.015  1.00  0.00    -0.360 N 
HETATM   11  C3  UNL     1      54.188  -0.981  76.868  1.00  0.00     0.237 C 
HETATM   12  O3  UNL     1      54.750   0.064  76.403  1.00  0.00    -0.272 OA
ATOM     13  H1  UNL     1      54.323  -2.423  78.406  1.00  0.00     0.162 HD
BRANCH  11  14
HETATM   14  C2  UNL     1      52.966  -1.531  76.205  1.00  0.00     0.129 C 
HETATM   15  C21 UNL     1      53.123  -3.033  76.121  1.00  0.00     0.030 C 
HETATM   16  C22 UNL     1      52.207  -3.622  75.067  1.00  0.00     0.002 C 
HETATM   17  C23 UNL     1      52.642  -3.177  73.676  1.00  0.00     0.000 C 
HETATM   18  C24 UNL     1      53.439  -1.882  73.774  1.00  0.00     0.002 C 
HETATM   19  C25 UNL     1      52.805  -0.957  74.810  1.00  0.00     0.030 C 
BRANCH  14  20
HETATM   20  C1  UNL     1      51.807  -1.175  77.045  1.00  0.00     0.191 C 
HETATM   21  O1  UNL     1      51.941  -1.255  78.310  1.00  0.00    -0.647 OA
HETATM   22  O2  UNL     1      50.587  -0.758  76.551  1.00  0.00    -0.647 OA
ENDBRANCH  14  20
ENDBRANCH  11  14
ENDBRANCH   9  10
ENDBRANCH   8   9
ENDBRANCH   1   8
BRANCH   7  23
HETATM   23  C15 UNL     1      53.839  -2.415  81.918  1.00  0.00     0.109 C 
HETATM   24  C16 UNL     1      53.748  -2.334  83.428  1.00  0.00     0.027 C 
HETATM   25  C17 UNL     1      52.818  -3.407  83.921  1.00  0.00     0.002 C 
HETATM   26  C18 UNL     1      53.333  -4.751  83.477  1.00  0.00     0.000 C 
HETATM   27  C19 UNL     1      53.308  -4.792  81.965  1.00  0.00     0.002 C 
HETATM   28  C20 UNL     1      52.889  -3.469  81.368  1.00  0.00     0.027 C 
ENDBRANCH   7  23
BRANCH   4  29
HETATM   29  C8  UNL     1      51.617   1.824  80.654  1.00  0.00     0.009 A 
HETATM   30  C9  UNL     1      50.424   1.597  79.990  1.00  0.00     0.016 A 
HETATM   31  C10 UNL     1      49.469   2.560  79.833  1.00  0.00     0.019 A 
HETATM   32  C11 UNL     1      49.696   3.833  80.362  1.00  0.00     0.009 A 
HETATM   33  C13 UNL     1      50.880   4.065  81.024  1.00  0.00     0.019 A 
HETATM   34  C14 UNL     1      51.842   3.059  81.169  1.00  0.00     0.016 A 
BRANCH  32  35
HETATM   35  S1  UNL     1      48.450   5.083  80.151  1.00  0.00    -0.016 SA
BRANCH  35  36
HETATM   36  C12 UNL     1      49.195   6.727  80.025  1.00  0.00     0.448 C 
HETATM   37  F1  UNL     1      49.715   6.863  78.738  1.00  0.00    -0.160 F 
HETATM   38  F2  UNL     1      50.148   6.883  80.989  1.00  0.00    -0.160 F 
HETATM   39  F3  UNL     1      48.204   7.679  80.244  1.00  0.00    -0.160 F 
ENDBRANCH  35  36
ENDBRANCH  32  35
ENDBRANCH   4  29
TORSDOF 9
ENDMDL
MODEL 2
REMARK VINA RESULT: -8.599482286     11.068     14.350
REMARK  9 active torsions:
REMARK  status: ('A' for Active; 'I' for Inactive)
REMARK    1  A    between atoms: C1_2  and  C2_4 
REMARK    2  A    between atoms: C2_4  and  C3_5 
REMARK       I    between atoms: C3_5  and  N1_7 
REMARK    3  A    between atoms: N1_7  and  C4_9 
REMARK    4  A    between atoms: C4_9  and  C5_10 
REMARK    5  A    between atoms: C5_10  and  C6_11 
REMARK    6  A    between atoms: C7_14  and  C8_15 
REMARK    7  A    between atoms: C11_18  and  S1_19 
REMARK    8  A    between atoms: S1_19  and  C12_20 
REMARK    9  A    between atoms: N4_28  and  C15_29 
ROOT
HETATM    1  C6  UNL     1      48.452   2.612  66.862  1.00  0.00     0.101 A 
HETATM    2  N2  UNL     1      49.475   2.577  67.722  1.00  0.00    -0.329 N 
ATOM      3  H2  UNL     1      49.457   2.116  68.633  1.00  0.00     0.168 HD
HETATM    4  C7  UNL     1      50.539   3.240  67.212  1.00  0.00     0.131 A 
HETATM    5  N3  UNL     1      50.144   3.687  66.013  1.00  0.00    -0.281 N 
ATOM      6  H3  UNL     1      50.720   4.229  65.370  1.00  0.00     0.189 HD
HETATM    7  N4  UNL     1      48.894   3.318  65.789  1.00  0.00    -0.274 N 
ENDROOT
BRANCH   1   8
HETATM    8  C5  UNL     1      47.097   2.021  67.001  1.00  0.00     0.098 C 
BRANCH   8   9
HETATM    9  C4  UNL     1      46.515   2.244  68.366  1.00  0.00     0.130 C 
BRANCH   9  10
HETATM   10  N1  UNL     1      46.449   1.053  69.155  1.00  0.00    -0.360 N 
HETATM   11  C3  UNL     1      45.243   0.653  69.782  1.00  0.00     0.237 C 
HETATM   12  O3  UNL     1      44.215   1.389  69.624  1.00  0.00    -0.272 OA
ATOM     13  H1  UNL     1      47.285   0.481  69.269  1.00  0.00     0.162 HD
BRANCH  11  14
HETATM   14  C2  UNL     1      45.154  -0.589  70.610  1.00  0.00     0.129 C 
HETATM   15  C21 UNL     1      46.035  -1.635  69.967  1.00  0.00     0.030 C 
HETATM   16  C22 UNL     1      45.653  -3.030  70.422  1.00  0.00     0.002 C 
HETATM   17  C23 UNL     1      44.273  -3.402  69.892  1.00  0.00     0.000 C 
HETATM   18  C24 UNL     1      43.479  -2.139  69.587  1.00  0.00     0.002 C 
HETATM   19  C25 UNL     1      43.725  -1.094  70.672  1.00  0.00     0.030 C 
BRANCH  14  20
HETATM   20  C1  UNL     1      45.642  -0.256  71.962  1.00  0.00     0.191 C 
HETATM   21  O1  UNL     1      46.354   0.792  72.097  1.00  0.00    -0.647 OA
HETATM   22  O2  UNL     1      45.376  -1.004  73.091  1.00  0.00    -0.647 OA
ENDBRANCH  14  20
ENDBRANCH  11  14
ENDBRANCH   9  10
ENDBRANCH   8   9
ENDBRANCH   1   8
BRANCH   7  23
HETATM   23  C15 UNL     1      48.123   3.612  64.600  1.00  0.00     0.109 C 
HETATM   24  C16 UNL     1      48.052   5.108  64.372  1.00  0.00     0.027 C 
HETATM   25  C17 UNL     1      48.469   5.409  62.960  1.00  0.00     0.002 C 
HETATM   26  C18 UNL     1      47.565   4.669  62.009  1.00  0.00     0.000 C 
HETATM   27  C19 UNL     1      47.759   3.185  62.230  1.00  0.00     0.002 C 
HETATM   28  C20 UNL     1      48.693   2.899  63.382  1.00  0.00     0.027 C 
ENDBRANCH   7  23
BRANCH   4  29
HETATM   29  C8  UNL     1      51.836   3.412  67.868  1.00  0.00     0.009 A 
HETATM   30  C9  UNL     1      52.777   4.258  67.306  1.00  0.00     0.016 A 
HETATM   31  C10 UNL     1      54.007   4.470  67.861  1.00  0.00     0.019 A 
HETATM   32  C11 UNL     1      54.339   3.808  69.046  1.00  0.00     0.009 A 
HETATM   33  C13 UNL     1      53.408   2.967  69.609  1.00  0.00     0.019 A 
HETATM   34  C14 UNL     1      52.155   2.769  69.018  1.00  0.00     0.016 A 
BRANCH  32  35
HETATM   35  S1  UNL     1      55.943   4.085  69.761  1.00  0.00    -0.016 SA
BRANCH  35  36
HETATM   36  C12 UNL     1      56.635   5.663  69.211  1.00  0.00     0.448 C 
HETATM   37  F1  UNL     1      55.813   6.683  69.693  1.00  0.00    -0.160 F 
HETATM   38  F2  UNL     1      56.737   5.680  67.850  1.00  0.00    -0.160 F 
HETATM   39  F3  UNL     1      57.916   5.792  69.738  1.00  0.00    -0.160 F 
ENDBRANCH  35  36
ENDBRANCH  32  35
ENDBRANCH   4  29
TORSDOF 9
ENDMDL
MODEL 3
REMARK VINA RESULT: -8.586623890      8.894     12.259
REMARK  9 active torsions:
REMARK  status: ('A' for Active; 'I' for Inactive)
REMARK    1  A    between atoms: C1_2  and  C2_4 
REMARK    2  A    between atoms: C2_4  and  C3_5 
REMARK       I    between atoms: C3_5  and  N1_7 
REMARK    3  A    between atoms: N1_7  and  C4_9 
REMARK    4  A    between atoms: C4_9  and  C5_10 
REMARK    5  A    between atoms: C5_10  and  C6_11 
REMARK    6  A    between atoms: C7_14  and  C8_15 
REMARK    7  A    between atoms: C11_18  and  S1_19 
REMARK    8  A    between atoms: S1_19  and  C12_20 
REMARK    9  A    between atoms: N4_28  and  C15_29 
ROOT
HETATM    1  C6  UNL     1      53.136   2.766  69.987  1.00  0.00     0.101 A 
HETATM    2  N2  UNL     1      52.036   2.377  69.331  1.00  0.00    -0.329 N 
ATOM      3  H2  UNL     1      51.428   1.608  69.615  1.00  0.00     0.168 HD
HETATM    4  C7  UNL     1      51.846   3.151  68.237  1.00  0.00     0.131 A 
HETATM    5  N3  UNL     1      52.857   4.027  68.234  1.00  0.00    -0.281 N 
ATOM      6  H3  UNL     1      53.003   4.753  67.533  1.00  0.00     0.189 HD
HETATM    7  N4  UNL     1      53.640   3.809  69.278  1.00  0.00    -0.274 N 
ENDROOT
BRANCH   1   8
HETATM    8  C5  UNL     1      53.723   2.209  71.231  1.00  0.00     0.098 C 
BRANCH   8   9
HETATM    9  C4  UNL     1      54.036   0.746  71.109  1.00  0.00     0.130 C 
BRANCH   9  10
HETATM   10  N1  UNL     1      53.209  -0.080  71.933  1.00  0.00    -0.360 N 
HETATM   11  C3  UNL     1      53.454  -0.212  73.322  1.00  0.00     0.237 C 
HETATM   12  O3  UNL     1      54.439   0.427  73.818  1.00  0.00    -0.272 OA
ATOM     13  H1  UNL     1      52.427  -0.583  71.513  1.00  0.00     0.162 HD
BRANCH  11  14
HETATM   14  C2  UNL     1      52.600  -1.071  74.200  1.00  0.00     0.129 C 
HETATM   15  C21 UNL     1      53.325  -1.252  75.514  1.00  0.00     0.030 C 
HETATM   16  C22 UNL     1      52.804  -2.460  76.266  1.00  0.00     0.002 C 
HETATM   17  C23 UNL     1      53.162  -3.743  75.524  1.00  0.00     0.000 C 
HETATM   18  C24 UNL     1      53.392  -3.439  74.049  1.00  0.00     0.002 C 
HETATM   19  C25 UNL     1      52.361  -2.425  73.559  1.00  0.00     0.030 C 
BRANCH  14  20
HETATM   20  C1  UNL     1      51.322  -0.365  74.403  1.00  0.00     0.191 C 
HETATM   21  O1  UNL     1      51.098   0.676  73.701  1.00  0.00    -0.647 OA
HETATM   22  O2  UNL     1      50.350  -0.757  75.301  1.00  0.00    -0.647 OA
ENDBRANCH  14  20
ENDBRANCH  11  14
ENDBRANCH   9  10
ENDBRANCH   8   9
ENDBRANCH   1   8
BRANCH   7  23
HETATM   23  C15 UNL     1      54.834   4.554  69.614  1.00  0.00     0.109 C 
HETATM   24  C16 UNL     1      56.017   3.621  69.761  1.00  0.00     0.027 C 
HETATM   25  C17 UNL     1      57.150   4.127  68.914  1.00  0.00     0.002 C 
HETATM   26  C18 UNL     1      57.503   5.528  69.344  1.00  0.00     0.000 C 
HETATM   27  C19 UNL     1      56.309   6.418  69.081  1.00  0.00     0.002 C 
HETATM   28  C20 UNL     1      55.116   5.638  68.582  1.00  0.00     0.027 C 
ENDBRANCH   7  23
BRANCH   4  29
HETATM   29  C8  UNL     1      50.747   3.023  67.278  1.00  0.00     0.009 A 
HETATM   30  C9  UNL     1      49.463   2.787  67.739  1.00  0.00     0.016 A 
HETATM   31  C10 UNL     1      48.389   2.657  66.906  1.00  0.00     0.019 A 
HETATM   32  C11 UNL     1      48.584   2.764  65.527  1.00  0.00     0.009 A 
HETATM   33  C13 UNL     1      49.858   2.999  65.062  1.00  0.00     0.019 A 
HETATM   34  C14 UNL     1      50.940   3.127  65.940  1.00  0.00     0.016 A 
BRANCH  32  35
HETATM   35  S1  UNL     1      47.183   2.590  64.447  1.00  0.00    -0.016 SA
BRANCH  35  36
HETATM   36  C12 UNL     1      47.500   3.363  62.842  1.00  0.00     0.448 C 
HETATM   37  F1  UNL     1      48.464   2.601  62.183  1.00  0.00    -0.160 F 
HETATM   38  F2  UNL     1      47.893   4.658  63.017  1.00  0.00    -0.160 F 
HETATM   39  F3  UNL     1      46.315   3.370  62.113  1.00  0.00    -0.160 F 
ENDBRANCH  35  36
ENDBRANCH  32  35
ENDBRANCH   4  29
TORSDOF 9
ENDMDL
MODEL 4
REMARK VINA RESULT: -8.574808104      9.882     13.078
REMARK  9 active torsions:
REMARK  status: ('A' for Active; 'I' for Inactive)
REMARK    1  A    between atoms: C1_2  and  C2_4 
REMARK    2  A    between atoms: C2_4  and  C3_5 
REMARK       I    between atoms: C3_5  and  N1_7 
REMARK    3  A    between atoms: N1_7  and  C4_9 
REMARK    4  A    between atoms: C4_9  and  C5_10 
REMARK    5  A    between atoms: C5_10  and  C6_11 
REMARK    6  A    between atoms: C7_14  and  C8_15 
REMARK    7  A    between atoms: C11_18  and  S1_19 
REMARK    8  A    between atoms: S1_19  and  C12_20 
REMARK    9  A    between atoms: N4_28  and  C15_29 
ROOT
HETATM    1  C6  UNL     1      53.209   2.853  69.170  1.00  0.00     0.101 A 
HETATM    2  N2  UNL     1      52.797   1.951  70.068  1.00  0.00    -0.329 N 
ATOM      3  H2  UNL     1      51.907   1.453  70.030  1.00  0.00     0.168 HD
HETATM    4  C7  UNL     1      53.732   1.793  71.035  1.00  0.00     0.131 A 
HETATM    5  N3  UNL     1      54.730   2.623  70.710  1.00  0.00    -0.281 N 
ATOM      6  H3  UNL     1      55.592   2.742  71.242  1.00  0.00     0.189 HD
HETATM    7  N4  UNL     1      54.431   3.266  69.593  1.00  0.00    -0.274 N 
ENDROOT
BRANCH   1   8
HETATM    8  C5  UNL     1      52.514   3.336  67.951  1.00  0.00     0.098 C 
BRANCH   8   9
HETATM    9  C4  UNL     1      51.220   4.026  68.267  1.00  0.00     0.130 C 
BRANCH   9  10
HETATM   10  N1  UNL     1      50.998   5.202  67.483  1.00  0.00    -0.360 N 
HETATM   11  C3  UNL     1      50.298   5.144  66.253  1.00  0.00     0.237 C 
HETATM   12  O3  UNL     1      49.870   4.009  65.863  1.00  0.00    -0.272 OA
ATOM     13  H1  UNL     1      51.351   6.099  67.816  1.00  0.00     0.162 HD
BRANCH  11  14
HETATM   14  C2  UNL     1      50.056   6.362  65.421  1.00  0.00     0.129 C 
HETATM   15  C21 UNL     1      49.307   5.931  64.180  1.00  0.00     0.030 C 
HETATM   16  C22 UNL     1      49.438   6.960  63.075  1.00  0.00     0.002 C 
HETATM   17  C23 UNL     1      50.876   7.023  62.575  1.00  0.00     0.000 C 
HETATM   18  C24 UNL     1      51.821   6.510  63.654  1.00  0.00     0.002 C 
HETATM   19  C25 UNL     1      51.369   7.011  65.023  1.00  0.00     0.030 C 
BRANCH  14  20
HETATM   20  C1  UNL     1      49.243   7.295  66.223  1.00  0.00     0.191 C 
HETATM   21  O1  UNL     1      48.526   6.806  67.158  1.00  0.00    -0.647 OA
HETATM   22  O2  UNL     1      49.208   8.660  66.031  1.00  0.00    -0.647 OA
ENDBRANCH  14  20
ENDBRANCH  11  14
ENDBRANCH   9  10
ENDBRANCH   8   9
ENDBRANCH   1   8
BRANCH   7  23
HETATM   23  C15 UNL     1      55.264   4.245  68.929  1.00  0.00     0.109 C 
HETATM   24  C16 UNL     1      54.668   5.630  69.069  1.00  0.00     0.027 C 
HETATM   25  C17 UNL     1      55.721   6.567  69.593  1.00  0.00     0.002 C 
HETATM   26  C18 UNL     1      56.895   6.571  68.649  1.00  0.00     0.000 C 
HETATM   27  C19 UNL     1      57.493   5.181  68.631  1.00  0.00     0.002 C 
HETATM   28  C20 UNL     1      56.691   4.206  69.460  1.00  0.00     0.027 C 
ENDBRANCH   7  23
BRANCH   4  29
HETATM   29  C8  UNL     1      53.632   0.891  72.183  1.00  0.00     0.009 A 
HETATM   30  C9  UNL     1      53.674  -0.477  71.981  1.00  0.00     0.016 A 
HETATM   31  C10 UNL     1      53.588  -1.380  73.003  1.00  0.00     0.019 A 
HETATM   32  C11 UNL     1      53.450  -0.911  74.312  1.00  0.00     0.009 A 
HETATM   33  C13 UNL     1      53.408   0.448  74.519  1.00  0.00     0.019 A 
HETATM   34  C14 UNL     1      53.498   1.350  73.453  1.00  0.00     0.016 A 
BRANCH  32  35
HETATM   35  S1  UNL     1      53.335  -2.091  75.637  1.00  0.00    -0.016 SA
BRANCH  35  36
HETATM   36  C12 UNL     1      52.869  -3.724  75.013  1.00  0.00     0.448 C 
HETATM   37  F1  UNL     1      53.920  -4.196  74.225  1.00  0.00    -0.160 F 
HETATM   38  F2  UNL     1      51.697  -3.641  74.319  1.00  0.00    -0.160 F 
HETATM   39  F3  UNL     1      52.666  -4.570  76.098  1.00  0.00    -0.160 F 
ENDBRANCH  35  36
ENDBRANCH  32  35
ENDBRANCH   4  29
TORSDOF 9
ENDMDL
MODEL 5
REMARK VINA RESULT: -8.573943055      9.320     12.567
REMARK  9 active torsions:
REMARK  status: ('A' for Active; 'I' for Inactive)
REMARK    1  A    between atoms: C1_2  and  C2_4 
REMARK    2  A    between atoms: C2_4  and  C3_5 
REMARK       I    between atoms: C3_5  and  N1_7 
REMARK    3  A    between atoms: N1_7  and  C4_9 
REMARK    4  A    between atoms: C4_9  and  C5_10 
REMARK    5  A    between atoms: C5_10  and  C6_11 
REMARK    6  A    between atoms: C7_14  and  C8_15 
REMARK    7  A    between atoms: C11_18  and  S1_19 
REMARK    8  A    between atoms: S1_19  and  C12_20 
REMARK    9  A    between atoms: N4_28  and  C15_29 
ROOT
HETATM    1  C6  UNL     1      53.254   3.105  69.344  1.00  0.00     0.101 A 
HETATM    2  N2  UNL     1      52.811   2.204  70.228  1.00  0.00    -0.329 N 
ATOM      3  H2  UNL     1      51.871   1.808  70.237  1.00  0.00     0.168 HD
HETATM    4  C7  UNL     1      53.791   1.894  71.110  1.00  0.00     0.131 A 
HETATM    5  N3  UNL     1      54.849   2.628  70.746  1.00  0.00    -0.281 N 
ATOM      6  H3  UNL     1      55.755   2.624  71.213  1.00  0.00     0.189 HD
HETATM    7  N4  UNL     1      54.542   3.360  69.688  1.00  0.00    -0.274 N 
ENDROOT
BRANCH   1   8
HETATM    8  C5  UNL     1      52.529   3.727  68.207  1.00  0.00     0.098 C 
BRANCH   8   9
HETATM    9  C4  UNL     1      51.993   2.706  67.246  1.00  0.00     0.130 C 
BRANCH   9  10
HETATM   10  N1  UNL     1      50.574   2.777  67.078  1.00  0.00    -0.360 N 
HETATM   11  C3  UNL     1      49.991   3.631  66.110  1.00  0.00     0.237 C 
HETATM   12  O3  UNL     1      50.769   4.339  65.391  1.00  0.00    -0.272 OA
ATOM     13  H1  UNL     1      49.972   2.202  67.666  1.00  0.00     0.162 HD
BRANCH  11  14
HETATM   14  C2  UNL     1      48.510   3.718  65.920  1.00  0.00     0.129 C 
HETATM   15  C21 UNL     1      47.914   2.389  66.326  1.00  0.00     0.030 C 
HETATM   16  C22 UNL     1      46.533   2.202  65.731  1.00  0.00     0.002 C 
HETATM   17  C23 UNL     1      46.622   2.063  64.216  1.00  0.00     0.000 C 
HETATM   18  C24 UNL     1      47.907   2.707  63.713  1.00  0.00     0.002 C 
HETATM   19  C25 UNL     1      48.170   4.006  64.469  1.00  0.00     0.030 C 
BRANCH  14  20
HETATM   20  C1  UNL     1      48.014   4.800  66.790  1.00  0.00     0.191 C 
HETATM   21  O1  UNL     1      48.589   4.971  67.914  1.00  0.00    -0.647 OA
HETATM   22  O2  UNL     1      46.969   5.641  66.466  1.00  0.00    -0.647 OA
ENDBRANCH  14  20
ENDBRANCH  11  14
ENDBRANCH   9  10
ENDBRANCH   8   9
ENDBRANCH   1   8
BRANCH   7  23
HETATM   23  C15 UNL     1      55.428   4.278  69.006  1.00  0.00     0.109 C 
HETATM   24  C16 UNL     1      54.829   5.669  68.976  1.00  0.00     0.027 C 
HETATM   25  C17 UNL     1      55.841   6.651  69.495  1.00  0.00     0.002 C 
HETATM   26  C18 UNL     1      57.084   6.575  68.648  1.00  0.00     0.000 C 
HETATM   27  C19 UNL     1      57.677   5.191  68.801  1.00  0.00     0.002 C 
HETATM   28  C20 UNL     1      56.809   4.291  69.647  1.00  0.00     0.027 C 
ENDBRANCH   7  23
BRANCH   4  29
HETATM   29  C8  UNL     1      53.675   0.946  72.219  1.00  0.00     0.009 A 
HETATM   30  C9  UNL     1      53.725  -0.413  71.963  1.00  0.00     0.016 A 
HETATM   31  C10 UNL     1      53.625  -1.356  72.946  1.00  0.00     0.019 A 
HETATM   32  C11 UNL     1      53.466  -0.941  74.270  1.00  0.00     0.009 A 
HETATM   33  C13 UNL     1      53.416   0.409  74.532  1.00  0.00     0.019 A 
HETATM   34  C14 UNL     1      53.521   1.353  73.504  1.00  0.00     0.016 A 
BRANCH  32  35
HETATM   35  S1  UNL     1      53.333  -2.174  75.545  1.00  0.00    -0.016 SA
BRANCH  35  36
HETATM   36  C12 UNL     1      52.905  -3.786  74.845  1.00  0.00     0.448 C 
HETATM   37  F1  UNL     1      54.019  -4.260  74.151  1.00  0.00    -0.160 F 
HETATM   38  F2  UNL     1      51.805  -3.672  74.046  1.00  0.00    -0.160 F 
HETATM   39  F3  UNL     1      52.589  -4.651  75.889  1.00  0.00    -0.160 F 
ENDBRANCH  35  36
ENDBRANCH  32  35
ENDBRANCH   4  29
TORSDOF 9
ENDMDL
