MODEL 1
REMARK VINA RESULT: -8.196826731      0.000      0.000
REMARK  7 active torsions:
REMARK  status: ('A' for Active; 'I' for Inactive)
REMARK    1  A    between atoms: C2_2  and  C10_15 
REMARK    2  A    between atoms: N1_3  and  S1_5 
REMARK    3  A    between atoms: S1_5  and  C3_8 
REMARK    4  A    between atoms: C11_16  and  O3_17 
REMARK    5  A    between atoms: O3_17  and  S2_18 
REMARK    6  A    between atoms: S2_18  and  C12_21 
REMARK    7  A    between atoms: C16_28  and  O7_29 
ROOT
HETATM    1  C12 UNL     1      68.036  -7.080  52.024  1.00  0.00     0.348 C 
HETATM    2  C13 UNL     1      67.049  -7.984  52.591  1.00  0.00     0.097 C 
HETATM    3  N2  UNL     1      66.260  -8.694  53.020  1.00  0.00    -0.195 NA
HETATM    4  C14 UNL     1      68.048  -5.782  52.663  1.00  0.00     0.097 C 
HETATM    5  N3  UNL     1      68.039  -4.738  53.162  1.00  0.00    -0.195 NA
ENDROOT
BRANCH   1   6
HETATM    6  S2  UNL     1      69.614  -7.886  52.053  1.00  0.00     0.300 S 
HETATM    7  O4  UNL     1      70.537  -6.970  52.851  1.00  0.00    -0.196 OA
HETATM    8  O5  UNL     1      69.479  -9.141  52.889  1.00  0.00    -0.196 OA
BRANCH   6   9
HETATM    9  O3  UNL     1      70.271  -8.172  50.541  1.00  0.00    -0.228 OA
BRANCH   9  10
HETATM   10  C11 UNL     1      69.614  -7.753  49.398  1.00  0.00     0.128 A 
HETATM   11  C10 UNL     1      69.794  -6.574  48.720  1.00  0.00     0.082 A 
HETATM   12  C16 UNL     1      68.903  -6.631  47.649  1.00  0.00     0.198 A 
HETATM   13  O6  UNL     1      68.245  -7.767  47.696  1.00  0.00    -0.297 OA
HETATM   14  C15 UNL     1      68.626  -8.478  48.718  1.00  0.00     0.184 A 
BRANCH  11  15
HETATM   15  C2  UNL     1      70.691  -5.467  49.014  1.00  0.00     0.034 C 
HETATM   16  C1  UNL     1      70.674  -4.713  50.288  1.00  0.00     0.070 C 
HETATM   17  N1  UNL     1      71.572  -5.074  48.141  1.00  0.00    -0.283 N 
ATOM     18  H1  UNL     1      71.603  -5.577  47.255  1.00  0.00     0.178 HD
BRANCH  17  19
HETATM   19  S1  UNL     1      72.674  -3.799  48.346  1.00  0.00     0.263 S 
HETATM   20  O1  UNL     1      73.358  -3.908  49.674  1.00  0.00    -0.200 OA
HETATM   21  O2  UNL     1      73.756  -3.760  47.286  1.00  0.00    -0.200 OA
BRANCH  19  22
HETATM   22  C3  UNL     1      71.823  -2.251  48.223  1.00  0.00     0.079 A 
HETATM   23  C4  UNL     1      71.249  -1.865  47.031  1.00  0.00     0.026 A 
HETATM   24  C5  UNL     1      70.572  -0.647  46.912  1.00  0.00     0.008 A 
HETATM   25  C6  UNL     1      70.476   0.185  48.005  1.00  0.00    -0.062 A 
HETATM   26  C7  UNL     1      69.748   1.484  47.855  1.00  0.00     0.048 C 
HETATM   27  C8  UNL     1      71.046  -0.193  49.193  1.00  0.00     0.008 A 
HETATM   28  C9  UNL     1      71.721  -1.409  49.311  1.00  0.00     0.026 A 
ENDBRANCH  19  22
ENDBRANCH  17  19
ENDBRANCH  11  15
BRANCH  12  29
HETATM   29  O7  UNL     1      68.782  -5.610  46.714  1.00  0.00    -0.340 OA
ATOM     30  H7  UNL     1      68.666  -4.699  46.959  1.00  0.00     0.220 HD
ENDBRANCH  12  29
ENDBRANCH   9  10
ENDBRANCH   6   9
ENDBRANCH   1   6
TORSDOF 7
ENDMDL
MODEL 2
REMARK VINA RESULT: -8.179951076      1.866      2.935
REMARK  7 active torsions:
REMARK  status: ('A' for Active; 'I' for Inactive)
REMARK    1  A    between atoms: C2_2  and  C10_15 
REMARK    2  A    between atoms: N1_3  and  S1_5 
REMARK    3  A    between atoms: S1_5  and  C3_8 
REMARK    4  A    between atoms: C11_16  and  O3_17 
REMARK    5  A    between atoms: O3_17  and  S2_18 
REMARK    6  A    between atoms: S2_18  and  C12_21 
REMARK    7  A    between atoms: C16_28  and  O7_29 
ROOT
HETATM    1  C12 UNL     1      68.650  -6.447  52.951  1.00  0.00     0.348 C 
HETATM    2  C13 UNL     1      69.084  -5.139  52.489  1.00  0.00     0.097 C 
HETATM    3  N2  UNL     1      69.434  -4.106  52.143  1.00  0.00    -0.195 NA
HETATM    4  C14 UNL     1      67.213  -6.551  53.087  1.00  0.00     0.097 C 
HETATM    5  N3  UNL     1      66.065  -6.623  53.216  1.00  0.00    -0.195 NA
ENDROOT
BRANCH   1   6
HETATM    6  S2  UNL     1      69.339  -7.677  51.879  1.00  0.00     0.300 S 
HETATM    7  O4  UNL     1      69.512  -8.929  52.735  1.00  0.00    -0.196 OA
HETATM    8  O5  UNL     1      68.287  -8.039  50.852  1.00  0.00    -0.196 OA
BRANCH   6   9
HETATM    9  O3  UNL     1      70.807  -7.253  51.195  1.00  0.00    -0.228 OA
BRANCH   9  10
HETATM   10  C11 UNL     1      71.406  -8.071  50.254  1.00  0.00     0.128 A 
HETATM   11  C10 UNL     1      71.488  -7.862  48.901  1.00  0.00     0.082 A 
HETATM   12  C16 UNL     1      72.182  -8.966  48.404  1.00  0.00     0.198 A 
HETATM   13  O6  UNL     1      72.485  -9.767  49.400  1.00  0.00    -0.297 OA
HETATM   14  C15 UNL     1      72.048  -9.288  50.528  1.00  0.00     0.184 A 
BRANCH  11  15
HETATM   15  C2  UNL     1      70.974  -6.760  48.103  1.00  0.00     0.034 C 
HETATM   16  C1  UNL     1      69.551  -6.346  48.095  1.00  0.00     0.070 C 
HETATM   17  N1  UNL     1      71.762  -6.069  47.334  1.00  0.00    -0.283 N 
ATOM     18  H1  UNL     1      72.747  -6.335  47.322  1.00  0.00     0.178 HD
BRANCH  17  19
HETATM   19  S1  UNL     1      71.301  -4.766  46.349  1.00  0.00     0.263 S 
HETATM   20  O1  UNL     1      72.196  -4.673  45.151  1.00  0.00    -0.200 OA
HETATM   21  O2  UNL     1      69.878  -4.868  45.839  1.00  0.00    -0.200 OA
BRANCH  19  22
HETATM   22  C3  UNL     1      71.372  -3.262  47.281  1.00  0.00     0.079 A 
HETATM   23  C4  UNL     1      71.043  -2.061  46.691  1.00  0.00     0.026 A 
HETATM   24  C5  UNL     1      71.092  -0.861  47.408  1.00  0.00     0.008 A 
HETATM   25  C6  UNL     1      71.476  -0.878  48.731  1.00  0.00    -0.062 A 
HETATM   26  C7  UNL     1      71.523   0.417  49.479  1.00  0.00     0.048 C 
HETATM   27  C8  UNL     1      71.806  -2.069  49.322  1.00  0.00     0.008 A 
HETATM   28  C9  UNL     1      71.756  -3.266  48.606  1.00  0.00     0.026 A 
ENDBRANCH  19  22
ENDBRANCH  17  19
ENDBRANCH  11  15
BRANCH  12  29
HETATM   29  O7  UNL     1      72.473  -9.127  47.055  1.00  0.00    -0.340 OA
ATOM     30  H7  UNL     1      71.812  -9.070  46.375  1.00  0.00     0.220 HD
ENDBRANCH  12  29
ENDBRANCH   9  10
ENDBRANCH   6   9
ENDBRANCH   1   6
TORSDOF 7
ENDMDL
MODEL 3
REMARK VINA RESULT: -8.047469800      2.753      4.921
REMARK  7 active torsions:
REMARK  status: ('A' for Active; 'I' for Inactive)
REMARK    1  A    between atoms: C2_2  and  C10_15 
REMARK    2  A    between atoms: N1_3  and  S1_5 
REMARK    3  A    between atoms: S1_5  and  C3_8 
REMARK    4  A    between atoms: C11_16  and  O3_17 
REMARK    5  A    between atoms: O3_17  and  S2_18 
REMARK    6  A    between atoms: S2_18  and  C12_21 
REMARK    7  A    between atoms: C16_28  and  O7_29 
ROOT
HETATM    1  C12 UNL     1      70.211  -6.159  48.614  1.00  0.00     0.348 C 
HETATM    2  C13 UNL     1      70.003  -5.531  47.320  1.00  0.00     0.097 C 
HETATM    3  N2  UNL     1      69.820  -5.033  46.305  1.00  0.00    -0.195 NA
HETATM    4  C14 UNL     1      70.448  -7.583  48.521  1.00  0.00     0.097 C 
HETATM    5  N3  UNL     1      70.614  -8.726  48.444  1.00  0.00    -0.195 NA
ENDROOT
BRANCH   1   6
HETATM    6  S2  UNL     1      71.505  -5.291  49.456  1.00  0.00     0.300 S 
HETATM    7  O4  UNL     1      72.801  -5.688  48.754  1.00  0.00    -0.196 OA
HETATM    8  O5  UNL     1      71.335  -3.814  49.172  1.00  0.00    -0.196 OA
BRANCH   6   9
HETATM    9  O3  UNL     1      71.620  -5.636  51.090  1.00  0.00    -0.228 OA
BRANCH   9  10
HETATM   10  C11 UNL     1      70.541  -5.425  51.930  1.00  0.00     0.128 A 
HETATM   11  C10 UNL     1      70.175  -4.251  52.535  1.00  0.00     0.082 A 
HETATM   12  C16 UNL     1      69.031  -4.562  53.271  1.00  0.00     0.198 A 
HETATM   13  O6  UNL     1      68.748  -5.834  53.108  1.00  0.00    -0.297 OA
HETATM   14  C15 UNL     1      69.613  -6.402  52.319  1.00  0.00     0.184 A 
BRANCH  11  15
HETATM   15  C2  UNL     1      70.806  -2.942  52.471  1.00  0.00     0.034 C 
HETATM   16  C1  UNL     1      71.791  -2.456  53.465  1.00  0.00     0.070 C 
HETATM   17  N1  UNL     1      70.523  -2.111  51.512  1.00  0.00    -0.283 N 
ATOM     18  H1  UNL     1      69.847  -2.422  50.814  1.00  0.00     0.178 HD
BRANCH  17  19
HETATM   19  S1  UNL     1      71.177  -0.557  51.315  1.00  0.00     0.263 S 
HETATM   20  O1  UNL     1      71.109   0.205  52.603  1.00  0.00    -0.200 OA
HETATM   21  O2  UNL     1      72.626  -0.563  50.874  1.00  0.00    -0.200 OA
BRANCH  19  22
HETATM   22  C3  UNL     1      70.291   0.306  50.048  1.00  0.00     0.079 A 
HETATM   23  C4  UNL     1      69.359   1.265  50.380  1.00  0.00     0.026 A 
HETATM   24  C5  UNL     1      68.648   1.959  49.396  1.00  0.00     0.008 A 
HETATM   25  C6  UNL     1      68.882   1.680  48.067  1.00  0.00    -0.062 A 
HETATM   26  C7  UNL     1      68.109   2.433  47.030  1.00  0.00     0.048 C 
HETATM   27  C8  UNL     1      69.806   0.725  47.731  1.00  0.00     0.008 A 
HETATM   28  C9  UNL     1      70.516   0.034  48.715  1.00  0.00     0.026 A 
ENDBRANCH  19  22
ENDBRANCH  17  19
ENDBRANCH  11  15
BRANCH  12  29
HETATM   29  O7  UNL     1      68.349  -3.623  54.035  1.00  0.00    -0.340 OA
ATOM     30  H7  UNL     1      68.775  -2.872  54.431  1.00  0.00     0.220 HD
ENDBRANCH  12  29
ENDBRANCH   9  10
ENDBRANCH   6   9
ENDBRANCH   1   6
TORSDOF 7
ENDMDL
MODEL 4
REMARK VINA RESULT: -7.975249001      2.716      6.037
REMARK  7 active torsions:
REMARK  status: ('A' for Active; 'I' for Inactive)
REMARK    1  A    between atoms: C2_2  and  C10_15 
REMARK    2  A    between atoms: N1_3  and  S1_5 
REMARK    3  A    between atoms: S1_5  and  C3_8 
REMARK    4  A    between atoms: C11_16  and  O3_17 
REMARK    5  A    between atoms: O3_17  and  S2_18 
REMARK    6  A    between atoms: S2_18  and  C12_21 
REMARK    7  A    between atoms: C16_28  and  O7_29 
ROOT
HETATM    1  C12 UNL     1      69.919  -7.849  48.224  1.00  0.00     0.348 C 
HETATM    2  C13 UNL     1      71.210  -8.302  48.713  1.00  0.00     0.097 C 
HETATM    3  N2  UNL     1      72.229  -8.672  49.082  1.00  0.00    -0.195 NA
HETATM    4  C14 UNL     1      68.819  -8.247  49.076  1.00  0.00     0.097 C 
HETATM    5  N3  UNL     1      67.941  -8.586  49.749  1.00  0.00    -0.195 NA
ENDROOT
BRANCH   1   6
HETATM    6  S2  UNL     1      70.001  -6.099  47.964  1.00  0.00     0.300 S 
HETATM    7  O4  UNL     1      69.005  -5.793  46.850  1.00  0.00    -0.196 OA
HETATM    8  O5  UNL     1      69.440  -5.420  49.196  1.00  0.00    -0.196 OA
BRANCH   6   9
HETATM    9  O3  UNL     1      71.518  -5.534  47.537  1.00  0.00    -0.228 OA
BRANCH   9  10
HETATM   10  C11 UNL     1      71.767  -4.175  47.461  1.00  0.00     0.128 A 
HETATM   11  C10 UNL     1      71.903  -3.295  48.503  1.00  0.00     0.082 A 
HETATM   12  C16 UNL     1      72.141  -2.057  47.905  1.00  0.00     0.198 A 
HETATM   13  O6  UNL     1      72.143  -2.204  46.599  1.00  0.00    -0.297 OA
HETATM   14  C15 UNL     1      71.925  -3.445  46.274  1.00  0.00     0.184 A 
BRANCH  11  15
HETATM   15  C2  UNL     1      71.816  -3.536  49.935  1.00  0.00     0.034 C 
HETATM   16  C1  UNL     1      72.811  -4.327  50.696  1.00  0.00     0.070 C 
HETATM   17  N1  UNL     1      70.829  -3.058  50.633  1.00  0.00    -0.283 N 
ATOM     18  H1  UNL     1      70.130  -2.509  50.132  1.00  0.00     0.178 HD
BRANCH  17  19
HETATM   19  S1  UNL     1      70.599  -3.263  52.302  1.00  0.00     0.263 S 
HETATM   20  O1  UNL     1      71.919  -3.344  53.006  1.00  0.00    -0.200 OA
HETATM   21  O2  UNL     1      69.815  -2.138  52.947  1.00  0.00    -0.200 OA
BRANCH  19  22
HETATM   22  C3  UNL     1      69.659  -4.735  52.597  1.00  0.00     0.079 A 
HETATM   23  C4  UNL     1      68.324  -4.654  52.927  1.00  0.00     0.026 A 
HETATM   24  C5  UNL     1      67.563  -5.804  53.163  1.00  0.00     0.008 A 
HETATM   25  C6  UNL     1      68.158  -7.043  53.064  1.00  0.00    -0.062 A 
HETATM   26  C7  UNL     1      67.326  -8.260  53.322  1.00  0.00     0.048 C 
HETATM   27  C8  UNL     1      69.487  -7.129  52.737  1.00  0.00     0.008 A 
HETATM   28  C9  UNL     1      70.244  -5.981  52.501  1.00  0.00     0.026 A 
ENDBRANCH  19  22
ENDBRANCH  17  19
ENDBRANCH  11  15
BRANCH  12  29
HETATM   29  O7  UNL     1      72.337  -0.892  48.636  1.00  0.00    -0.340 OA
ATOM     30  H7  UNL     1      72.617  -0.075  48.239  1.00  0.00     0.220 HD
ENDBRANCH  12  29
ENDBRANCH   9  10
ENDBRANCH   6   9
ENDBRANCH   1   6
TORSDOF 7
ENDMDL
MODEL 5
REMARK VINA RESULT: -7.940582995      2.983      4.182
REMARK  7 active torsions:
REMARK  status: ('A' for Active; 'I' for Inactive)
REMARK    1  A    between atoms: C2_2  and  C10_15 
REMARK    2  A    between atoms: N1_3  and  S1_5 
REMARK    3  A    between atoms: S1_5  and  C3_8 
REMARK    4  A    between atoms: C11_16  and  O3_17 
REMARK    5  A    between atoms: O3_17  and  S2_18 
REMARK    6  A    between atoms: S2_18  and  C12_21 
REMARK    7  A    between atoms: C16_28  and  O7_29 
ROOT
HETATM    1  C12 UNL     1      68.658  -6.635  52.935  1.00  0.00     0.348 C 
HETATM    2  C13 UNL     1      69.074  -5.348  52.402  1.00  0.00     0.097 C 
HETATM    3  N2  UNL     1      69.410  -4.330  52.001  1.00  0.00    -0.195 NA
HETATM    4  C14 UNL     1      67.220  -6.767  53.035  1.00  0.00     0.097 C 
HETATM    5  N3  UNL     1      66.071  -6.861  53.135  1.00  0.00    -0.195 NA
ENDROOT
BRANCH   1   6
HETATM    6  S2  UNL     1      69.409  -7.912  51.965  1.00  0.00     0.300 S 
HETATM    7  O4  UNL     1      69.516  -9.127  52.882  1.00  0.00    -0.196 OA
HETATM    8  O5  UNL     1      68.427  -8.314  50.885  1.00  0.00    -0.196 OA
BRANCH   6   9
HETATM    9  O3  UNL     1      70.922  -7.524  51.364  1.00  0.00    -0.228 OA
BRANCH   9  10
HETATM   10  C11 UNL     1      71.482  -8.263  50.336  1.00  0.00     0.128 A 
HETATM   11  C10 UNL     1      71.562  -7.918  49.012  1.00  0.00     0.082 A 
HETATM   12  C16 UNL     1      72.208  -8.990  48.395  1.00  0.00     0.198 A 
HETATM   13  O6  UNL     1      72.487  -9.901  49.300  1.00  0.00    -0.297 OA
HETATM   14  C15 UNL     1      72.077  -9.524  50.477  1.00  0.00     0.184 A 
BRANCH  11  15
HETATM   15  C2  UNL     1      71.085  -6.720  48.338  1.00  0.00     0.034 C 
HETATM   16  C1  UNL     1      69.746  -6.129  48.564  1.00  0.00     0.070 C 
HETATM   17  N1  UNL     1      71.834  -6.098  47.476  1.00  0.00    -0.283 N 
ATOM     18  H1  UNL     1      72.762  -6.485  47.302  1.00  0.00     0.178 HD
BRANCH  17  19
HETATM   19  S1  UNL     1      71.408  -4.698  46.615  1.00  0.00     0.263 S 
HETATM   20  O1  UNL     1      70.132  -4.916  45.861  1.00  0.00    -0.200 OA
HETATM   21  O2  UNL     1      71.206  -3.484  47.498  1.00  0.00    -0.200 OA
BRANCH  19  22
HETATM   22  C3  UNL     1      72.712  -4.268  45.496  1.00  0.00     0.079 A 
HETATM   23  C4  UNL     1      74.023  -4.282  45.918  1.00  0.00     0.026 A 
HETATM   24  C5  UNL     1      75.069  -3.946  45.050  1.00  0.00     0.008 A 
HETATM   25  C6  UNL     1      74.784  -3.595  43.750  1.00  0.00    -0.062 A 
HETATM   26  C7  UNL     1      75.916  -3.238  42.839  1.00  0.00     0.048 C 
HETATM   27  C8  UNL     1      73.480  -3.578  43.326  1.00  0.00     0.008 A 
HETATM   28  C9  UNL     1      72.438  -3.914  44.191  1.00  0.00     0.026 A 
ENDBRANCH  19  22
ENDBRANCH  17  19
ENDBRANCH  11  15
BRANCH  12  29
HETATM   29  O7  UNL     1      72.482  -9.023  47.034  1.00  0.00    -0.340 OA
ATOM     30  H7  UNL     1      72.362  -8.271  46.466  1.00  0.00     0.220 HD
ENDBRANCH  12  29
ENDBRANCH   9  10
ENDBRANCH   6   9
ENDBRANCH   1   6
TORSDOF 7
ENDMDL
