MODEL 1
REMARK VINA RESULT: -8.763084119      0.000      0.000
REMARK  6 active torsions:
REMARK  status: ('A' for Active; 'I' for Inactive)
REMARK    1  A    between atoms: C2_2  and  C4_5 
REMARK    2  A    between atoms: C12_17  and  O5_18 
REMARK    3  A    between atoms: O5_18  and  C13_19 
REMARK    4  A    between atoms: C13_19  and  C14_21 
REMARK    5  A    between atoms: C14_21  and  C15_22 
REMARK    6  A    between atoms: C15_22  and  C16_23 
ROOT
HETATM    1  C1  UNL     1       7.874  21.489  52.919  1.00  0.00     0.033 C 
HETATM    2  C2  UNL     1       8.964  21.098  52.292  1.00  0.00     0.047 C 
HETATM    3  C3  UNL     1       9.544  19.840  52.678  1.00  0.00     0.097 C 
HETATM    4  N1  UNL     1      10.027  18.838  52.983  1.00  0.00    -0.192 NA
ENDROOT
BRANCH   2   5
HETATM    5  C4  UNL     1       9.514  21.962  51.249  1.00  0.00     0.235 C 
HETATM    6  O1  UNL     1       8.858  23.190  51.327  1.00  0.00    -0.339 OA
HETATM    7  C5  UNL     1       8.679  23.661  50.054  1.00  0.00     0.162 C 
HETATM    8  C6  UNL     1       9.652  24.833  49.870  1.00  0.00     0.078 C 
HETATM    9  C7  UNL     1       7.293  24.233  49.858  1.00  0.00     0.078 C 
HETATM   10  O2  UNL     1       9.009  22.700  49.142  1.00  0.00    -0.312 OA
HETATM   11  C8  UNL     1       9.300  21.519  49.855  1.00  0.00     0.234 C 
HETATM   12  O3  UNL     1       8.210  20.657  49.668  1.00  0.00    -0.275 OA
HETATM   13  C20 UNL     1      10.551  20.975  49.266  1.00  0.00     0.012 C 
HETATM   14  C9  UNL     1       8.102  19.892  48.539  1.00  0.00     0.272 C 
HETATM   15  O4  UNL     1       7.022  19.317  48.285  1.00  0.00    -0.264 OA
HETATM   16  C10 UNL     1       9.238  19.747  47.640  1.00  0.00     0.139 C 
HETATM   17  C11 UNL     1       9.053  20.485  46.323  1.00  0.00     0.027 C 
HETATM   18  C12 UNL     1      10.534  20.149  48.233  1.00  0.00     0.077 C 
HETATM   19  C21 UNL     1      11.870  21.384  49.867  1.00  0.00     0.052 C 
BRANCH  18  20
HETATM   20  O5  UNL     1      11.687  19.626  47.665  1.00  0.00    -0.282 OA
BRANCH  20  21
HETATM   21  C13 UNL     1      11.935  18.248  47.665  1.00  0.00     0.264 C 
HETATM   22  O6  UNL     1      11.956  17.707  48.812  1.00  0.00    -0.265 OA
BRANCH  21  23
HETATM   23  C14 UNL     1      12.158  17.473  46.441  1.00  0.00     0.118 C 
BRANCH  23  24
HETATM   24  C15 UNL     1      12.553  16.070  46.823  1.00  0.00     0.075 C 
BRANCH  24  25
HETATM   25  C16 UNL     1      13.957  15.757  46.474  1.00  0.00     0.053 A 
HETATM   26  C17 UNL     1      14.552  16.045  45.260  1.00  0.00     0.034 A 
HETATM   27  C18 UNL     1      15.867  15.605  45.306  1.00  0.00     0.027 A 
HETATM   28  C19 UNL     1      15.994  15.059  46.583  1.00  0.00     0.142 A 
HETATM   29  O7  UNL     1      14.841  15.177  47.222  1.00  0.00    -0.327 OA
ENDBRANCH  24  25
ENDBRANCH  23  24
ENDBRANCH  21  23
ENDBRANCH  20  21
ENDBRANCH  18  20
ENDBRANCH   2   5
TORSDOF 6
ENDMDL
MODEL 2
REMARK VINA RESULT: -8.707692017      1.171      1.403
REMARK  6 active torsions:
REMARK  status: ('A' for Active; 'I' for Inactive)
REMARK    1  A    between atoms: C2_2  and  C4_5 
REMARK    2  A    between atoms: C12_17  and  O5_18 
REMARK    3  A    between atoms: O5_18  and  C13_19 
REMARK    4  A    between atoms: C13_19  and  C14_21 
REMARK    5  A    between atoms: C14_21  and  C15_22 
REMARK    6  A    between atoms: C15_22  and  C16_23 
ROOT
HETATM    1  C1  UNL     1       7.943  21.486  52.845  1.00  0.00     0.033 C 
HETATM    2  C2  UNL     1       9.060  21.041  52.306  1.00  0.00     0.047 C 
HETATM    3  C3  UNL     1       9.588  19.795  52.793  1.00  0.00     0.097 C 
HETATM    4  N1  UNL     1      10.029  18.802  53.180  1.00  0.00    -0.192 NA
ENDROOT
BRANCH   2   5
HETATM    5  C4  UNL     1       9.689  21.836  51.254  1.00  0.00     0.235 C 
HETATM    6  O1  UNL     1       9.123  23.110  51.290  1.00  0.00    -0.339 OA
HETATM    7  C5  UNL     1       9.001  23.561  50.003  1.00  0.00     0.162 C 
HETATM    8  C6  UNL     1      10.059  24.655  49.810  1.00  0.00     0.078 C 
HETATM    9  C7  UNL     1       7.663  24.226  49.767  1.00  0.00     0.078 C 
HETATM   10  O2  UNL     1       9.276  22.555  49.121  1.00  0.00    -0.312 OA
HETATM   11  C8  UNL     1       9.467  21.375  49.867  1.00  0.00     0.234 C 
HETATM   12  O3  UNL     1       8.321  20.589  49.679  1.00  0.00    -0.275 OA
HETATM   13  C20 UNL     1      10.686  20.728  49.316  1.00  0.00     0.012 C 
HETATM   14  C9  UNL     1       8.178  19.806  48.567  1.00  0.00     0.272 C 
HETATM   15  O4  UNL     1       7.063  19.305  48.307  1.00  0.00    -0.264 OA
HETATM   16  C10 UNL     1       9.316  19.557  47.694  1.00  0.00     0.139 C 
HETATM   17  C11 UNL     1       9.208  20.273  46.357  1.00  0.00     0.027 C 
HETATM   18  C12 UNL     1      10.626  19.879  48.302  1.00  0.00     0.077 C 
HETATM   19  C21 UNL     1      12.020  21.055  49.932  1.00  0.00     0.052 C 
BRANCH  18  20
HETATM   20  O5  UNL     1      11.748  19.260  47.769  1.00  0.00    -0.282 OA
BRANCH  20  21
HETATM   21  C13 UNL     1      11.925  17.873  47.860  1.00  0.00     0.264 C 
HETATM   22  O6  UNL     1      12.030  17.424  49.041  1.00  0.00    -0.265 OA
BRANCH  21  23
HETATM   23  C14 UNL     1      11.986  16.995  46.689  1.00  0.00     0.118 C 
BRANCH  23  24
HETATM   24  C15 UNL     1      12.462  17.800  45.507  1.00  0.00     0.075 C 
BRANCH  24  25
HETATM   25  C16 UNL     1      13.073  16.960  44.452  1.00  0.00     0.053 A 
HETATM   26  C17 UNL     1      12.796  17.063  43.102  1.00  0.00     0.034 A 
HETATM   27  C18 UNL     1      13.557  16.115  42.431  1.00  0.00     0.027 A 
HETATM   28  C19 UNL     1      14.269  15.475  43.445  1.00  0.00     0.142 A 
HETATM   29  O7  UNL     1      13.944  16.014  44.609  1.00  0.00    -0.327 OA
ENDBRANCH  24  25
ENDBRANCH  23  24
ENDBRANCH  21  23
ENDBRANCH  20  21
ENDBRANCH  18  20
ENDBRANCH   2   5
TORSDOF 6
ENDMDL
MODEL 3
REMARK VINA RESULT: -8.682113620      2.777      5.406
REMARK  6 active torsions:
REMARK  status: ('A' for Active; 'I' for Inactive)
REMARK    1  A    between atoms: C2_2  and  C4_5 
REMARK    2  A    between atoms: C12_17  and  O5_18 
REMARK    3  A    between atoms: O5_18  and  C13_19 
REMARK    4  A    between atoms: C13_19  and  C14_21 
REMARK    5  A    between atoms: C14_21  and  C15_22 
REMARK    6  A    between atoms: C15_22  and  C16_23 
ROOT
HETATM    1  C1  UNL     1      11.773  20.144  45.404  1.00  0.00     0.033 C 
HETATM    2  C2  UNL     1      11.069  20.345  46.499  1.00  0.00     0.047 C 
HETATM    3  C3  UNL     1      10.834  21.705  46.904  1.00  0.00     0.097 C 
HETATM    4  N1  UNL     1      10.645  22.790  47.247  1.00  0.00    -0.192 NA
ENDROOT
BRANCH   2   5
HETATM    5  C4  UNL     1      10.573  19.181  47.231  1.00  0.00     0.235 C 
HETATM    6  O1  UNL     1       9.517  19.604  48.036  1.00  0.00    -0.339 OA
HETATM    7  C5  UNL     1       9.577  18.916  49.218  1.00  0.00     0.162 C 
HETATM    8  C6  UNL     1       8.421  17.907  49.208  1.00  0.00     0.078 C 
HETATM    9  C7  UNL     1       9.334  19.820  50.406  1.00  0.00     0.078 C 
HETATM   10  O2  UNL     1      10.744  18.210  49.296  1.00  0.00    -0.312 OA
HETATM   11  C8  UNL     1      11.523  18.550  48.172  1.00  0.00     0.234 C 
HETATM   12  O3  UNL     1      12.548  19.389  48.631  1.00  0.00    -0.275 OA
HETATM   13  C20 UNL     1      12.048  17.271  47.628  1.00  0.00     0.012 C 
HETATM   14  C9  UNL     1      13.680  18.873  49.200  1.00  0.00     0.272 C 
HETATM   15  O4  UNL     1      14.464  19.632  49.809  1.00  0.00    -0.264 OA
HETATM   16  C10 UNL     1      13.970  17.451  49.095  1.00  0.00     0.139 C 
HETATM   17  C11 UNL     1      13.803  16.710  50.412  1.00  0.00     0.027 C 
HETATM   18  C12 UNL     1      13.188  16.749  48.052  1.00  0.00     0.077 C 
HETATM   19  C21 UNL     1      11.254  16.556  46.568  1.00  0.00     0.052 C 
BRANCH  18  20
HETATM   20  O5  UNL     1      13.701  15.557  47.560  1.00  0.00    -0.282 OA
BRANCH  20  21
HETATM   21  C13 UNL     1      14.821  15.542  46.719  1.00  0.00     0.264 C 
HETATM   22  O6  UNL     1      15.763  14.781  47.096  1.00  0.00    -0.265 OA
BRANCH  21  23
HETATM   23  C14 UNL     1      14.914  16.339  45.493  1.00  0.00     0.118 C 
BRANCH  23  24
HETATM   24  C15 UNL     1      14.540  15.468  44.321  1.00  0.00     0.075 C 
BRANCH  24  25
HETATM   25  C16 UNL     1      13.688  16.171  43.336  1.00  0.00     0.053 A 
HETATM   26  C17 UNL     1      12.802  17.187  43.641  1.00  0.00     0.034 A 
HETATM   27  C18 UNL     1      12.188  17.594  42.465  1.00  0.00     0.027 A 
HETATM   28  C19 UNL     1      12.754  16.775  41.489  1.00  0.00     0.142 A 
HETATM   29  O7  UNL     1      13.627  15.961  42.060  1.00  0.00    -0.327 OA
ENDBRANCH  24  25
ENDBRANCH  23  24
ENDBRANCH  21  23
ENDBRANCH  20  21
ENDBRANCH  18  20
ENDBRANCH   2   5
TORSDOF 6
ENDMDL
MODEL 4
REMARK VINA RESULT: -8.512207619      1.650      1.984
REMARK  6 active torsions:
REMARK  status: ('A' for Active; 'I' for Inactive)
REMARK    1  A    between atoms: C2_2  and  C4_5 
REMARK    2  A    between atoms: C12_17  and  O5_18 
REMARK    3  A    between atoms: O5_18  and  C13_19 
REMARK    4  A    between atoms: C13_19  and  C14_21 
REMARK    5  A    between atoms: C14_21  and  C15_22 
REMARK    6  A    between atoms: C15_22  and  C16_23 
ROOT
HETATM    1  C1  UNL     1       9.971  19.587  52.977  1.00  0.00     0.033 C 
HETATM    2  C2  UNL     1       9.407  20.656  52.451  1.00  0.00     0.047 C 
HETATM    3  C3  UNL     1       8.114  21.042  52.945  1.00  0.00     0.097 C 
HETATM    4  N1  UNL     1       7.072  21.360  53.325  1.00  0.00    -0.192 NA
ENDROOT
BRANCH   2   5
HETATM    5  C4  UNL     1      10.128  21.376  51.403  1.00  0.00     0.235 C 
HETATM    6  O1  UNL     1       9.420  22.546  51.130  1.00  0.00    -0.339 OA
HETATM    7  C5  UNL     1       9.494  22.786  49.784  1.00  0.00     0.162 C 
HETATM    8  C6  UNL     1      10.434  23.984  49.594  1.00  0.00     0.078 C 
HETATM    9  C7  UNL     1       8.157  23.209  49.217  1.00  0.00     0.078 C 
HETATM   10  O2  UNL     1      10.047  21.716  49.141  1.00  0.00    -0.312 OA
HETATM   11  C8  UNL     1      10.230  20.695  50.095  1.00  0.00     0.234 C 
HETATM   12  O3  UNL     1       9.240  19.732  49.849  1.00  0.00    -0.275 OA
HETATM   13  C20 UNL     1      11.598  20.159  49.874  1.00  0.00     0.012 C 
HETATM   14  C9  UNL     1       9.404  18.786  48.875  1.00  0.00     0.272 C 
HETATM   15  O4  UNL     1       8.425  18.096  48.517  1.00  0.00    -0.264 OA
HETATM   16  C10 UNL     1      10.708  18.583  48.262  1.00  0.00     0.139 C 
HETATM   17  C11 UNL     1      10.773  19.078  46.825  1.00  0.00     0.027 C 
HETATM   18  C12 UNL     1      11.832  19.175  49.021  1.00  0.00     0.077 C 
HETATM   19  C21 UNL     1      12.743  20.761  50.644  1.00  0.00     0.052 C 
BRANCH  18  20
HETATM   20  O5  UNL     1      13.100  18.657  48.797  1.00  0.00    -0.282 OA
BRANCH  20  21
HETATM   21  C13 UNL     1      13.381  17.304  49.027  1.00  0.00     0.264 C 
HETATM   22  O6  UNL     1      13.094  16.888  50.190  1.00  0.00    -0.265 OA
BRANCH  21  23
HETATM   23  C14 UNL     1      13.965  16.423  48.012  1.00  0.00     0.118 C 
BRANCH  23  24
HETATM   24  C15 UNL     1      12.878  15.999  47.058  1.00  0.00     0.075 C 
BRANCH  24  25
HETATM   25  C16 UNL     1      13.304  16.062  45.642  1.00  0.00     0.053 A 
HETATM   26  C17 UNL     1      12.615  16.718  44.639  1.00  0.00     0.034 A 
HETATM   27  C18 UNL     1      13.318  16.558  43.454  1.00  0.00     0.027 A 
HETATM   28  C19 UNL     1      14.424  15.790  43.820  1.00  0.00     0.142 A 
HETATM   29  O7  UNL     1      14.361  15.531  45.116  1.00  0.00    -0.327 OA
ENDBRANCH  24  25
ENDBRANCH  23  24
ENDBRANCH  21  23
ENDBRANCH  20  21
ENDBRANCH  18  20
ENDBRANCH   2   5
TORSDOF 6
ENDMDL
MODEL 5
REMARK VINA RESULT: -8.419889887      2.735      4.722
REMARK  6 active torsions:
REMARK  status: ('A' for Active; 'I' for Inactive)
REMARK    1  A    between atoms: C2_2  and  C4_5 
REMARK    2  A    between atoms: C12_17  and  O5_18 
REMARK    3  A    between atoms: O5_18  and  C13_19 
REMARK    4  A    between atoms: C13_19  and  C14_21 
REMARK    5  A    between atoms: C14_21  and  C15_22 
REMARK    6  A    between atoms: C15_22  and  C16_23 
ROOT
HETATM    1  C1  UNL     1      10.731  21.675  47.273  1.00  0.00     0.033 C 
HETATM    2  C2  UNL     1      10.496  21.783  48.565  1.00  0.00     0.047 C 
HETATM    3  C3  UNL     1      10.581  23.091  49.154  1.00  0.00     0.097 C 
HETATM    4  N1  UNL     1      10.656  24.133  49.644  1.00  0.00    -0.192 NA
ENDROOT
BRANCH   2   5
HETATM    5  C4  UNL     1      10.165  20.572  49.313  1.00  0.00     0.235 C 
HETATM    6  O1  UNL     1       9.729  20.962  50.579  1.00  0.00    -0.339 OA
HETATM    7  C5  UNL     1      10.188  20.048  51.490  1.00  0.00     0.162 C 
HETATM    8  C6  UNL     1       8.976  19.226  51.948  1.00  0.00     0.078 C 
HETATM    9  C7  UNL     1      10.732  20.720  52.731  1.00  0.00     0.078 C 
HETATM   10  O2  UNL     1      11.072  19.192  50.898  1.00  0.00    -0.312 OA
HETATM   11  C8  UNL     1      11.285  19.644  49.580  1.00  0.00     0.234 C 
HETATM   12  O3  UNL     1      12.558  20.229  49.555  1.00  0.00    -0.275 OA
HETATM   13  C20 UNL     1      11.204  18.442  48.711  1.00  0.00     0.012 C 
HETATM   14  C9  UNL     1      13.684  19.464  49.423  1.00  0.00     0.272 C 
HETATM   15  O4  UNL     1      14.804  19.973  49.639  1.00  0.00    -0.264 OA
HETATM   16  C10 UNL     1      13.577  18.065  49.033  1.00  0.00     0.139 C 
HETATM   17  C11 UNL     1      13.893  17.105  50.168  1.00  0.00     0.027 C 
HETATM   18  C12 UNL     1      12.267  17.698  48.449  1.00  0.00     0.077 C 
HETATM   19  C21 UNL     1       9.873  18.066  48.118  1.00  0.00     0.052 C 
BRANCH  18  20
HETATM   20  O5  UNL     1      12.220  16.572  47.641  1.00  0.00    -0.282 OA
BRANCH  20  21
HETATM   21  C13 UNL     1      13.251  16.283  46.737  1.00  0.00     0.264 C 
HETATM   22  O6  UNL     1      13.914  15.234  46.999  1.00  0.00    -0.265 OA
BRANCH  21  23
HETATM   23  C14 UNL     1      13.554  17.120  45.574  1.00  0.00     0.118 C 
BRANCH  23  24
HETATM   24  C15 UNL     1      13.718  16.230  44.368  1.00  0.00     0.075 C 
BRANCH  24  25
HETATM   25  C16 UNL     1      13.053  16.773  43.162  1.00  0.00     0.053 A 
HETATM   26  C17 UNL     1      12.134  17.807  43.165  1.00  0.00     0.034 A 
HETATM   27  C18 UNL     1      11.735  18.035  41.856  1.00  0.00     0.027 A 
HETATM   28  C19 UNL     1      12.456  17.098  41.116  1.00  0.00     0.142 A 
HETATM   29  O7  UNL     1      13.212  16.387  41.937  1.00  0.00    -0.327 OA
ENDBRANCH  24  25
ENDBRANCH  23  24
ENDBRANCH  21  23
ENDBRANCH  20  21
ENDBRANCH  18  20
ENDBRANCH   2   5
TORSDOF 6
ENDMDL
