MODEL 1
REMARK VINA RESULT: -4.181897560      0.000      0.000
REMARK  4 active torsions:
REMARK  status: ('A' for Active; 'I' for Inactive)
REMARK    1  A    between atoms: C5_6  and  O1_7 
REMARK    2  A    between atoms: C5_6  and  C6_9 
REMARK    3  A    between atoms: C7_11  and  O2_12 
REMARK    4  A    between atoms: C8_14  and  C10_18 
ROOT
HETATM    1  C1  UNL     1      23.563   3.962  21.805  1.00  0.00     0.033 C 
HETATM    2  C2  UNL     1      22.208   3.362  22.190  1.00  0.00     0.045 C 
HETATM    3 CL1  UNL     1      21.443   3.058  20.590  1.00  0.00    -0.119 Cl
HETATM    4  C3  UNL     1      21.501   4.461  22.947  1.00  0.00     0.029 C 
HETATM    5  C4  UNL     1      20.900   3.819  24.162  1.00  0.00     0.042 C 
HETATM    6  C5  UNL     1      21.489   2.465  24.330  1.00  0.00     0.090 C 
HETATM    7  C10 UNL     1      22.277   2.158  23.043  1.00  0.00     0.031 C 
HETATM    8  C11 UNL     1      23.666   1.683  23.351  1.00  0.00     0.022 C 
ENDROOT
BRANCH   7   9
HETATM    9  C8  UNL     1      21.431   0.992  22.567  1.00  0.00     0.072 C 
HETATM   10  C7  UNL     1      21.643  -0.070  23.663  1.00  0.00     0.163 C 
HETATM   11  C6  UNL     1      23.077  -0.045  23.102  1.00  0.00     0.092 C 
HETATM   12 BR1  UNL     1      24.170  -1.497  23.391  1.00  0.00    -0.078 Br
HETATM   13  C9  UNL     1      22.317   0.075  21.779  1.00  0.00     0.105 C 
HETATM   14 BR3  UNL     1      23.237   0.585  20.260  1.00  0.00    -0.087 Br
HETATM   15 BR2  UNL     1      19.689   1.313  22.004  1.00  0.00    -0.080 Br
BRANCH  10  16
HETATM   16  O2  UNL     1      20.957  -1.243  23.450  1.00  0.00    -0.392 OA
ATOM     17  H2  UNL     1      20.789  -1.757  24.232  1.00  0.00     0.210 HD
ENDBRANCH  10  16
ENDBRANCH   7   9
BRANCH   6  18
HETATM   18  O1  UNL     1      22.269   2.352  25.454  1.00  0.00    -0.387 OA
ATOM     19  H1  UNL     1      22.828   1.584  25.444  1.00  0.00     0.210 HD
ENDBRANCH   6  18
TORSDOF 4
ENDMDL
MODEL 2
REMARK VINA RESULT: -4.103417102      2.487      3.719
REMARK  4 active torsions:
REMARK  status: ('A' for Active; 'I' for Inactive)
REMARK    1  A    between atoms: C5_6  and  O1_7 
REMARK    2  A    between atoms: C5_6  and  C6_9 
REMARK    3  A    between atoms: C7_11  and  O2_12 
REMARK    4  A    between atoms: C8_14  and  C10_18 
ROOT
HETATM    1  C1  UNL     1      22.840   1.899  25.615  1.00  0.00     0.033 C 
HETATM    2  C2  UNL     1      21.982   1.211  24.550  1.00  0.00     0.045 C 
HETATM    3 CL1  UNL     1      20.518   2.256  24.487  1.00  0.00    -0.119 Cl
HETATM    4  C3  UNL     1      21.672  -0.150  25.126  1.00  0.00     0.029 C 
HETATM    5  C4  UNL     1      21.894  -1.139  24.020  1.00  0.00     0.042 C 
HETATM    6  C5  UNL     1      22.631  -0.467  22.918  1.00  0.00     0.090 C 
HETATM    7  C10 UNL     1      22.635   1.040  23.237  1.00  0.00     0.031 C 
HETATM    8  C11 UNL     1      24.015   1.618  23.139  1.00  0.00     0.022 C 
ENDROOT
BRANCH   7   9
HETATM    9  C8  UNL     1      21.805   1.494  22.050  1.00  0.00     0.072 C 
HETATM   10  C7  UNL     1      22.687   1.129  20.840  1.00  0.00     0.163 C 
HETATM   11  C6  UNL     1      23.589   2.219  21.449  1.00  0.00     0.092 C 
HETATM   12 BR1  UNL     1      24.826   3.053  20.370  1.00  0.00    -0.078 Br
HETATM   13  C9  UNL     1      22.234   2.886  21.697  1.00  0.00     0.105 C 
HETATM   14 BR3  UNL     1      22.140   4.319  22.859  1.00  0.00    -0.087 Br
HETATM   15 BR2  UNL     1      20.007   1.028  21.976  1.00  0.00    -0.080 Br
BRANCH  10  16
HETATM   16  O2  UNL     1      22.132   1.447  19.623  1.00  0.00    -0.392 OA
ATOM     17  H2  UNL     1      22.742   1.457  18.894  1.00  0.00     0.210 HD
ENDBRANCH  10  16
ENDBRANCH   7   9
BRANCH   6  18
HETATM   18  O1  UNL     1      23.899  -0.961  22.739  1.00  0.00    -0.387 OA
ATOM     19  H1  UNL     1      24.482  -0.345  22.311  1.00  0.00     0.210 HD
ENDBRANCH   6  18
TORSDOF 4
ENDMDL
MODEL 3
REMARK VINA RESULT: -4.088365476      1.171      1.249
REMARK  4 active torsions:
REMARK  status: ('A' for Active; 'I' for Inactive)
REMARK    1  A    between atoms: C5_6  and  O1_7 
REMARK    2  A    between atoms: C5_6  and  C6_9 
REMARK    3  A    between atoms: C7_11  and  O2_12 
REMARK    4  A    between atoms: C8_14  and  C10_18 
ROOT
HETATM    1  C1  UNL     1      24.220   2.664  21.376  1.00  0.00     0.033 C 
HETATM    2  C2  UNL     1      22.812   2.328  21.874  1.00  0.00     0.045 C 
HETATM    3 CL1  UNL     1      22.087   1.480  20.462  1.00  0.00    -0.119 Cl
HETATM    4  C3  UNL     1      22.159   3.667  22.117  1.00  0.00     0.029 C 
HETATM    5  C4  UNL     1      21.468   3.567  23.444  1.00  0.00     0.042 C 
HETATM    6  C5  UNL     1      21.950   2.348  24.145  1.00  0.00     0.090 C 
HETATM    7  C10 UNL     1      22.762   1.535  23.120  1.00  0.00     0.031 C 
HETATM    8  C11 UNL     1      24.100   1.139  23.668  1.00  0.00     0.022 C 
ENDROOT
BRANCH   7   9
HETATM    9  C8  UNL     1      21.852   0.322  23.066  1.00  0.00     0.072 C 
HETATM   10  C7  UNL     1      21.869  -0.199  24.516  1.00  0.00     0.163 C 
HETATM   11  C6  UNL     1      23.341  -0.483  24.162  1.00  0.00     0.092 C 
HETATM   12 BR1  UNL     1      24.263  -1.739  25.143  1.00  0.00    -0.078 Br
HETATM   13  C9  UNL     1      22.709  -0.884  22.827  1.00  0.00     0.105 C 
HETATM   14 BR3  UNL     1      23.797  -1.099  21.350  1.00  0.00    -0.087 Br
HETATM   15 BR2  UNL     1      20.201   0.470  22.223  1.00  0.00    -0.080 Br
BRANCH  10  16
HETATM   16  O2  UNL     1      21.094  -1.316  24.721  1.00  0.00    -0.392 OA
ATOM     17  H2  UNL     1      20.861  -1.482  25.628  1.00  0.00     0.210 HD
ENDBRANCH  10  16
ENDBRANCH   7   9
BRANCH   6  18
HETATM   18  O1  UNL     1      22.678   2.629  25.275  1.00  0.00    -0.387 OA
ATOM     19  H1  UNL     1      23.019   1.852  25.702  1.00  0.00     0.210 HD
ENDBRANCH   6  18
TORSDOF 4
ENDMDL
MODEL 4
REMARK VINA RESULT: -4.011067903      2.830      4.602
REMARK  4 active torsions:
REMARK  status: ('A' for Active; 'I' for Inactive)
REMARK    1  A    between atoms: C5_6  and  O1_7 
REMARK    2  A    between atoms: C5_6  and  C6_9 
REMARK    3  A    between atoms: C7_11  and  O2_12 
REMARK    4  A    between atoms: C8_14  and  C10_18 
ROOT
HETATM    1  C1  UNL     1      25.445   0.075  24.752  1.00  0.00     0.033 C 
HETATM    2  C2  UNL     1      24.297  -0.704  24.104  1.00  0.00     0.045 C 
HETATM    3 CL1  UNL     1      23.427  -1.381  25.527  1.00  0.00    -0.119 Cl
HETATM    4  C3  UNL     1      24.973  -1.786  23.296  1.00  0.00     0.029 C 
HETATM    5  C4  UNL     1      24.287  -1.808  21.962  1.00  0.00     0.042 C 
HETATM    6  C5  UNL     1      23.462  -0.580  21.826  1.00  0.00     0.090 C 
HETATM    7  C10 UNL     1      23.427   0.090  23.212  1.00  0.00     0.031 C 
HETATM    8  C11 UNL     1      23.775   1.546  23.127  1.00  0.00     0.022 C 
ENDROOT
BRANCH   7   9
HETATM    9  C8  UNL     1      21.940  -0.066  23.470  1.00  0.00     0.072 C 
HETATM   10  C7  UNL     1      21.295   0.669  22.279  1.00  0.00     0.163 C 
HETATM   11  C6  UNL     1      21.942   1.887  22.966  1.00  0.00     0.092 C 
HETATM   12 BR1  UNL     1      21.278   3.566  22.606  1.00  0.00    -0.078 Br
HETATM   13  C9  UNL     1      21.475   1.144  24.221  1.00  0.00     0.105 C 
HETATM   14 BR3  UNL     1      22.143   1.657  25.865  1.00  0.00    -0.087 Br
HETATM   15 BR2  UNL     1      21.272  -1.745  23.909  1.00  0.00    -0.080 Br
BRANCH  10  16
HETATM   16  O2  UNL     1      19.920   0.659  22.290  1.00  0.00    -0.392 OA
ATOM     17  H2  UNL     1      19.523   0.880  23.125  1.00  0.00     0.210 HD
ENDBRANCH  10  16
ENDBRANCH   7   9
BRANCH   6  18
HETATM   18  O1  UNL     1      23.919   0.271  20.852  1.00  0.00    -0.387 OA
ATOM     19  H1  UNL     1      23.249   0.513  20.223  1.00  0.00     0.210 HD
ENDBRANCH   6  18
TORSDOF 4
ENDMDL
MODEL 5
REMARK VINA RESULT: -3.935452238      2.253      3.287
REMARK  4 active torsions:
REMARK  status: ('A' for Active; 'I' for Inactive)
REMARK    1  A    between atoms: C5_6  and  O1_7 
REMARK    2  A    between atoms: C5_6  and  C6_9 
REMARK    3  A    between atoms: C7_11  and  O2_12 
REMARK    4  A    between atoms: C8_14  and  C10_18 
ROOT
HETATM    1  C1  UNL     1      20.456   2.577  25.141  1.00  0.00     0.033 C 
HETATM    2  C2  UNL     1      21.067   2.237  23.779  1.00  0.00     0.045 C 
HETATM    3 CL1  UNL     1      22.188   3.616  23.495  1.00  0.00    -0.119 Cl
HETATM    4  C3  UNL     1      19.903   2.257  22.818  1.00  0.00     0.029 C 
HETATM    5  C4  UNL     1      20.041   1.034  21.961  1.00  0.00     0.042 C 
HETATM    6  C5  UNL     1      21.042   0.126  22.578  1.00  0.00     0.090 C 
HETATM    7  C10 UNL     1      21.732   0.920  23.703  1.00  0.00     0.031 C 
HETATM    8  C11 UNL     1      21.750   0.148  24.988  1.00  0.00     0.022 C 
ENDROOT
BRANCH   7   9
HETATM    9  C8  UNL     1      23.125   0.944  23.101  1.00  0.00     0.072 C 
HETATM   10  C7  UNL     1      23.464  -0.550  22.932  1.00  0.00     0.163 C 
HETATM   11  C6  UNL     1      23.427  -0.505  24.472  1.00  0.00     0.092 C 
HETATM   12 BR1  UNL     1      24.313  -1.812  25.420  1.00  0.00    -0.078 Br
HETATM   13  C9  UNL     1      24.111   0.842  24.225  1.00  0.00     0.105 C 
HETATM   14 BR3  UNL     1      24.222   2.057  25.612  1.00  0.00    -0.087 Br
HETATM   15 BR2  UNL     1      23.467   2.072  21.664  1.00  0.00    -0.080 Br
BRANCH  10  16
HETATM   16  O2  UNL     1      24.704  -0.787  22.388  1.00  0.00    -0.392 OA
ATOM     17  H2  UNL     1      25.326  -0.076  22.482  1.00  0.00     0.210 HD
ENDBRANCH  10  16
ENDBRANCH   7   9
BRANCH   6  18
HETATM   18  O1  UNL     1      20.496  -1.048  23.035  1.00  0.00    -0.387 OA
ATOM     19  H1  UNL     1      21.104  -1.569  23.546  1.00  0.00     0.210 HD
ENDBRANCH   6  18
TORSDOF 4
ENDMDL
