MODEL 1
REMARK VINA RESULT: -6.978305462      0.000      0.000
REMARK  5 active torsions:
REMARK  status: ('A' for Active; 'I' for Inactive)
REMARK    1  A    between atoms: N1_1  and  C1_4 
REMARK    2  A    between atoms: C4_12  and  S1_13 
REMARK    3  A    between atoms: S1_13  and  C5_14 
REMARK    4  A    between atoms: C5_14  and  C6_15 
REMARK    5  A    between atoms: C9_20  and  N5_21 
ROOT
HETATM    1  S1  UNL     1       8.029 -10.599   9.303  1.00  0.00    -0.088 SA
ENDROOT
BRANCH   1   2
HETATM    2  C4  UNL     1       6.466  -9.750   9.147  1.00  0.00     0.146 A 
HETATM    3  N3  UNL     1       6.064  -8.586   9.685  1.00  0.00    -0.329 N 
HETATM    4  C3  UNL     1       4.784  -8.330   9.288  1.00  0.00     0.148 A 
ATOM      5  H3  UNL     1       6.626  -7.989  10.292  1.00  0.00     0.168 HD
HETATM    6  C2  UNL     1       3.899  -7.295   9.539  1.00  0.00     0.290 A 
HETATM    7  C14 UNL     1       4.393  -9.362   8.490  1.00  0.00     0.155 A 
HETATM    8  N2  UNL     1       2.664  -7.316   8.994  1.00  0.00    -0.154 N 
HETATM    9  O1  UNL     1       4.224  -6.330  10.269  1.00  0.00    -0.265 OA
HETATM   10  C1  UNL     1       2.284  -8.336   8.206  1.00  0.00     0.680 A 
ATOM     11  H2  UNL     1       2.015  -6.552   9.181  1.00  0.00     0.187 HD
HETATM   12  N9  UNL     1       3.156  -9.334   7.973  1.00  0.00    -0.174 N 
ATOM     13  H9  UNL     1       2.862 -10.106   7.374  1.00  0.00     0.186 HD
HETATM   14  N8  UNL     1       5.443 -10.224   8.415  1.00  0.00    -0.320 N 
ATOM     15  H8  UNL     1       5.452 -11.095   7.886  1.00  0.00     0.169 HD
BRANCH  10  16
HETATM   16  N1  UNL     1       1.102  -8.321   7.705  1.00  0.00    -0.234 N 
ATOM     17  H12 UNL     1       0.739  -7.527   7.178  1.00  0.00     0.174 HD
ATOM     18  H11 UNL     1       0.502  -9.135   7.840  1.00  0.00     0.174 HD
ENDBRANCH  10  16
ENDBRANCH   1   2
BRANCH   1  19
HETATM   19  C5  UNL     1       8.107 -11.322  10.949  1.00  0.00     0.140 C 
BRANCH  19  20
HETATM   20  C6  UNL     1       7.200 -10.669  11.915  1.00  0.00     0.037 A 
HETATM   21  C7  UNL     1       7.727  -9.747  12.797  1.00  0.00     0.044 A 
HETATM   22  C8  UNL     1       6.944  -9.090  13.733  1.00  0.00     0.108 A 
HETATM   23  N4  UNL     1       5.635  -9.401  13.737  1.00  0.00    -0.202 N 
HETATM   24  C9  UNL     1       5.074 -10.289  12.900  1.00  0.00     0.680 A 
ATOM     25  H4  UNL     1       5.033  -8.934  14.415  1.00  0.00     0.183 HD
HETATM   26  N7  UNL     1       5.880 -10.910  11.996  1.00  0.00    -0.195 N 
ATOM     27  H7  UNL     1       5.465 -11.587  11.355  1.00  0.00     0.184 HD
BRANCH  24  28
HETATM   28  N5  UNL     1       3.669 -10.583  12.947  1.00  0.00    -0.214 N 
HETATM   29  C10 UNL     1       3.208 -11.473  13.965  1.00  0.00     0.168 C 
HETATM   30  C11 UNL     1       1.802 -11.251  14.404  1.00  0.00     0.252 C 
HETATM   31  N6  UNL     1       1.005 -10.468  13.517  1.00  0.00    -0.072 N 
HETATM   32  C12 UNL     1       1.436 -10.706  12.131  1.00  0.00     0.252 C 
ATOM     33  H62 UNL     1       0.007 -10.637  13.645  1.00  0.00     0.277 HD
ATOM     34  H61 UNL     1       1.017  -9.478  13.761  1.00  0.00     0.277 HD
HETATM   35  C13 UNL     1       2.761  -9.987  11.982  1.00  0.00     0.168 C 
ENDBRANCH  24  28
ENDBRANCH  19  20
ENDBRANCH   1  19
TORSDOF 5
ENDMDL
MODEL 2
REMARK VINA RESULT: -6.973228837      1.578      1.948
REMARK  5 active torsions:
REMARK  status: ('A' for Active; 'I' for Inactive)
REMARK    1  A    between atoms: N1_1  and  C1_4 
REMARK    2  A    between atoms: C4_12  and  S1_13 
REMARK    3  A    between atoms: S1_13  and  C5_14 
REMARK    4  A    between atoms: C5_14  and  C6_15 
REMARK    5  A    between atoms: C9_20  and  N5_21 
ROOT
HETATM    1  S1  UNL     1       7.389  -9.068   8.879  1.00  0.00    -0.088 SA
ENDROOT
BRANCH   1   2
HETATM    2  C4  UNL     1       5.631  -9.104   8.563  1.00  0.00     0.146 A 
HETATM    3  N3  UNL     1       4.855 -10.120   8.146  1.00  0.00    -0.329 N 
HETATM    4  C3  UNL     1       3.567  -9.682   8.044  1.00  0.00     0.148 A 
ATOM      5  H3  UNL     1       5.177 -11.065   7.940  1.00  0.00     0.168 HD
HETATM    6  C2  UNL     1       2.382 -10.292   7.669  1.00  0.00     0.290 A 
HETATM    7  C14 UNL     1       3.554  -8.369   8.406  1.00  0.00     0.155 A 
HETATM    8  N2  UNL     1       1.232  -9.586   7.664  1.00  0.00    -0.154 N 
HETATM    9  O1  UNL     1       2.356 -11.498   7.330  1.00  0.00    -0.265 OA
HETATM   10  C1  UNL     1       1.224  -8.291   8.022  1.00  0.00     0.680 A 
ATOM     11  H2  UNL     1       0.361 -10.039   7.386  1.00  0.00     0.187 HD
HETATM   12  N9  UNL     1       2.385  -7.714   8.384  1.00  0.00    -0.174 N 
ATOM     13  H9  UNL     1       2.374  -6.730   8.655  1.00  0.00     0.186 HD
HETATM   14  N8  UNL     1       4.835  -8.034   8.722  1.00  0.00    -0.320 N 
ATOM     15  H8  UNL     1       5.142  -7.112   9.032  1.00  0.00     0.169 HD
BRANCH  10  16
HETATM   16  N1  UNL     1       0.111  -7.652   8.005  1.00  0.00    -0.234 N 
ATOM     17  H12 UNL     1      -0.424  -7.505   7.150  1.00  0.00     0.174 HD
ATOM     18  H11 UNL     1      -0.252  -7.276   8.881  1.00  0.00     0.174 HD
ENDBRANCH  10  16
ENDBRANCH   1   2
BRANCH   1  19
HETATM   19  C5  UNL     1       7.739 -10.226  10.212  1.00  0.00     0.140 C 
BRANCH  19  20
HETATM   20  C6  UNL     1       6.949  -9.962  11.433  1.00  0.00     0.037 A 
HETATM   21  C7  UNL     1       7.562  -9.321  12.490  1.00  0.00     0.044 A 
HETATM   22  C8  UNL     1       6.891  -9.037  13.670  1.00  0.00     0.108 A 
HETATM   23  N4  UNL     1       5.603  -9.422  13.729  1.00  0.00    -0.202 N 
HETATM   24  C9  UNL     1       4.962 -10.048  12.729  1.00  0.00     0.680 A 
ATOM     25  H4  UNL     1       5.083  -9.227  14.585  1.00  0.00     0.183 HD
HETATM   26  N7  UNL     1       5.658 -10.307  11.589  1.00  0.00    -0.195 N 
ATOM     27  H7  UNL     1       5.182 -10.781  10.822  1.00  0.00     0.184 HD
BRANCH  24  28
HETATM   28  N5  UNL     1       3.585 -10.437  12.846  1.00  0.00    -0.214 N 
HETATM   29  C10 UNL     1       3.233 -11.336  13.900  1.00  0.00     0.168 C 
HETATM   30  C11 UNL     1       1.837 -11.203  14.399  1.00  0.00     0.252 C 
HETATM   31  N6  UNL     1       0.947 -10.495  13.537  1.00  0.00    -0.072 N 
HETATM   32  C12 UNL     1       1.331 -10.731  12.137  1.00  0.00     0.252 C 
ATOM     33  H62 UNL     1      -0.029 -10.730  13.714  1.00  0.00     0.277 HD
ATOM     34  H61 UNL     1       0.901  -9.501  13.762  1.00  0.00     0.277 HD
HETATM   35  C13 UNL     1       2.595  -9.925  11.914  1.00  0.00     0.168 C 
ENDBRANCH  24  28
ENDBRANCH  19  20
ENDBRANCH   1  19
TORSDOF 5
ENDMDL
MODEL 3
REMARK VINA RESULT: -6.865287524      3.858      5.793
REMARK  5 active torsions:
REMARK  status: ('A' for Active; 'I' for Inactive)
REMARK    1  A    between atoms: N1_1  and  C1_4 
REMARK    2  A    between atoms: C4_12  and  S1_13 
REMARK    3  A    between atoms: S1_13  and  C5_14 
REMARK    4  A    between atoms: C5_14  and  C6_15 
REMARK    5  A    between atoms: C9_20  and  N5_21 
ROOT
HETATM    1  S1  UNL     1       4.225 -11.713  13.107  1.00  0.00    -0.088 SA
ENDROOT
BRANCH   1   2
HETATM    2  C4  UNL     1       3.643 -10.525  11.907  1.00  0.00     0.146 A 
HETATM    3  N3  UNL     1       4.056  -9.266  11.678  1.00  0.00    -0.329 N 
HETATM    4  C3  UNL     1       3.319  -8.736  10.659  1.00  0.00     0.148 A 
ATOM      5  H3  UNL     1       4.799  -8.785  12.183  1.00  0.00     0.168 HD
HETATM    6  C2  UNL     1       3.319  -7.504  10.027  1.00  0.00     0.290 A 
HETATM    7  C14 UNL     1       2.436  -9.691  10.257  1.00  0.00     0.155 A 
HETATM    8  N2  UNL     1       2.450  -7.261   9.023  1.00  0.00    -0.154 N 
HETATM    9  O1  UNL     1       4.117  -6.601  10.370  1.00  0.00    -0.265 OA
HETATM   10  C1  UNL     1       1.581  -8.207   8.629  1.00  0.00     0.680 A 
ATOM     11  H2  UNL     1       2.453  -6.352   8.559  1.00  0.00     0.187 HD
HETATM   12  N9  UNL     1       1.594  -9.398   9.254  1.00  0.00    -0.174 N 
ATOM     13  H9  UNL     1       0.932 -10.113   8.952  1.00  0.00     0.186 HD
HETATM   14  N8  UNL     1       2.653 -10.784  11.037  1.00  0.00    -0.320 N 
ATOM     15  H8  UNL     1       2.142 -11.664  10.972  1.00  0.00     0.169 HD
BRANCH  10  16
HETATM   16  N1  UNL     1       0.769  -7.940   7.671  1.00  0.00    -0.234 N 
ATOM     17  H12 UNL     1       0.265  -7.056   7.610  1.00  0.00     0.174 HD
ATOM     18  H11 UNL     1       0.623  -8.638   6.943  1.00  0.00     0.174 HD
ENDBRANCH  10  16
ENDBRANCH   1   2
BRANCH   1  19
HETATM   19  C5  UNL     1       5.932 -11.310  13.508  1.00  0.00     0.140 C 
BRANCH  19  20
HETATM   20  C6  UNL     1       6.732 -12.489  13.899  1.00  0.00     0.037 A 
HETATM   21  C7  UNL     1       6.103 -13.714  13.986  1.00  0.00     0.044 A 
HETATM   22  C8  UNL     1       6.781 -14.869  14.346  1.00  0.00     0.108 A 
HETATM   23  N4  UNL     1       8.093 -14.729  14.607  1.00  0.00    -0.202 N 
HETATM   24  C9  UNL     1       8.751 -13.562  14.537  1.00  0.00     0.680 A 
ATOM     25  H4  UNL     1       8.619 -15.561  14.875  1.00  0.00     0.183 HD
HETATM   26  N7  UNL     1       8.047 -12.453  14.179  1.00  0.00    -0.195 N 
ATOM     27  H7  UNL     1       8.536 -11.560  14.121  1.00  0.00     0.184 HD
BRANCH  24  28
HETATM   28  N5  UNL     1      10.155 -13.470  14.827  1.00  0.00    -0.214 N 
HETATM   29  C10 UNL     1      11.072 -13.948  13.840  1.00  0.00     0.168 C 
HETATM   30  C11 UNL     1      12.403 -13.280  13.843  1.00  0.00     0.252 C 
HETATM   31  N6  UNL     1      12.715 -12.553  15.030  1.00  0.00    -0.072 N 
HETATM   32  C12 UNL     1      12.091 -13.213  16.188  1.00  0.00     0.252 C 
ATOM     33  H62 UNL     1      13.720 -12.428  15.153  1.00  0.00     0.277 HD
ATOM     34  H61 UNL     1      12.454 -11.569  14.959  1.00  0.00     0.277 HD
HETATM   35  C13 UNL     1      10.610 -12.909  16.087  1.00  0.00     0.168 C 
ENDBRANCH  24  28
ENDBRANCH  19  20
ENDBRANCH   1  19
TORSDOF 5
ENDMDL
MODEL 4
REMARK VINA RESULT: -6.858961731      3.167      4.552
REMARK  5 active torsions:
REMARK  status: ('A' for Active; 'I' for Inactive)
REMARK    1  A    between atoms: N1_1  and  C1_4 
REMARK    2  A    between atoms: C4_12  and  S1_13 
REMARK    3  A    between atoms: S1_13  and  C5_14 
REMARK    4  A    between atoms: C5_14  and  C6_15 
REMARK    5  A    between atoms: C9_20  and  N5_21 
ROOT
HETATM    1  S1  UNL     1       2.059 -11.326  13.476  1.00  0.00    -0.088 SA
ENDROOT
BRANCH   1   2
HETATM    2  C4  UNL     1       2.170 -10.548  11.873  1.00  0.00     0.146 A 
HETATM    3  N3  UNL     1       2.553  -9.300  11.549  1.00  0.00    -0.329 N 
HETATM    4  C3  UNL     1       2.479  -9.149  10.195  1.00  0.00     0.148 A 
ATOM      5  H3  UNL     1       2.850  -8.582  12.210  1.00  0.00     0.168 HD
HETATM    6  C2  UNL     1       2.750  -8.095   9.340  1.00  0.00     0.290 A 
HETATM    7  C14 UNL     1       2.042 -10.330   9.678  1.00  0.00     0.155 A 
HETATM    8  N2  UNL     1       2.579  -8.244   8.009  1.00  0.00    -0.154 N 
HETATM    9  O1  UNL     1       3.154  -6.993   9.780  1.00  0.00    -0.265 OA
HETATM   10  C1  UNL     1       2.147  -9.412   7.504  1.00  0.00     0.680 A 
ATOM     11  H2  UNL     1       2.779  -7.464   7.382  1.00  0.00     0.187 HD
HETATM   12  N9  UNL     1       1.889 -10.426   8.349  1.00  0.00    -0.174 N 
ATOM     13  H9  UNL     1       1.562 -11.311   7.961  1.00  0.00     0.186 HD
HETATM   14  N8  UNL     1       1.858 -11.177  10.727  1.00  0.00    -0.320 N 
ATOM     15  H8  UNL     1       1.534 -12.141  10.655  1.00  0.00     0.169 HD
BRANCH  10  16
HETATM   16  N1  UNL     1       1.997  -9.517   6.233  1.00  0.00    -0.234 N 
ATOM     17  H12 UNL     1       2.721  -9.240   5.571  1.00  0.00     0.174 HD
ATOM     18  H11 UNL     1       1.120  -9.891   5.873  1.00  0.00     0.174 HD
ENDBRANCH  10  16
ENDBRANCH   1   2
BRANCH   1  19
HETATM   19  C5  UNL     1       3.212 -10.494  14.580  1.00  0.00     0.140 C 
BRANCH  19  20
HETATM   20  C6  UNL     1       4.627 -10.735  14.231  1.00  0.00     0.037 A 
HETATM   21  C7  UNL     1       5.371  -9.687  13.727  1.00  0.00     0.044 A 
HETATM   22  C8  UNL     1       6.704  -9.830  13.376  1.00  0.00     0.108 A 
HETATM   23  N4  UNL     1       7.238 -11.053  13.554  1.00  0.00    -0.202 N 
HETATM   24  C9  UNL     1       6.557 -12.103  14.040  1.00  0.00     0.680 A 
ATOM     25  H4  UNL     1       8.217 -11.189  13.304  1.00  0.00     0.183 HD
HETATM   26  N7  UNL     1       5.251 -11.918  14.372  1.00  0.00    -0.195 N 
ATOM     27  H7  UNL     1       4.724 -12.709  14.743  1.00  0.00     0.184 HD
BRANCH  24  28
HETATM   28  N5  UNL     1       7.177 -13.387  14.209  1.00  0.00    -0.214 N 
HETATM   29  C10 UNL     1       6.378 -14.450  14.734  1.00  0.00     0.168 C 
HETATM   30  C11 UNL     1       6.782 -15.814  14.297  1.00  0.00     0.252 C 
HETATM   31  N6  UNL     1       8.096 -15.914  13.750  1.00  0.00    -0.072 N 
HETATM   32  C12 UNL     1       8.976 -14.935  14.407  1.00  0.00     0.252 C 
ATOM     33  H62 UNL     1       8.466 -16.862  13.805  1.00  0.00     0.277 HD
ATOM     34  H61 UNL     1       8.099 -15.815  12.735  1.00  0.00     0.277 HD
HETATM   35  C13 UNL     1       8.573 -13.582  13.856  1.00  0.00     0.168 C 
ENDBRANCH  24  28
ENDBRANCH  19  20
ENDBRANCH   1  19
TORSDOF 5
ENDMDL
MODEL 5
REMARK VINA RESULT: -6.826590177      4.199      5.468
REMARK  5 active torsions:
REMARK  status: ('A' for Active; 'I' for Inactive)
REMARK    1  A    between atoms: N1_1  and  C1_4 
REMARK    2  A    between atoms: C4_12  and  S1_13 
REMARK    3  A    between atoms: S1_13  and  C5_14 
REMARK    4  A    between atoms: C5_14  and  C6_15 
REMARK    5  A    between atoms: C9_20  and  N5_21 
ROOT
HETATM    1  S1  UNL     1       4.441 -11.705  12.941  1.00  0.00    -0.088 SA
ENDROOT
BRANCH   1   2
HETATM    2  C4  UNL     1       3.789 -10.508  11.787  1.00  0.00     0.146 A 
HETATM    3  N3  UNL     1       4.156  -9.232  11.576  1.00  0.00    -0.329 N 
HETATM    4  C3  UNL     1       3.375  -8.702  10.591  1.00  0.00     0.148 A 
ATOM      5  H3  UNL     1       4.899  -8.739  12.072  1.00  0.00     0.168 HD
HETATM    6  C2  UNL     1       3.319  -7.457   9.988  1.00  0.00     0.290 A 
HETATM    7  C14 UNL     1       2.510  -9.675  10.190  1.00  0.00     0.155 A 
HETATM    8  N2  UNL     1       2.414  -7.218   9.015  1.00  0.00    -0.154 N 
HETATM    9  O1  UNL     1       4.099  -6.537  10.331  1.00  0.00    -0.265 OA
HETATM   10  C1  UNL     1       1.564  -8.181   8.623  1.00  0.00     0.680 A 
ATOM     11  H2  UNL     1       2.377  -6.299   8.573  1.00  0.00     0.187 HD
HETATM   12  N9  UNL     1       1.632  -9.386   9.219  1.00  0.00    -0.174 N 
ATOM     13  H9  UNL     1       0.984 -10.114   8.918  1.00  0.00     0.186 HD
HETATM   14  N8  UNL     1       2.783 -10.778  10.939  1.00  0.00    -0.320 N 
ATOM     15  H8  UNL     1       2.298 -11.672  10.867  1.00  0.00     0.169 HD
BRANCH  10  16
HETATM   16  N1  UNL     1       0.718  -7.918   7.694  1.00  0.00    -0.234 N 
ATOM     17  H12 UNL     1       0.443  -6.965   7.458  1.00  0.00     0.174 HD
ATOM     18  H11 UNL     1       0.305  -8.691   7.173  1.00  0.00     0.174 HD
ENDBRANCH  10  16
ENDBRANCH   1   2
BRANCH   1  19
HETATM   19  C5  UNL     1       5.606 -12.753  12.057  1.00  0.00     0.140 C 
BRANCH  19  20
HETATM   20  C6  UNL     1       6.828 -13.048  12.834  1.00  0.00     0.037 A 
HETATM   21  C7  UNL     1       7.549 -11.993  13.356  1.00  0.00     0.044 A 
HETATM   22  C8  UNL     1       8.706 -12.185  14.097  1.00  0.00     0.108 A 
HETATM   23  N4  UNL     1       9.090 -13.461  14.279  1.00  0.00    -0.202 N 
HETATM   24  C9  UNL     1       8.425 -14.520  13.793  1.00  0.00     0.680 A 
ATOM     25  H4  UNL     1       9.938 -13.633  14.820  1.00  0.00     0.183 HD
HETATM   26  N7  UNL     1       7.294 -14.287  13.072  1.00  0.00    -0.195 N 
ATOM     27  H7  UNL     1       6.779 -15.084  12.698  1.00  0.00     0.184 HD
BRANCH  24  28
HETATM   28  N5  UNL     1       8.880 -15.863  14.019  1.00  0.00    -0.214 N 
HETATM   29  C10 UNL     1      10.031 -16.047  14.847  1.00  0.00     0.168 C 
HETATM   30  C11 UNL     1      10.080 -17.344  15.575  1.00  0.00     0.252 C 
HETATM   31  N6  UNL     1       9.208 -18.356  15.075  1.00  0.00    -0.072 N 
HETATM   32  C12 UNL     1       9.065 -18.203  13.619  1.00  0.00     0.252 C 
ATOM     33  H62 UNL     1       9.515 -19.293  15.335  1.00  0.00     0.277 HD
ATOM     34  H61 UNL     1       8.307 -18.360  15.553  1.00  0.00     0.277 HD
HETATM   35  C13 UNL     1       8.183 -16.987  13.417  1.00  0.00     0.168 C 
ENDBRANCH  24  28
ENDBRANCH  19  20
ENDBRANCH   1  19
TORSDOF 5
ENDMDL
