MODEL 1
REMARK VINA RESULT: -4.392159246      0.000      0.000
REMARK  2 active torsions:
REMARK  status: ('A' for Active; 'I' for Inactive)
REMARK    1  A    between atoms: C5_6  and  O1_8 
REMARK    2  A    between atoms: O1_8  and  C7_9 
ROOT
HETATM    1  C1  UNL     1      21.144  -2.262  23.797  1.00  0.00     0.020 C 
HETATM    2  C2  UNL     1      21.682  -1.184  23.261  1.00  0.00    -0.052 C 
HETATM    3  C3  UNL     1      20.638  -0.309  22.740  1.00  0.00     0.030 C 
HETATM    4  C4  UNL     1      20.519   0.982  22.663  1.00  0.00     0.048 C 
HETATM    5 CL1  UNL     1      18.992   1.413  21.911  1.00  0.00    -0.086 Cl
HETATM    6  C5  UNL     1      21.242   2.232  23.004  1.00  0.00     0.118 C 
HETATM    7  C6  UNL     1      21.359   2.926  21.653  1.00  0.00     0.054 C 
HETATM    8  C8  UNL     1      22.650   2.091  23.465  1.00  0.00     0.112 C 
HETATM    9 BR1  UNL     1      23.937   2.068  22.018  1.00  0.00    -0.086 Br
HETATM   10  C9  UNL     1      22.910   1.061  24.503  1.00  0.00     0.077 C 
HETATM   11 BR2  UNL     1      23.737   1.851  26.097  1.00  0.00    -0.090 Br
HETATM   12  C10 UNL     1      23.791  -0.053  24.056  1.00  0.00     0.037 C 
HETATM   13  C11 UNL     1      23.129  -1.144  23.316  1.00  0.00     0.091 C 
HETATM   14 BR3  UNL     1      23.928  -1.447  21.547  1.00  0.00    -0.086 Br
ENDROOT
BRANCH   6  15
HETATM   15  O1  UNL     1      20.498   2.843  23.970  1.00  0.00    -0.307 OA
BRANCH  15  16
HETATM   16  C7  UNL     1      20.617   4.064  24.500  1.00  0.00     0.226 C 
HETATM   17  N1  UNL     1      20.990   4.195  25.680  1.00  0.00    -0.368 N 
ATOM     18  H12 UNL     1      21.190   3.342  26.202  1.00  0.00     0.159 HD
ATOM     19  H11 UNL     1      21.079   5.127  26.084  1.00  0.00     0.159 HD
HETATM   20  N2  UNL     1      20.330   5.281  23.755  1.00  0.00    -0.057 NA
ENDBRANCH  15  16
ENDBRANCH   6  15
TORSDOF 2
ENDMDL
MODEL 2
REMARK VINA RESULT: -4.137760987      6.482      7.619
REMARK  2 active torsions:
REMARK  status: ('A' for Active; 'I' for Inactive)
REMARK    1  A    between atoms: C5_6  and  O1_8 
REMARK    2  A    between atoms: O1_8  and  C7_9 
ROOT
HETATM    1  C1  UNL     1      24.357   1.845  22.349  1.00  0.00     0.020 C 
HETATM    2  C2  UNL     1      24.264   2.215  21.087  1.00  0.00    -0.052 C 
HETATM    3  C3  UNL     1      25.518   2.811  20.644  1.00  0.00     0.030 C 
HETATM    4  C4  UNL     1      26.153   2.807  19.511  1.00  0.00     0.048 C 
HETATM    5 CL1  UNL     1      27.639   3.733  19.636  1.00  0.00    -0.086 Cl
HETATM    6  C5  UNL     1      26.049   2.272  18.130  1.00  0.00     0.118 C 
HETATM    7  C6  UNL     1      26.098   3.537  17.282  1.00  0.00     0.054 C 
HETATM    8  C8  UNL     1      24.763   1.628  17.753  1.00  0.00     0.112 C 
HETATM    9 BR1  UNL     1      23.445   2.875  17.073  1.00  0.00    -0.086 Br
HETATM   10  C9  UNL     1      24.203   0.645  18.715  1.00  0.00     0.077 C 
HETATM   11 BR2  UNL     1      23.939  -1.106  17.870  1.00  0.00    -0.090 Br
HETATM   12  C10 UNL     1      22.901   1.045  19.316  1.00  0.00     0.037 C 
HETATM   13  C11 UNL     1      22.976   1.952  20.478  1.00  0.00     0.091 C 
HETATM   14 BR3  UNL     1      21.953   3.607  20.206  1.00  0.00    -0.086 Br
ENDROOT
BRANCH   6  15
HETATM   15  O1  UNL     1      27.071   1.378  17.997  1.00  0.00    -0.307 OA
BRANCH  15  16
HETATM   16  C7  UNL     1      27.750   1.008  16.908  1.00  0.00     0.226 C 
HETATM   17  N1  UNL     1      27.236   0.219  16.094  1.00  0.00    -0.368 N 
ATOM     18  H12 UNL     1      26.297  -0.119  16.304  1.00  0.00     0.159 HD
ATOM     19  H11 UNL     1      27.755  -0.063  15.263  1.00  0.00     0.159 HD
HETATM   20  N2  UNL     1      29.090   1.490  16.610  1.00  0.00    -0.057 NA
ENDBRANCH  15  16
ENDBRANCH   6  15
TORSDOF 2
ENDMDL
MODEL 3
REMARK VINA RESULT: -3.929875883      2.492      3.050
REMARK  2 active torsions:
REMARK  status: ('A' for Active; 'I' for Inactive)
REMARK    1  A    between atoms: C5_6  and  O1_8 
REMARK    2  A    between atoms: O1_8  and  C7_9 
ROOT
HETATM    1  C1  UNL     1      25.096   0.545  24.785  1.00  0.00     0.020 C 
HETATM    2  C2  UNL     1      23.948   0.728  24.162  1.00  0.00    -0.052 C 
HETATM    3  C3  UNL     1      22.898   1.037  25.125  1.00  0.00     0.030 C 
HETATM    4  C4  UNL     1      21.851   1.805  25.082  1.00  0.00     0.048 C 
HETATM    5 CL1  UNL     1      20.974   1.733  26.601  1.00  0.00    -0.086 Cl
HETATM    6  C5  UNL     1      21.139   2.738  24.174  1.00  0.00     0.118 C 
HETATM    7  C6  UNL     1      19.749   2.122  24.090  1.00  0.00     0.054 C 
HETATM    8  C8  UNL     1      21.603   2.788  22.761  1.00  0.00     0.112 C 
HETATM    9 BR1  UNL     1      20.752   1.470  21.623  1.00  0.00    -0.086 Br
HETATM   10  C9  UNL     1      23.068   2.896  22.544  1.00  0.00     0.077 C 
HETATM   11 BR2  UNL     1      23.513   4.484  21.481  1.00  0.00    -0.090 Br
HETATM   12  C10 UNL     1      23.677   1.723  21.860  1.00  0.00     0.037 C 
HETATM   13  C11 UNL     1      24.015   0.575  22.723  1.00  0.00     0.091 C 
HETATM   14 BR3  UNL     1      23.153  -1.089  22.133  1.00  0.00    -0.086 Br
ENDROOT
BRANCH   6  15
HETATM   15  O1  UNL     1      21.254   3.973  24.742  1.00  0.00    -0.307 OA
BRANCH  15  16
HETATM   16  C7  UNL     1      20.482   5.055  24.605  1.00  0.00     0.226 C 
HETATM   17  N1  UNL     1      20.731   5.886  23.713  1.00  0.00    -0.368 N 
ATOM     18  H12 UNL     1      21.535   5.700  23.114  1.00  0.00     0.159 HD
ATOM     19  H11 UNL     1      20.142   6.712  23.609  1.00  0.00     0.159 HD
HETATM   20  N2  UNL     1      19.335   5.322  25.460  1.00  0.00    -0.057 NA
ENDBRANCH  15  16
ENDBRANCH   6  15
TORSDOF 2
ENDMDL
MODEL 4
REMARK VINA RESULT: -3.882959310      3.483      4.790
REMARK  2 active torsions:
REMARK  status: ('A' for Active; 'I' for Inactive)
REMARK    1  A    between atoms: C5_6  and  O1_8 
REMARK    2  A    between atoms: O1_8  and  C7_9 
ROOT
HETATM    1  C1  UNL     1      21.346   4.167  22.362  1.00  0.00     0.020 C 
HETATM    2  C2  UNL     1      21.483   2.862  22.490  1.00  0.00    -0.052 C 
HETATM    3  C3  UNL     1      22.648   2.404  21.742  1.00  0.00     0.030 C 
HETATM    4  C4  UNL     1      23.524   1.467  21.948  1.00  0.00     0.048 C 
HETATM    5 CL1  UNL     1      24.698   1.427  20.643  1.00  0.00    -0.086 Cl
HETATM    6  C5  UNL     1      23.876   0.409  22.928  1.00  0.00     0.118 C 
HETATM    7  C6  UNL     1      23.853  -0.852  22.075  1.00  0.00     0.054 C 
HETATM    8  C8  UNL     1      22.890   0.138  24.009  1.00  0.00     0.112 C 
HETATM    9 BR1  UNL     1      21.538  -1.159  23.512  1.00  0.00    -0.086 Br
HETATM   10  C9  UNL     1      22.340   1.319  24.721  1.00  0.00     0.077 C 
HETATM   11 BR2  UNL     1      22.675   1.205  26.651  1.00  0.00    -0.090 Br
HETATM   12  C10 UNL     1      20.877   1.521  24.538  1.00  0.00     0.037 C 
HETATM   13  C11 UNL     1      20.470   2.229  23.309  1.00  0.00     0.091 C 
HETATM   14 BR3  UNL     1      19.210   1.184  22.223  1.00  0.00    -0.086 Br
ENDROOT
BRANCH   6  15
HETATM   15  O1  UNL     1      25.067   0.786  23.473  1.00  0.00    -0.307 OA
BRANCH  15  16
HETATM   16  C7  UNL     1      25.810   0.188  24.409  1.00  0.00     0.226 C 
HETATM   17  N1  UNL     1      26.226  -0.971  24.223  1.00  0.00    -0.368 N 
ATOM     18  H12 UNL     1      25.971  -1.421  23.345  1.00  0.00     0.159 HD
ATOM     19  H11 UNL     1      26.793  -1.428  24.937  1.00  0.00     0.159 HD
HETATM   20  N2  UNL     1      26.173   0.831  25.663  1.00  0.00    -0.057 NA
ENDBRANCH  15  16
ENDBRANCH   6  15
TORSDOF 2
ENDMDL
MODEL 5
REMARK VINA RESULT: -3.879274641      3.364      4.638
REMARK  2 active torsions:
REMARK  status: ('A' for Active; 'I' for Inactive)
REMARK    1  A    between atoms: C5_6  and  O1_8 
REMARK    2  A    between atoms: O1_8  and  C7_9 
ROOT
HETATM    1  C1  UNL     1      24.291   1.855  26.464  1.00  0.00     0.020 C 
HETATM    2  C2  UNL     1      23.490   1.079  25.761  1.00  0.00    -0.052 C 
HETATM    3  C3  UNL     1      22.872   1.840  24.682  1.00  0.00     0.030 C 
HETATM    4  C4  UNL     1      22.521   1.537  23.469  1.00  0.00     0.048 C 
HETATM    5 CL1  UNL     1      21.814   2.931  22.669  1.00  0.00    -0.086 Cl
HETATM    6  C5  UNL     1      22.521   0.400  22.516  1.00  0.00     0.118 C 
HETATM    7  C6  UNL     1      21.045   0.264  22.163  1.00  0.00     0.054 C 
HETATM    8  C8  UNL     1      22.891  -0.935  23.060  1.00  0.00     0.112 C 
HETATM    9 BR1  UNL     1      21.388  -1.911  23.797  1.00  0.00    -0.086 Br
HETATM   10  C9  UNL     1      24.106  -0.993  23.911  1.00  0.00     0.077 C 
HETATM   11 BR2  UNL     1      25.418  -2.262  23.192  1.00  0.00    -0.090 Br
HETATM   12  C10 UNL     1      23.849  -1.380  25.326  1.00  0.00     0.037 C 
HETATM   13  C11 UNL     1      23.422  -0.291  26.226  1.00  0.00     0.091 C 
HETATM   14 BR3  UNL     1      21.707  -0.672  27.104  1.00  0.00    -0.086 Br
ENDROOT
BRANCH   6  15
HETATM   15  O1  UNL     1      23.383   0.747  21.518  1.00  0.00    -0.307 OA
BRANCH  15  16
HETATM   16  C7  UNL     1      23.408   0.371  20.236  1.00  0.00     0.226 C 
HETATM   17  N1  UNL     1      22.912   1.108  19.364  1.00  0.00    -0.368 N 
ATOM     18  H12 UNL     1      22.496   1.985  19.677  1.00  0.00     0.159 HD
ATOM     19  H11 UNL     1      22.930   0.821  18.386  1.00  0.00     0.159 HD
HETATM   20  N2  UNL     1      24.000  -0.881  19.789  1.00  0.00    -0.057 NA
ENDBRANCH  15  16
ENDBRANCH   6  15
TORSDOF 2
ENDMDL
