MODEL 1
REMARK VINA RESULT: -8.577146857      0.000      0.000
REMARK  5 active torsions:
REMARK  status: ('A' for Active; 'I' for Inactive)
REMARK       I    between atoms: C1_4  and  N3_6 
REMARK    1  A    between atoms: N3_6  and  C2_8 
REMARK    2  A    between atoms: N6_15  and  C4_16 
REMARK    3  A    between atoms: C4_16  and  C5_17 
REMARK    4  A    between atoms: C5_17  and  C6_18 
REMARK    5  A    between atoms: C5_17  and  C7_21 
REMARK       I    between atoms: C7_21  and  N8_23 
ROOT
HETATM    1  C2  UNL     1      24.654  59.518 -31.086  1.00  0.00     0.705 A 
HETATM    2  N4  UNL     1      24.973  60.835 -31.234  1.00  0.00    -0.128 N 
ATOM      3  H4  UNL     1      24.734  61.579 -30.578  1.00  0.00     0.205 HD
HETATM    4  N5  UNL     1      25.637  60.994 -32.353  1.00  0.00    -0.236 N 
ATOM      5  H5  UNL     1      25.994  61.882 -32.703  1.00  0.00     0.192 HD
HETATM    6  C3  UNL     1      25.773  59.817 -32.962  1.00  0.00     0.355 A 
HETATM    7  O1  UNL     1      26.356  59.587 -34.063  1.00  0.00    -0.244 OA
HETATM    8  N6  UNL     1      25.151  58.898 -32.151  1.00  0.00    -0.129 N 
ENDROOT
BRANCH   8   9
HETATM    9  C4  UNL     1      25.133  57.504 -32.448  1.00  0.00     0.176 C 
BRANCH   9  10
HETATM   10  C5  UNL     1      24.152  56.955 -33.385  1.00  0.00     0.186 C 
BRANCH  10  11
HETATM   11  C6  UNL     1      23.418  57.797 -34.309  1.00  0.00     0.246 C 
HETATM   12  N7  UNL     1      22.330  58.562 -33.715  1.00  0.00    -0.061 NA
HETATM   13  O2  UNL     1      23.657  57.893 -35.508  1.00  0.00    -0.276 OA
ENDBRANCH  10  11
BRANCH  10  14
HETATM   14  C7  UNL     1      24.899  55.938 -34.238  1.00  0.00     0.234 C 
HETATM   15  O3  UNL     1      26.048  56.284 -34.683  1.00  0.00    -0.272 OA
HETATM   16  N8  UNL     1      24.411  54.668 -34.554  1.00  0.00    -0.351 N 
HETATM   17  C8  UNL     1      23.130  54.213 -34.130  1.00  0.00     0.125 C 
HETATM   18  C12 UNL     1      25.213  53.763 -35.340  1.00  0.00     0.125 C 
HETATM   19  C9  UNL     1      23.271  52.900 -33.401  1.00  0.00     0.020 C 
HETATM   20  C10 UNL     1      24.032  51.871 -34.183  1.00  0.00     0.003 C 
HETATM   21  C11 UNL     1      24.621  52.400 -35.458  1.00  0.00     0.020 C 
ENDBRANCH  10  14
ENDBRANCH   9  10
ENDBRANCH   8   9
BRANCH   1  22
HETATM   22  N3  UNL     1      23.945  59.064 -30.079  1.00  0.00    -0.162 N 
HETATM   23  C1  UNL     1      24.561  58.799 -28.851  1.00  0.00     0.200 C 
HETATM   24  N1  UNL     1      24.483  59.669 -27.876  1.00  0.00    -0.373 N 
HETATM   25  N2  UNL     1      25.284  57.606 -28.604  1.00  0.00    -0.063 NA
ATOM     26  H12 UNL     1      24.933  59.475 -26.981  1.00  0.00     0.158 HD
ATOM     27  H11 UNL     1      23.962  60.528 -28.055  1.00  0.00     0.158 HD
ATOM     28  H3  UNL     1      22.944  58.904 -30.192  1.00  0.00     0.187 HD
ENDBRANCH   1  22
TORSDOF 5
ENDMDL
MODEL 2
REMARK VINA RESULT: -8.458481727      1.178      1.451
REMARK  5 active torsions:
REMARK  status: ('A' for Active; 'I' for Inactive)
REMARK       I    between atoms: C1_4  and  N3_6 
REMARK    1  A    between atoms: N3_6  and  C2_8 
REMARK    2  A    between atoms: N6_15  and  C4_16 
REMARK    3  A    between atoms: C4_16  and  C5_17 
REMARK    4  A    between atoms: C5_17  and  C6_18 
REMARK    5  A    between atoms: C5_17  and  C7_21 
REMARK       I    between atoms: C7_21  and  N8_23 
ROOT
HETATM    1  C2  UNL     1      25.018  58.358 -30.201  1.00  0.00     0.705 A 
HETATM    2  N4  UNL     1      24.711  59.548 -29.609  1.00  0.00    -0.128 N 
ATOM      3  H4  UNL     1      24.612  59.700 -28.606  1.00  0.00     0.205 HD
HETATM    4  N5  UNL     1      24.564  60.464 -30.534  1.00  0.00    -0.236 N 
ATOM      5  H5  UNL     1      24.331  61.442 -30.362  1.00  0.00     0.192 HD
HETATM    6  C3  UNL     1      24.765  59.922 -31.735  1.00  0.00     0.355 A 
HETATM    7  O1  UNL     1      24.705  60.506 -32.859  1.00  0.00    -0.244 OA
HETATM    8  N6  UNL     1      25.052  58.597 -31.509  1.00  0.00    -0.129 N 
ENDROOT
BRANCH   8   9
HETATM    9  C4  UNL     1      25.379  57.695 -32.561  1.00  0.00     0.176 C 
BRANCH   9  10
HETATM   10  C5  UNL     1      24.325  57.020 -33.319  1.00  0.00     0.186 C 
BRANCH  10  11
HETATM   11  C6  UNL     1      23.446  57.739 -34.220  1.00  0.00     0.246 C 
HETATM   12  N7  UNL     1      24.100  58.327 -35.382  1.00  0.00    -0.061 NA
HETATM   13  O2  UNL     1      22.237  57.871 -34.061  1.00  0.00    -0.276 OA
ENDBRANCH  10  11
BRANCH  10  14
HETATM   14  C7  UNL     1      25.016  55.954 -34.158  1.00  0.00     0.234 C 
HETATM   15  O3  UNL     1      26.188  56.227 -34.594  1.00  0.00    -0.272 OA
HETATM   16  N8  UNL     1      24.455  54.714 -34.472  1.00  0.00    -0.351 N 
HETATM   17  C8  UNL     1      23.144  54.340 -34.057  1.00  0.00     0.125 C 
HETATM   18  C12 UNL     1      25.209  53.757 -35.245  1.00  0.00     0.125 C 
HETATM   19  C9  UNL     1      23.199  53.026 -33.321  1.00  0.00     0.020 C 
HETATM   20  C10 UNL     1      23.903  51.948 -34.089  1.00  0.00     0.003 C 
HETATM   21  C11 UNL     1      24.536  52.432 -35.361  1.00  0.00     0.020 C 
ENDBRANCH  10  14
ENDBRANCH   9  10
ENDBRANCH   8   9
BRANCH   1  22
HETATM   22  N3  UNL     1      25.176  57.245 -29.527  1.00  0.00    -0.162 N 
HETATM   23  C1  UNL     1      25.306  57.281 -28.134  1.00  0.00     0.200 C 
HETATM   24  N1  UNL     1      24.275  57.021 -27.371  1.00  0.00    -0.373 N 
HETATM   25  N2  UNL     1      26.529  57.595 -27.491  1.00  0.00    -0.063 NA
ATOM     26  H12 UNL     1      24.370  57.048 -26.356  1.00  0.00     0.158 HD
ATOM     27  H11 UNL     1      23.394  56.795 -27.834  1.00  0.00     0.158 HD
ATOM     28  H3  UNL     1      25.204  56.351 -30.018  1.00  0.00     0.187 HD
ENDBRANCH   1  22
TORSDOF 5
ENDMDL
MODEL 3
REMARK VINA RESULT: -8.186443983      3.293      6.429
REMARK  5 active torsions:
REMARK  status: ('A' for Active; 'I' for Inactive)
REMARK       I    between atoms: C1_4  and  N3_6 
REMARK    1  A    between atoms: N3_6  and  C2_8 
REMARK    2  A    between atoms: N6_15  and  C4_16 
REMARK    3  A    between atoms: C4_16  and  C5_17 
REMARK    4  A    between atoms: C5_17  and  C6_18 
REMARK    5  A    between atoms: C5_17  and  C7_21 
REMARK       I    between atoms: C7_21  and  N8_23 
ROOT
HETATM    1  C2  UNL     1      24.179  53.054 -34.602  1.00  0.00     0.705 A 
HETATM    2  N4  UNL     1      24.394  51.977 -35.411  1.00  0.00    -0.128 N 
ATOM      3  H4  UNL     1      23.858  51.110 -35.394  1.00  0.00     0.205 HD
HETATM    4  N5  UNL     1      25.398  52.235 -36.212  1.00  0.00    -0.236 N 
ATOM      5  H5  UNL     1      25.766  51.597 -36.918  1.00  0.00     0.192 HD
HETATM    6  C3  UNL     1      25.864  53.458 -35.964  1.00  0.00     0.355 A 
HETATM    7  O1  UNL     1      26.829  54.043 -36.544  1.00  0.00    -0.244 OA
HETATM    8  N6  UNL     1      25.086  53.961 -34.949  1.00  0.00    -0.129 N 
ENDROOT
BRANCH   8   9
HETATM    9  C4  UNL     1      25.251  55.282 -34.442  1.00  0.00     0.176 C 
BRANCH   9  10
HETATM   10  C5  UNL     1      24.369  56.365 -34.882  1.00  0.00     0.186 C 
BRANCH  10  11
HETATM   11  C6  UNL     1      23.154  56.703 -34.168  1.00  0.00     0.246 C 
HETATM   12  N7  UNL     1      22.972  56.015 -32.897  1.00  0.00    -0.061 NA
HETATM   13  O2  UNL     1      22.311  57.503 -34.562  1.00  0.00    -0.276 OA
ENDBRANCH  10  11
BRANCH  10  14
HETATM   14  C7  UNL     1      25.219  57.628 -34.899  1.00  0.00     0.234 C 
HETATM   15  O3  UNL     1      25.405  58.219 -33.779  1.00  0.00    -0.272 OA
HETATM   16  N8  UNL     1      25.801  58.168 -36.048  1.00  0.00    -0.351 N 
HETATM   17  C8  UNL     1      25.620  57.596 -37.339  1.00  0.00     0.125 C 
HETATM   18  C12 UNL     1      26.622  59.351 -35.952  1.00  0.00     0.125 C 
HETATM   19  C9  UNL     1      26.962  57.333 -37.973  1.00  0.00     0.020 C 
HETATM   20  C10 UNL     1      27.856  58.538 -37.983  1.00  0.00     0.003 C 
HETATM   21  C11 UNL     1      27.293  59.710 -37.234  1.00  0.00     0.020 C 
ENDBRANCH  10  14
ENDBRANCH   9  10
ENDBRANCH   8   9
BRANCH   1  22
HETATM   22  N3  UNL     1      23.265  53.068 -33.660  1.00  0.00    -0.162 N 
HETATM   23  C1  UNL     1      22.753  51.865 -33.161  1.00  0.00     0.200 C 
HETATM   24  N1  UNL     1      23.205  51.377 -32.035  1.00  0.00    -0.373 N 
HETATM   25  N2  UNL     1      21.746  51.131 -33.833  1.00  0.00    -0.063 NA
ATOM     26  H12 UNL     1      22.832  50.500 -31.672  1.00  0.00     0.158 HD
ATOM     27  H11 UNL     1      23.931  51.906 -31.551  1.00  0.00     0.158 HD
ATOM     28  H3  UNL     1      22.928  53.957 -33.291  1.00  0.00     0.187 HD
ENDBRANCH   1  22
TORSDOF 5
ENDMDL
MODEL 4
REMARK VINA RESULT: -8.080918639      1.503      2.813
REMARK  5 active torsions:
REMARK  status: ('A' for Active; 'I' for Inactive)
REMARK       I    between atoms: C1_4  and  N3_6 
REMARK    1  A    between atoms: N3_6  and  C2_8 
REMARK    2  A    between atoms: N6_15  and  C4_16 
REMARK    3  A    between atoms: C4_16  and  C5_17 
REMARK    4  A    between atoms: C5_17  and  C6_18 
REMARK    5  A    between atoms: C5_17  and  C7_21 
REMARK       I    between atoms: C7_21  and  N8_23 
ROOT
HETATM    1  C2  UNL     1      24.967  59.780 -31.584  1.00  0.00     0.705 A 
HETATM    2  N4  UNL     1      24.685  60.241 -30.332  1.00  0.00    -0.128 N 
ATOM      3  H4  UNL     1      24.485  61.211 -30.090  1.00  0.00     0.205 HD
HETATM    4  N5  UNL     1      24.711  59.238 -29.488  1.00  0.00    -0.236 N 
ATOM      5  H5  UNL     1      24.534  59.307 -28.487  1.00  0.00     0.192 HD
HETATM    6  C3  UNL     1      25.003  58.113 -30.141  1.00  0.00     0.355 A 
HETATM    7  O1  UNL     1      25.114  56.950 -29.651  1.00  0.00    -0.244 OA
HETATM    8  N6  UNL     1      25.159  58.471 -31.459  1.00  0.00    -0.129 N 
ENDROOT
BRANCH   8   9
HETATM    9  C4  UNL     1      25.430  57.518 -32.483  1.00  0.00     0.176 C 
BRANCH   9  10
HETATM   10  C5  UNL     1      24.337  56.922 -33.252  1.00  0.00     0.186 C 
BRANCH  10  11
HETATM   11  C6  UNL     1      23.469  57.718 -34.098  1.00  0.00     0.246 C 
HETATM   12  N7  UNL     1      24.154  58.659 -34.974  1.00  0.00    -0.061 NA
HETATM   13  O2  UNL     1      22.245  57.643 -34.110  1.00  0.00    -0.276 OA
ENDBRANCH  10  11
BRANCH  10  14
HETATM   14  C7  UNL     1      24.972  55.877 -34.160  1.00  0.00     0.234 C 
HETATM   15  O3  UNL     1      26.098  56.175 -34.691  1.00  0.00    -0.272 OA
HETATM   16  N8  UNL     1      24.408  54.630 -34.438  1.00  0.00    -0.351 N 
HETATM   17  C8  UNL     1      23.145  54.228 -33.917  1.00  0.00     0.125 C 
HETATM   18  C12 UNL     1      25.110  53.694 -35.283  1.00  0.00     0.125 C 
HETATM   19  C9  UNL     1      23.285  52.908 -33.202  1.00  0.00     0.020 C 
HETATM   20  C10 UNL     1      23.941  51.850 -34.039  1.00  0.00     0.003 C 
HETATM   21  C11 UNL     1      24.453  52.358 -35.356  1.00  0.00     0.020 C 
ENDBRANCH  10  14
ENDBRANCH   9  10
ENDBRANCH   8   9
BRANCH   1  22
HETATM   22  N3  UNL     1      25.060  60.567 -32.630  1.00  0.00    -0.162 N 
HETATM   23  C1  UNL     1      26.317  60.959 -33.103  1.00  0.00     0.200 C 
HETATM   24  N1  UNL     1      26.853  60.348 -34.128  1.00  0.00    -0.373 N 
HETATM   25  N2  UNL     1      27.058  62.011 -32.511  1.00  0.00    -0.063 NA
ATOM     26  H12 UNL     1      27.769  60.634 -34.473  1.00  0.00     0.158 HD
ATOM     27  H11 UNL     1      26.319  59.590 -34.554  1.00  0.00     0.158 HD
ATOM     28  H3  UNL     1      24.215  60.893 -33.099  1.00  0.00     0.187 HD
ENDBRANCH   1  22
TORSDOF 5
ENDMDL
MODEL 5
REMARK VINA RESULT: -8.031909372      2.205      6.314
REMARK  5 active torsions:
REMARK  status: ('A' for Active; 'I' for Inactive)
REMARK       I    between atoms: C1_4  and  N3_6 
REMARK    1  A    between atoms: N3_6  and  C2_8 
REMARK    2  A    between atoms: N6_15  and  C4_16 
REMARK    3  A    between atoms: C4_16  and  C5_17 
REMARK    4  A    between atoms: C5_17  and  C6_18 
REMARK    5  A    between atoms: C5_17  and  C7_21 
REMARK       I    between atoms: C7_21  and  N8_23 
ROOT
HETATM    1  C2  UNL     1      24.095  53.187 -34.380  1.00  0.00     0.705 A 
HETATM    2  N4  UNL     1      24.389  52.191 -35.264  1.00  0.00    -0.128 N 
ATOM      3  H4  UNL     1      23.910  51.293 -35.323  1.00  0.00     0.205 HD
HETATM    4  N5  UNL     1      25.383  52.573 -36.027  1.00  0.00    -0.236 N 
ATOM      5  H5  UNL     1      25.800  52.016 -36.773  1.00  0.00     0.192 HD
HETATM    6  C3  UNL     1      25.767  53.801 -35.679  1.00  0.00     0.355 A 
HETATM    7  O1  UNL     1      26.698  54.488 -36.197  1.00  0.00    -0.244 OA
HETATM    8  N6  UNL     1      24.945  54.174 -34.643  1.00  0.00    -0.129 N 
ENDROOT
BRANCH   8   9
HETATM    9  C4  UNL     1      25.018  55.460 -34.033  1.00  0.00     0.176 C 
BRANCH   9  10
HETATM   10  C5  UNL     1      24.365  56.615 -34.651  1.00  0.00     0.186 C 
BRANCH  10  11
HETATM   11  C6  UNL     1      22.983  56.954 -34.374  1.00  0.00     0.246 C 
HETATM   12  N7  UNL     1      22.128  55.826 -34.028  1.00  0.00    -0.061 NA
HETATM   13  O2  UNL     1      22.520  58.089 -34.415  1.00  0.00    -0.276 OA
ENDBRANCH  10  11
BRANCH  10  14
HETATM   14  C7  UNL     1      25.189  57.833 -34.259  1.00  0.00     0.234 C 
HETATM   15  O3  UNL     1      25.779  58.465 -35.203  1.00  0.00    -0.272 OA
HETATM   16  N8  UNL     1      25.333  58.296 -32.949  1.00  0.00    -0.351 N 
HETATM   17  C8  UNL     1      24.740  57.637 -31.835  1.00  0.00     0.125 C 
HETATM   18  C12 UNL     1      26.107  59.485 -32.686  1.00  0.00     0.125 C 
HETATM   19  C9  UNL     1      23.909  58.617 -31.046  1.00  0.00     0.020 C 
HETATM   20  C10 UNL     1      24.663  59.856 -30.664  1.00  0.00     0.003 C 
HETATM   21  C11 UNL     1      26.036  59.934 -31.266  1.00  0.00     0.020 C 
ENDBRANCH  10  14
ENDBRANCH   9  10
ENDBRANCH   8   9
BRANCH   1  22
HETATM   22  N3  UNL     1      23.171  53.071 -33.455  1.00  0.00    -0.162 N 
HETATM   23  C1  UNL     1      22.706  51.804 -33.085  1.00  0.00     0.200 C 
HETATM   24  N1  UNL     1      23.165  51.226 -32.004  1.00  0.00    -0.373 N 
HETATM   25  N2  UNL     1      21.738  51.098 -33.840  1.00  0.00    -0.063 NA
ATOM     26  H12 UNL     1      22.826  50.303 -31.734  1.00  0.00     0.158 HD
ATOM     27  H11 UNL     1      23.862  51.735 -31.460  1.00  0.00     0.158 HD
ATOM     28  H3  UNL     1      22.793  53.904 -33.006  1.00  0.00     0.187 HD
ENDBRANCH   1  22
TORSDOF 5
ENDMDL
