MODEL 1
REMARK VINA RESULT: -8.421966651      0.000      0.000
REMARK  11 active torsions:
REMARK  status: ('A' for Active; 'I' for Inactive)
REMARK    1  A    between atoms: C2_2  and  C3_3 
REMARK    2  A    between atoms: C2_2  and  C11_20 
REMARK    3  A    between atoms: C3_3  and  C4_4 
REMARK       I    between atoms: C4_4  and  N1_6 
REMARK    4  A    between atoms: N1_6  and  C5_8 
REMARK    5  A    between atoms: C8_11  and  N2_12 
REMARK    6  A    between atoms: C10_16  and  N3_17 
REMARK    7  A    between atoms: C11_20  and  O6_21 
REMARK    8  A    between atoms: C11_20  and  N4_23 
REMARK    9  A    between atoms: N4_23  and  C12_24 
REMARK   10  A    between atoms: C14_26  and  C15_27 
REMARK   11  A    between atoms: C17_31  and  O9_32 
ROOT
HETATM    1  C3  UNL     1       9.531 -16.809  73.045  1.00  0.00     0.146 C 
ENDROOT
BRANCH   1   2
HETATM    2  C2  UNL     1       8.243 -17.250  73.625  1.00  0.00     0.006 C 
HETATM    3  C1  UNL     1       7.597 -16.405  74.381  1.00  0.00     0.025 C 
BRANCH   2   4
HETATM    4  C11 UNL     1       7.662 -18.585  73.348  1.00  0.00     0.214 C 
BRANCH   4   5
HETATM    5  O6  UNL     1       8.555 -19.463  72.986  1.00  0.00    -0.335 OA
ATOM      6  H6  UNL     1       9.061 -19.188  72.230  1.00  0.00     0.220 HD
ENDBRANCH   4   5
BRANCH   4   7
HETATM    7  N4  UNL     1       6.352 -18.913  73.452  1.00  0.00    -0.416 NA
BRANCH   7   8
HETATM    8  C12 UNL     1       5.026 -19.245  73.557  1.00  0.00     0.195 C 
HETATM    9  C13 UNL     1       4.299 -18.251  74.532  1.00  0.00     0.057 C 
HETATM   10  C14 UNL     1       2.962 -18.960  74.685  1.00  0.00     0.092 C 
HETATM   11  C16 UNL     1       3.148 -20.395  74.303  1.00  0.00     0.050 C 
HETATM   12  C17 UNL     1       4.669 -20.554  74.162  1.00  0.00     0.155 C 
BRANCH  10  13
HETATM   13  C15 UNL     1       1.976 -18.365  73.713  1.00  0.00     0.177 C 
HETATM   14  O7  UNL     1       2.405 -17.781  72.705  1.00  0.00    -0.648 OA
HETATM   15  O8  UNL     1       0.623 -18.506  74.013  1.00  0.00    -0.648 OA
ENDBRANCH  10  13
BRANCH  12  16
HETATM   16  O9  UNL     1       5.199 -20.702  75.465  1.00  0.00    -0.392 OA
ATOM     17  H9  UNL     1       4.979 -21.543  75.848  1.00  0.00     0.210 HD
ENDBRANCH  12  16
ENDBRANCH   7   8
ENDBRANCH   4   7
ENDBRANCH   2   4
ENDBRANCH   1   2
BRANCH   1  18
HETATM   18  C4  UNL     1       9.351 -16.414  71.614  1.00  0.00     0.226 C 
HETATM   19  O1  UNL     1       9.535 -17.268  70.749  1.00  0.00    -0.273 OA
HETATM   20  N1  UNL     1       8.975 -15.080  71.299  1.00  0.00    -0.325 N 
ATOM     21  H1  UNL     1       8.861 -14.421  72.069  1.00  0.00     0.169 HD
BRANCH  20  22
HETATM   22  C5  UNL     1       8.749 -14.613  69.995  1.00  0.00     0.068 A 
HETATM   23  C6  UNL     1       7.530 -14.684  69.336  1.00  0.00     0.034 A 
HETATM   24  C7  UNL     1       7.302 -14.157  68.076  1.00  0.00     0.038 A 
HETATM   25  C8  UNL     1       8.329 -13.510  67.399  1.00  0.00     0.105 A 
HETATM   26  C9  UNL     1       9.535 -13.424  68.026  1.00  0.00     0.074 A 
HETATM   27  C10 UNL     1       9.786 -13.957  69.314  1.00  0.00     0.132 A 
BRANCH  25  28
HETATM   28  N2  UNL     1       8.100 -12.968  66.101  1.00  0.00    -0.116 N 
HETATM   29  O2  UNL     1       8.856 -13.226  65.154  1.00  0.00    -0.532 OA
HETATM   30  O3  UNL     1       7.022 -12.160  65.907  1.00  0.00    -0.532 OA
ENDBRANCH  25  28
BRANCH  27  31
HETATM   31  N3  UNL     1      11.102 -13.793  69.767  1.00  0.00    -0.113 N 
HETATM   32  O4  UNL     1      11.509 -12.609  70.043  1.00  0.00    -0.532 OA
HETATM   33  O5  UNL     1      12.011 -14.758  69.941  1.00  0.00    -0.532 OA
ENDBRANCH  27  31
ENDBRANCH  20  22
ENDBRANCH   1  18
TORSDOF 11
ENDMDL
MODEL 2
REMARK VINA RESULT: -7.841970234      0.881      1.046
REMARK  11 active torsions:
REMARK  status: ('A' for Active; 'I' for Inactive)
REMARK    1  A    between atoms: C2_2  and  C3_3 
REMARK    2  A    between atoms: C2_2  and  C11_20 
REMARK    3  A    between atoms: C3_3  and  C4_4 
REMARK       I    between atoms: C4_4  and  N1_6 
REMARK    4  A    between atoms: N1_6  and  C5_8 
REMARK    5  A    between atoms: C8_11  and  N2_12 
REMARK    6  A    between atoms: C10_16  and  N3_17 
REMARK    7  A    between atoms: C11_20  and  O6_21 
REMARK    8  A    between atoms: C11_20  and  N4_23 
REMARK    9  A    between atoms: N4_23  and  C12_24 
REMARK   10  A    between atoms: C14_26  and  C15_27 
REMARK   11  A    between atoms: C17_31  and  O9_32 
ROOT
HETATM    1  C3  UNL     1       9.550 -16.685  72.820  1.00  0.00     0.146 C 
ENDROOT
BRANCH   1   2
HETATM    2  C2  UNL     1       8.518 -17.710  73.095  1.00  0.00     0.006 C 
HETATM    3  C1  UNL     1       8.658 -18.878  72.530  1.00  0.00     0.025 C 
BRANCH   2   4
HETATM    4  C11 UNL     1       7.373 -17.462  74.003  1.00  0.00     0.214 C 
BRANCH   4   5
HETATM    5  O6  UNL     1       7.658 -16.630  74.964  1.00  0.00    -0.335 OA
ATOM      6  H6  UNL     1       7.845 -15.752  74.652  1.00  0.00     0.220 HD
ENDBRANCH   4   5
BRANCH   4   7
HETATM    7  N4  UNL     1       6.140 -18.010  73.886  1.00  0.00    -0.416 NA
BRANCH   7   8
HETATM    8  C12 UNL     1       4.892 -18.565  73.769  1.00  0.00     0.195 C 
HETATM    9  C13 UNL     1       3.910 -17.898  74.798  1.00  0.00     0.057 C 
HETATM   10  C14 UNL     1       2.713 -18.830  74.664  1.00  0.00     0.092 C 
HETATM   11  C16 UNL     1       3.190 -20.120  74.076  1.00  0.00     0.050 C 
HETATM   12  C17 UNL     1       4.721 -20.003  74.100  1.00  0.00     0.155 C 
BRANCH  10  13
HETATM   13  C15 UNL     1       1.732 -18.231  73.690  1.00  0.00     0.177 C 
HETATM   14  O7  UNL     1       2.160 -17.732  72.638  1.00  0.00    -0.648 OA
HETATM   15  O8  UNL     1       0.384 -18.272  74.040  1.00  0.00    -0.648 OA
ENDBRANCH  10  13
BRANCH  12  16
HETATM   16  O9  UNL     1       5.145 -20.302  75.416  1.00  0.00    -0.392 OA
ATOM     17  H9  UNL     1       4.433 -20.622  75.957  1.00  0.00     0.210 HD
ENDBRANCH  12  16
ENDBRANCH   7   8
ENDBRANCH   4   7
ENDBRANCH   2   4
ENDBRANCH   1   2
BRANCH   1  18
HETATM   18  C4  UNL     1       9.435 -16.192  71.413  1.00  0.00     0.226 C 
HETATM   19  O1  UNL     1       9.954 -16.860  70.521  1.00  0.00    -0.273 OA
HETATM   20  N1  UNL     1       8.737 -14.983  71.151  1.00  0.00    -0.325 N 
ATOM     21  H1  UNL     1       8.352 -14.471  71.944  1.00  0.00     0.169 HD
BRANCH  20  22
HETATM   22  C5  UNL     1       8.544 -14.447  69.867  1.00  0.00     0.068 A 
HETATM   23  C6  UNL     1       7.396 -14.623  69.109  1.00  0.00     0.034 A 
HETATM   24  C7  UNL     1       7.190 -14.034  67.873  1.00  0.00     0.038 A 
HETATM   25  C8  UNL     1       8.166 -13.209  67.327  1.00  0.00     0.105 A 
HETATM   26  C9  UNL     1       9.301 -13.017  68.054  1.00  0.00     0.074 A 
HETATM   27  C10 UNL     1       9.530 -13.613  69.318  1.00  0.00     0.132 A 
BRANCH  25  28
HETATM   28  N2  UNL     1       7.959 -12.600  66.054  1.00  0.00    -0.116 N 
HETATM   29  O2  UNL     1       8.914 -12.250  65.347  1.00  0.00    -0.532 OA
HETATM   30  O3  UNL     1       6.685 -12.416  65.614  1.00  0.00    -0.532 OA
ENDBRANCH  25  28
BRANCH  27  31
HETATM   31  N3  UNL     1      10.776 -13.316  69.887  1.00  0.00    -0.113 N 
HETATM   32  O4  UNL     1      10.956 -12.149  70.385  1.00  0.00    -0.532 OA
HETATM   33  O5  UNL     1      11.831 -14.133  69.962  1.00  0.00    -0.532 OA
ENDBRANCH  27  31
ENDBRANCH  20  22
ENDBRANCH   1  18
TORSDOF 11
ENDMDL
MODEL 3
REMARK VINA RESULT: -7.772421846      1.929      8.636
REMARK  11 active torsions:
REMARK  status: ('A' for Active; 'I' for Inactive)
REMARK    1  A    between atoms: C2_2  and  C3_3 
REMARK    2  A    between atoms: C2_2  and  C11_20 
REMARK    3  A    between atoms: C3_3  and  C4_4 
REMARK       I    between atoms: C4_4  and  N1_6 
REMARK    4  A    between atoms: N1_6  and  C5_8 
REMARK    5  A    between atoms: C8_11  and  N2_12 
REMARK    6  A    between atoms: C10_16  and  N3_17 
REMARK    7  A    between atoms: C11_20  and  O6_21 
REMARK    8  A    between atoms: C11_20  and  N4_23 
REMARK    9  A    between atoms: N4_23  and  C12_24 
REMARK   10  A    between atoms: C14_26  and  C15_27 
REMARK   11  A    between atoms: C17_31  and  O9_32 
ROOT
HETATM    1  C3  UNL     1       8.291 -15.511  73.873  1.00  0.00     0.146 C 
ENDROOT
BRANCH   1   2
HETATM    2  C2  UNL     1       9.050 -16.490  73.063  1.00  0.00     0.006 C 
HETATM    3  C1  UNL     1       9.472 -17.572  73.658  1.00  0.00     0.025 C 
BRANCH   2   4
HETATM    4  C11 UNL     1       9.308 -16.295  71.617  1.00  0.00     0.214 C 
BRANCH   4   5
HETATM    5  O6  UNL     1       9.495 -17.415  70.978  1.00  0.00    -0.335 OA
ATOM      6  H6  UNL     1       9.576 -17.298  70.039  1.00  0.00     0.220 HD
ENDBRANCH   4   5
BRANCH   4   7
HETATM    7  N4  UNL     1       9.349 -15.101  70.976  1.00  0.00    -0.416 NA
BRANCH   7   8
HETATM    8  C12 UNL     1       9.390 -13.895  70.327  1.00  0.00     0.195 C 
HETATM    9  C13 UNL     1       8.926 -14.071  68.837  1.00  0.00     0.057 C 
HETATM   10  C14 UNL     1       9.301 -12.706  68.279  1.00  0.00     0.092 C 
HETATM   11  C16 UNL     1      10.323 -12.095  69.187  1.00  0.00     0.050 C 
HETATM   12  C17 UNL     1      10.708 -13.235  70.142  1.00  0.00     0.155 C 
BRANCH  10  13
HETATM   13  C15 UNL     1       8.087 -11.813  68.310  1.00  0.00     0.177 C 
HETATM   14  O7  UNL     1       7.111 -12.102  67.601  1.00  0.00    -0.648 OA
HETATM   15  O8  UNL     1       8.139 -10.699  69.145  1.00  0.00    -0.648 OA
ENDBRANCH  10  13
BRANCH  12  16
HETATM   16  O9  UNL     1      11.629 -14.063  69.457  1.00  0.00    -0.392 OA
ATOM     17  H9  UNL     1      12.140 -14.598  70.052  1.00  0.00     0.210 HD
ENDBRANCH  12  16
ENDBRANCH   7   8
ENDBRANCH   4   7
ENDBRANCH   2   4
ENDBRANCH   1   2
BRANCH   1  18
HETATM   18  C4  UNL     1       6.840 -15.872  73.902  1.00  0.00     0.226 C 
HETATM   19  O1  UNL     1       6.018 -14.986  73.673  1.00  0.00    -0.273 OA
HETATM   20  N1  UNL     1       6.457 -17.210  74.187  1.00  0.00    -0.325 N 
ATOM     21  H1  UNL     1       7.194 -17.886  74.388  1.00  0.00     0.169 HD
BRANCH  20  22
HETATM   22  C5  UNL     1       5.128 -17.662  74.208  1.00  0.00     0.068 A 
HETATM   23  C6  UNL     1       4.087 -17.007  74.849  1.00  0.00     0.034 A 
HETATM   24  C7  UNL     1       2.768 -17.425  74.805  1.00  0.00     0.038 A 
HETATM   25  C8  UNL     1       2.426 -18.564  74.086  1.00  0.00     0.105 A 
HETATM   26  C9  UNL     1       3.430 -19.223  73.445  1.00  0.00     0.074 A 
HETATM   27  C10 UNL     1       4.784 -18.810  73.479  1.00  0.00     0.132 A 
BRANCH  25  28
HETATM   28  N2  UNL     1       1.070 -19.000  74.039  1.00  0.00    -0.116 N 
HETATM   29  O2  UNL     1       0.767 -20.181  74.257  1.00  0.00    -0.532 OA
HETATM   30  O3  UNL     1       0.097 -18.091  73.758  1.00  0.00    -0.532 OA
ENDBRANCH  25  28
BRANCH  27  31
HETATM   31  N3  UNL     1       5.668 -19.645  72.781  1.00  0.00    -0.113 N 
HETATM   32  O4  UNL     1       5.670 -20.897  73.057  1.00  0.00    -0.532 OA
HETATM   33  O5  UNL     1       6.540 -19.271  71.840  1.00  0.00    -0.532 OA
ENDBRANCH  27  31
ENDBRANCH  20  22
ENDBRANCH   1  18
TORSDOF 11
ENDMDL
MODEL 4
REMARK VINA RESULT: -7.549783765      1.185      1.899
REMARK  11 active torsions:
REMARK  status: ('A' for Active; 'I' for Inactive)
REMARK    1  A    between atoms: C2_2  and  C3_3 
REMARK    2  A    between atoms: C2_2  and  C11_20 
REMARK    3  A    between atoms: C3_3  and  C4_4 
REMARK       I    between atoms: C4_4  and  N1_6 
REMARK    4  A    between atoms: N1_6  and  C5_8 
REMARK    5  A    between atoms: C8_11  and  N2_12 
REMARK    6  A    between atoms: C10_16  and  N3_17 
REMARK    7  A    between atoms: C11_20  and  O6_21 
REMARK    8  A    between atoms: C11_20  and  N4_23 
REMARK    9  A    between atoms: N4_23  and  C12_24 
REMARK   10  A    between atoms: C14_26  and  C15_27 
REMARK   11  A    between atoms: C17_31  and  O9_32 
ROOT
HETATM    1  C3  UNL     1       9.986 -16.463  72.445  1.00  0.00     0.146 C 
ENDROOT
BRANCH   1   2
HETATM    2  C2  UNL     1       8.807 -16.849  73.252  1.00  0.00     0.006 C 
HETATM    3  C1  UNL     1       8.284 -15.943  74.033  1.00  0.00     0.025 C 
BRANCH   2   4
HETATM    4  C11 UNL     1       8.195 -18.195  73.171  1.00  0.00     0.214 C 
BRANCH   4   5
HETATM    5  O6  UNL     1       8.956 -19.065  72.569  1.00  0.00    -0.335 OA
ATOM      6  H6  UNL     1       9.758 -18.684  72.229  1.00  0.00     0.220 HD
ENDBRANCH   4   5
BRANCH   4   7
HETATM    7  N4  UNL     1       6.979 -18.541  73.661  1.00  0.00    -0.416 NA
BRANCH   7   8
HETATM    8  C12 UNL     1       5.751 -18.891  74.157  1.00  0.00     0.195 C 
HETATM    9  C13 UNL     1       4.854 -19.474  73.007  1.00  0.00     0.057 C 
HETATM   10  C14 UNL     1       3.511 -19.533  73.722  1.00  0.00     0.092 C 
HETATM   11  C16 UNL     1       3.562 -18.598  74.889  1.00  0.00     0.050 C 
HETATM   12  C17 UNL     1       4.871 -17.819  74.692  1.00  0.00     0.155 C 
BRANCH  10  13
HETATM   13  C15 UNL     1       3.309 -20.922  74.271  1.00  0.00     0.177 C 
HETATM   14  O7  UNL     1       2.228 -21.496  74.066  1.00  0.00    -0.648 OA
HETATM   15  O8  UNL     1       4.363 -21.481  74.989  1.00  0.00    -0.648 OA
ENDBRANCH  10  13
BRANCH  12  16
HETATM   16  O9  UNL     1       4.618 -16.809  73.735  1.00  0.00    -0.392 OA
ATOM     17  H9  UNL     1       4.023 -16.146  74.063  1.00  0.00     0.210 HD
ENDBRANCH  12  16
ENDBRANCH   7   8
ENDBRANCH   4   7
ENDBRANCH   2   4
ENDBRANCH   1   2
BRANCH   1  18
HETATM   18  C4  UNL     1       9.568 -16.067  71.065  1.00  0.00     0.226 C 
HETATM   19  O1  UNL     1       9.631 -16.913  70.175  1.00  0.00    -0.273 OA
HETATM   20  N1  UNL     1       9.114 -14.742  70.826  1.00  0.00    -0.325 N 
ATOM     21  H1  UNL     1       9.111 -14.089  71.609  1.00  0.00     0.169 HD
BRANCH  20  22
HETATM   22  C5  UNL     1       8.670 -14.275  69.578  1.00  0.00     0.068 A 
HETATM   23  C6  UNL     1       7.449 -14.604  69.007  1.00  0.00     0.034 A 
HETATM   24  C7  UNL     1       6.993 -14.082  67.809  1.00  0.00     0.038 A 
HETATM   25  C8  UNL     1       7.774 -13.172  67.107  1.00  0.00     0.105 A 
HETATM   26  C9  UNL     1       8.975 -12.831  67.648  1.00  0.00     0.074 A 
HETATM   27  C10 UNL     1       9.459 -13.354  68.872  1.00  0.00     0.132 A 
BRANCH  25  28
HETATM   28  N2  UNL     1       7.309 -12.634  65.871  1.00  0.00    -0.116 N 
HETATM   29  O2  UNL     1       6.101 -12.595  65.601  1.00  0.00    -0.532 OA
HETATM   30  O3  UNL     1       8.219 -12.146  64.984  1.00  0.00    -0.532 OA
ENDBRANCH  25  28
BRANCH  27  31
HETATM   31  N3  UNL     1      10.733 -12.900  69.239  1.00  0.00    -0.113 N 
HETATM   32  O4  UNL     1      10.979 -11.645  69.161  1.00  0.00    -0.532 OA
HETATM   33  O5  UNL     1      11.754 -13.653  69.663  1.00  0.00    -0.532 OA
ENDBRANCH  27  31
ENDBRANCH  20  22
ENDBRANCH   1  18
TORSDOF 11
ENDMDL
MODEL 5
REMARK VINA RESULT: -7.429572361      2.181      8.781
REMARK  11 active torsions:
REMARK  status: ('A' for Active; 'I' for Inactive)
REMARK    1  A    between atoms: C2_2  and  C3_3 
REMARK    2  A    between atoms: C2_2  and  C11_20 
REMARK    3  A    between atoms: C3_3  and  C4_4 
REMARK       I    between atoms: C4_4  and  N1_6 
REMARK    4  A    between atoms: N1_6  and  C5_8 
REMARK    5  A    between atoms: C8_11  and  N2_12 
REMARK    6  A    between atoms: C10_16  and  N3_17 
REMARK    7  A    between atoms: C11_20  and  O6_21 
REMARK    8  A    between atoms: C11_20  and  N4_23 
REMARK    9  A    between atoms: N4_23  and  C12_24 
REMARK   10  A    between atoms: C14_26  and  C15_27 
REMARK   11  A    between atoms: C17_31  and  O9_32 
ROOT
HETATM    1  C3  UNL     1      10.227 -16.155  71.966  1.00  0.00     0.146 C 
ENDROOT
BRANCH   1   2
HETATM    2  C2  UNL     1       9.999 -15.379  70.727  1.00  0.00     0.006 C 
HETATM    3  C1  UNL     1      11.018 -15.187  69.935  1.00  0.00     0.025 C 
BRANCH   2   4
HETATM    4  C11 UNL     1       8.664 -14.856  70.351  1.00  0.00     0.214 C 
BRANCH   4   5
HETATM    5  O6  UNL     1       7.846 -14.777  71.362  1.00  0.00    -0.335 OA
ATOM      6  H6  UNL     1       8.162 -15.236  72.132  1.00  0.00     0.220 HD
ENDBRANCH   4   5
BRANCH   4   7
HETATM    7  N4  UNL     1       8.286 -14.479  69.105  1.00  0.00    -0.416 NA
BRANCH   7   8
HETATM    8  C12 UNL     1       7.904 -14.097  67.846  1.00  0.00     0.195 C 
HETATM    9  C13 UNL     1       8.553 -12.713  67.485  1.00  0.00     0.057 C 
HETATM   10  C14 UNL     1       7.795 -12.391  66.204  1.00  0.00     0.092 C 
HETATM   11  C16 UNL     1       6.538 -13.203  66.189  1.00  0.00     0.050 C 
HETATM   12  C17 UNL     1       6.467 -13.815  67.596  1.00  0.00     0.155 C 
BRANCH  10  13
HETATM   13  C15 UNL     1       8.622 -12.827  65.022  1.00  0.00     0.177 C 
HETATM   14  O7  UNL     1       8.833 -14.037  64.851  1.00  0.00    -0.648 OA
HETATM   15  O8  UNL     1       9.109 -11.826  64.185  1.00  0.00    -0.648 OA
ENDBRANCH  10  13
BRANCH  12  16
HETATM   16  O9  UNL     1       5.960 -12.817  68.463  1.00  0.00    -0.392 OA
ATOM     17  H9  UNL     1       5.051 -12.612  68.280  1.00  0.00     0.210 HD
ENDBRANCH  12  16
ENDBRANCH   7   8
ENDBRANCH   4   7
ENDBRANCH   2   4
ENDBRANCH   1   2
BRANCH   1  18
HETATM   18  C4  UNL     1       9.154 -17.182  72.144  1.00  0.00     0.226 C 
HETATM   19  O1  UNL     1       9.131 -18.137  71.369  1.00  0.00    -0.273 OA
HETATM   20  N1  UNL     1       8.205 -17.028  73.190  1.00  0.00    -0.325 N 
ATOM     21  H1  UNL     1       8.273 -16.199  73.779  1.00  0.00     0.169 HD
BRANCH  20  22
HETATM   22  C5  UNL     1       7.179 -17.946  73.464  1.00  0.00     0.068 A 
HETATM   23  C6  UNL     1       7.274 -19.314  73.254  1.00  0.00     0.034 A 
HETATM   24  C7  UNL     1       6.281 -20.217  73.593  1.00  0.00     0.038 A 
HETATM   25  C8  UNL     1       5.105 -19.766  74.181  1.00  0.00     0.105 A 
HETATM   26  C9  UNL     1       4.989 -18.428  74.400  1.00  0.00     0.074 A 
HETATM   27  C10 UNL     1       5.994 -17.490  74.060  1.00  0.00     0.132 A 
BRANCH  25  28
HETATM   28  N2  UNL     1       4.079 -20.692  74.530  1.00  0.00    -0.116 N 
HETATM   29  O2  UNL     1       4.309 -21.659  75.270  1.00  0.00    -0.532 OA
HETATM   30  O3  UNL     1       2.823 -20.494  74.044  1.00  0.00    -0.532 OA
ENDBRANCH  25  28
BRANCH  27  31
HETATM   31  N3  UNL     1       5.665 -16.156  74.338  1.00  0.00    -0.113 N 
HETATM   32  O4  UNL     1       4.752 -15.921  75.206  1.00  0.00    -0.532 OA
HETATM   33  O5  UNL     1       6.206 -15.070  73.777  1.00  0.00    -0.532 OA
ENDBRANCH  27  31
ENDBRANCH  20  22
ENDBRANCH   1  18
TORSDOF 11
ENDMDL
