MODEL 1
REMARK VINA RESULT: -7.316335227      0.000      0.000
REMARK  10 active torsions:
REMARK  status: ('A' for Active; 'I' for Inactive)
REMARK    1  A    between atoms: O1_2  and  C2_3 
REMARK    2  A    between atoms: C3_5  and  O3_6 
REMARK    3  A    between atoms: O3_6  and  C4_7 
REMARK    4  A    between atoms: C9_12  and  C10_13 
REMARK    5  A    between atoms: C10_13  and  C11_18 
REMARK    6  A    between atoms: N1_14  and  O4_16 
REMARK       I    between atoms: C11_18  and  N2_20 
REMARK    7  A    between atoms: N2_20  and  C12_22 
REMARK    8  A    between atoms: C12_22  and  C13_23 
REMARK    9  A    between atoms: C18_29  and  N3_30 
REMARK   10  A    between atoms: N3_30  and  C19_32 
ROOT
HETATM    1  C4  UNL     1       9.898 -11.643  68.901  1.00  0.00     0.084 A 
HETATM    2  C5  UNL     1      10.539 -10.658  69.634  1.00  0.00     0.038 A 
HETATM    3  C6  UNL     1       9.825  -9.662  70.266  1.00  0.00     0.003 A 
HETATM    4  C7  UNL     1       8.470  -9.646  70.167  1.00  0.00     0.001 A 
HETATM    5  C8  UNL     1       7.833 -10.658  69.416  1.00  0.00     0.017 A 
HETATM    6  C9  UNL     1       8.482 -11.652  68.779  1.00  0.00     0.032 A 
ENDROOT
BRANCH   1   7
HETATM    7  O3  UNL     1      10.569 -12.648  68.259  1.00  0.00    -0.319 OA
BRANCH   7   8
HETATM    8  C3  UNL     1      10.996 -13.816  68.833  1.00  0.00     0.271 C 
HETATM    9  O2  UNL     1      10.197 -14.192  69.952  1.00  0.00    -0.329 OA
HETATM   10  C2  UNL     1      10.931 -15.343  70.351  1.00  0.00     0.285 C 
HETATM   11  C18 UNL     1      12.264 -14.724  70.629  1.00  0.00     0.142 C 
HETATM   12  C17 UNL     1      12.358 -13.693  69.508  1.00  0.00     0.091 C 
BRANCH  10  13
HETATM   13  O1  UNL     1      10.332 -15.965  71.417  1.00  0.00    -0.364 OA
HETATM   14  C1  UNL     1       9.002 -15.559  71.486  1.00  0.00     0.204 C 
ENDBRANCH  10  13
BRANCH  11  15
HETATM   15  N3  UNL     1      13.374 -15.621  70.628  1.00  0.00    -0.371 N 
ATOM     16  H3  UNL     1      13.341 -16.458  70.046  1.00  0.00     0.161 HD
BRANCH  15  17
HETATM   17  C19 UNL     1      14.521 -15.370  71.423  1.00  0.00     0.066 C 
HETATM   18  C20 UNL     1      14.552 -15.853  72.842  1.00  0.00     0.088 C 
HETATM   19  N4  UNL     1      15.556 -14.727  70.962  1.00  0.00    -0.389 N 
ATOM     20  H42 UNL     1      15.535 -14.399  69.997  1.00  0.00     0.157 HD
ATOM     21  H41 UNL     1      16.381 -14.547  71.534  1.00  0.00     0.157 HD
ENDBRANCH  15  17
ENDBRANCH  11  15
ENDBRANCH   7   8
ENDBRANCH   1   7
BRANCH   6  22
HETATM   22  C10 UNL     1       7.908 -12.738  67.982  1.00  0.00     0.135 C 
HETATM   23  N1  UNL     1       7.407 -13.734  68.596  1.00  0.00    -0.263 N 
ATOM     24  H1  UNL     1       7.494 -13.601  69.604  1.00  0.00     0.194 HD
BRANCH  23  25
HETATM   25  O4  UNL     1       6.831 -14.844  68.351  1.00  0.00    -0.289 OA
ATOM     26  H4  UNL     1       7.046 -15.742  68.128  1.00  0.00     0.244 HD
ENDBRANCH  23  25
BRANCH  22  27
HETATM   27  C11 UNL     1       7.920 -12.663  66.519  1.00  0.00     0.274 C 
HETATM   28  O5  UNL     1       6.949 -12.156  65.948  1.00  0.00    -0.266 OA
HETATM   29  N2  UNL     1       8.975 -13.136  65.701  1.00  0.00    -0.333 N 
ATOM     30  H2  UNL     1       9.751 -13.532  66.232  1.00  0.00     0.168 HD
BRANCH  29  31
HETATM   31  C12 UNL     1       9.172 -13.174  64.317  1.00  0.00     0.096 C 
BRANCH  31  32
HETATM   32  C13 UNL     1       9.855 -14.321  63.660  1.00  0.00     0.159 C 
HETATM   33  C14 UNL     1       9.803 -14.495  62.212  1.00  0.00     0.039 C 
HETATM   34  C15 UNL     1       9.167 -15.886  62.056  1.00  0.00     0.029 C 
HETATM   35  C16 UNL     1       9.698 -16.518  63.346  1.00  0.00     0.168 C 
HETATM   36  O6  UNL     1       9.573 -15.534  64.296  1.00  0.00    -0.381 OA
ENDBRANCH  31  32
ENDBRANCH  29  31
ENDBRANCH  22  27
ENDBRANCH   6  22
TORSDOF 10
ENDMDL
MODEL 2
REMARK VINA RESULT: -7.281514553      2.911      7.524
REMARK  10 active torsions:
REMARK  status: ('A' for Active; 'I' for Inactive)
REMARK    1  A    between atoms: O1_2  and  C2_3 
REMARK    2  A    between atoms: C3_5  and  O3_6 
REMARK    3  A    between atoms: O3_6  and  C4_7 
REMARK    4  A    between atoms: C9_12  and  C10_13 
REMARK    5  A    between atoms: C10_13  and  C11_18 
REMARK    6  A    between atoms: N1_14  and  O4_16 
REMARK       I    between atoms: C11_18  and  N2_20 
REMARK    7  A    between atoms: N2_20  and  C12_22 
REMARK    8  A    between atoms: C12_22  and  C13_23 
REMARK    9  A    between atoms: C18_29  and  N3_30 
REMARK   10  A    between atoms: N3_30  and  C19_32 
ROOT
HETATM    1  C4  UNL     1       7.775 -14.288  67.119  1.00  0.00     0.084 A 
HETATM    2  C5  UNL     1       6.552 -14.401  66.481  1.00  0.00     0.038 A 
HETATM    3  C6  UNL     1       5.434 -13.754  66.963  1.00  0.00     0.003 A 
HETATM    4  C7  UNL     1       5.534 -12.993  68.084  1.00  0.00     0.001 A 
HETATM    5  C8  UNL     1       6.790 -12.889  68.722  1.00  0.00     0.017 A 
HETATM    6  C9  UNL     1       7.912 -13.500  68.294  1.00  0.00     0.032 A 
ENDROOT
BRANCH   1   7
HETATM    7  O3  UNL     1       8.908 -14.914  66.674  1.00  0.00    -0.319 OA
BRANCH   7   8
HETATM    8  C3  UNL     1       9.478 -14.749  65.439  1.00  0.00     0.271 C 
HETATM    9  O2  UNL     1       9.199 -13.466  64.883  1.00  0.00    -0.329 OA
HETATM   10  C2  UNL     1       9.831 -13.648  63.622  1.00  0.00     0.285 C 
HETATM   11  C18 UNL     1       9.051 -14.813  63.101  1.00  0.00     0.142 C 
HETATM   12  C17 UNL     1       8.864 -15.643  64.367  1.00  0.00     0.091 C 
BRANCH  10  13
HETATM   13  O1  UNL     1       9.764 -12.504  62.867  1.00  0.00    -0.364 OA
HETATM   14  C1  UNL     1       9.145 -11.506  63.616  1.00  0.00     0.204 C 
ENDBRANCH  10  13
BRANCH  11  15
HETATM   15  N3  UNL     1       9.678 -15.558  62.058  1.00  0.00    -0.371 N 
ATOM     16  H3  UNL     1       9.110 -15.931  61.297  1.00  0.00     0.161 HD
BRANCH  15  17
HETATM   17  C19 UNL     1      11.078 -15.791  62.061  1.00  0.00     0.066 C 
HETATM   18  C20 UNL     1      11.588 -17.200  62.055  1.00  0.00     0.088 C 
HETATM   19  N4  UNL     1      11.942 -14.816  62.070  1.00  0.00    -0.389 N 
ATOM     20  H42 UNL     1      11.594 -13.858  62.074  1.00  0.00     0.157 HD
ATOM     21  H41 UNL     1      12.948 -14.984  62.072  1.00  0.00     0.157 HD
ENDBRANCH  15  17
ENDBRANCH  11  15
ENDBRANCH   7   8
ENDBRANCH   1   7
BRANCH   6  22
HETATM   22  C10 UNL     1       9.248 -13.450  68.888  1.00  0.00     0.135 C 
HETATM   23  N1  UNL     1       9.977 -12.435  68.643  1.00  0.00    -0.263 N 
ATOM     24  H1  UNL     1       9.477 -11.786  68.035  1.00  0.00     0.194 HD
BRANCH  23  25
HETATM   25  O4  UNL     1      11.133 -11.974  68.915  1.00  0.00    -0.289 OA
ATOM     26  H4  UNL     1      11.652 -11.705  69.663  1.00  0.00     0.244 HD
ENDBRANCH  23  25
BRANCH  22  27
HETATM   27  C11 UNL     1       9.718 -14.547  69.739  1.00  0.00     0.274 C 
HETATM   28  O5  UNL     1      10.922 -14.817  69.738  1.00  0.00    -0.266 OA
HETATM   29  N2  UNL     1       8.881 -15.330  70.570  1.00  0.00    -0.333 N 
ATOM     30  H2  UNL     1       7.901 -15.049  70.536  1.00  0.00     0.168 HD
BRANCH  29  31
HETATM   31  C12 UNL     1       9.121 -16.409  71.428  1.00  0.00     0.096 C 
BRANCH  31  32
HETATM   32  C13 UNL     1       8.843 -16.318  72.887  1.00  0.00     0.159 C 
HETATM   33  C14 UNL     1       8.892 -17.506  73.735  1.00  0.00     0.039 C 
HETATM   34  C15 UNL     1       7.476 -17.557  74.334  1.00  0.00     0.029 C 
HETATM   35  C16 UNL     1       7.188 -16.053  74.351  1.00  0.00     0.168 C 
HETATM   36  O6  UNL     1       7.681 -15.588  73.156  1.00  0.00    -0.381 OA
ENDBRANCH  31  32
ENDBRANCH  29  31
ENDBRANCH  22  27
ENDBRANCH   6  22
TORSDOF 10
ENDMDL
MODEL 3
REMARK VINA RESULT: -6.989891440      2.614      3.633
REMARK  10 active torsions:
REMARK  status: ('A' for Active; 'I' for Inactive)
REMARK    1  A    between atoms: O1_2  and  C2_3 
REMARK    2  A    between atoms: C3_5  and  O3_6 
REMARK    3  A    between atoms: O3_6  and  C4_7 
REMARK    4  A    between atoms: C9_12  and  C10_13 
REMARK    5  A    between atoms: C10_13  and  C11_18 
REMARK    6  A    between atoms: N1_14  and  O4_16 
REMARK       I    between atoms: C11_18  and  N2_20 
REMARK    7  A    between atoms: N2_20  and  C12_22 
REMARK    8  A    between atoms: C12_22  and  C13_23 
REMARK    9  A    between atoms: C18_29  and  N3_30 
REMARK   10  A    between atoms: N3_30  and  C19_32 
ROOT
HETATM    1  C4  UNL     1       9.263 -13.465  69.534  1.00  0.00     0.084 A 
HETATM    2  C5  UNL     1      10.341 -13.022  70.282  1.00  0.00     0.038 A 
HETATM    3  C6  UNL     1      10.718 -11.696  70.273  1.00  0.00     0.003 A 
HETATM    4  C7  UNL     1      10.021 -10.808  69.517  1.00  0.00     0.001 A 
HETATM    5  C8  UNL     1       8.923 -11.277  68.761  1.00  0.00     0.017 A 
HETATM    6  C9  UNL     1       8.514 -12.560  68.733  1.00  0.00     0.032 A 
ENDROOT
BRANCH   1   7
HETATM    7  O3  UNL     1       8.856 -14.772  69.515  1.00  0.00    -0.319 OA
BRANCH   7   8
HETATM    8  C3  UNL     1       8.532 -15.523  70.614  1.00  0.00     0.271 C 
HETATM    9  O2  UNL     1       8.425 -14.733  71.796  1.00  0.00    -0.329 OA
HETATM   10  C2  UNL     1       8.179 -15.782  72.722  1.00  0.00     0.285 C 
HETATM   11  C18 UNL     1       9.423 -16.592  72.542  1.00  0.00     0.142 C 
HETATM   12  C17 UNL     1       9.640 -16.482  71.036  1.00  0.00     0.091 C 
BRANCH  10  13
HETATM   13  O1  UNL     1       7.971 -15.288  73.986  1.00  0.00    -0.364 OA
HETATM   14  C1  UNL     1       6.600 -15.157  74.197  1.00  0.00     0.204 C 
ENDBRANCH  10  13
BRANCH  11  15
HETATM   15  N3  UNL     1       9.346 -17.949  72.976  1.00  0.00    -0.371 N 
ATOM     16  H3  UNL     1      10.204 -18.455  73.195  1.00  0.00     0.161 HD
BRANCH  15  17
HETATM   17  C19 UNL     1       8.096 -18.607  73.109  1.00  0.00     0.066 C 
HETATM   18  C20 UNL     1       7.455 -18.702  74.461  1.00  0.00     0.088 C 
HETATM   19  N4  UNL     1       7.481 -19.138  72.091  1.00  0.00    -0.389 N 
ATOM     20  H42 UNL     1       7.917 -19.073  71.171  1.00  0.00     0.157 HD
ATOM     21  H41 UNL     1       6.583 -19.611  72.186  1.00  0.00     0.157 HD
ENDBRANCH  15  17
ENDBRANCH  11  15
ENDBRANCH   7   8
ENDBRANCH   1   7
BRANCH   6  22
HETATM   22  C10 UNL     1       7.395 -13.133  67.983  1.00  0.00     0.135 C 
HETATM   23  N1  UNL     1       6.227 -12.677  68.205  1.00  0.00    -0.263 N 
ATOM     24  H1  UNL     1       6.269 -11.942  68.911  1.00  0.00     0.194 HD
BRANCH  23  25
HETATM   25  O4  UNL     1       5.023 -12.847  67.823  1.00  0.00    -0.289 OA
ATOM     26  H4  UNL     1       4.490 -12.771  67.041  1.00  0.00     0.244 HD
ENDBRANCH  23  25
BRANCH  22  27
HETATM   27  C11 UNL     1       7.631 -14.203  67.010  1.00  0.00     0.274 C 
HETATM   28  O5  UNL     1       6.792 -15.103  66.911  1.00  0.00    -0.266 OA
HETATM   29  N2  UNL     1       8.766 -14.281  66.167  1.00  0.00    -0.333 N 
ATOM     30  H2  UNL     1       9.415 -13.503  66.288  1.00  0.00     0.168 HD
BRANCH  29  31
HETATM   31  C12 UNL     1       9.182 -15.206  65.202  1.00  0.00     0.096 C 
BRANCH  31  32
HETATM   32  C13 UNL     1       9.490 -14.788  63.808  1.00  0.00     0.159 C 
HETATM   33  C14 UNL     1       9.264 -15.696  62.687  1.00  0.00     0.039 C 
HETATM   34  C15 UNL     1      10.660 -15.814  62.055  1.00  0.00     0.029 C 
HETATM   35  C16 UNL     1      11.185 -14.421  62.414  1.00  0.00     0.168 C 
HETATM   36  O6  UNL     1      10.757 -14.207  63.702  1.00  0.00    -0.381 OA
ENDBRANCH  31  32
ENDBRANCH  29  31
ENDBRANCH  22  27
ENDBRANCH   6  22
TORSDOF 10
ENDMDL
MODEL 4
REMARK VINA RESULT: -6.668286720      3.359      6.841
REMARK  10 active torsions:
REMARK  status: ('A' for Active; 'I' for Inactive)
REMARK    1  A    between atoms: O1_2  and  C2_3 
REMARK    2  A    between atoms: C3_5  and  O3_6 
REMARK    3  A    between atoms: O3_6  and  C4_7 
REMARK    4  A    between atoms: C9_12  and  C10_13 
REMARK    5  A    between atoms: C10_13  and  C11_18 
REMARK    6  A    between atoms: N1_14  and  O4_16 
REMARK       I    between atoms: C11_18  and  N2_20 
REMARK    7  A    between atoms: N2_20  and  C12_22 
REMARK    8  A    between atoms: C12_22  and  C13_23 
REMARK    9  A    between atoms: C18_29  and  N3_30 
REMARK   10  A    between atoms: N3_30  and  C19_32 
ROOT
HETATM    1  C4  UNL     1      11.483 -15.310  70.452  1.00  0.00     0.084 A 
HETATM    2  C5  UNL     1      12.644 -15.779  71.044  1.00  0.00     0.038 A 
HETATM    3  C6  UNL     1      13.857 -15.164  70.820  1.00  0.00     0.003 A 
HETATM    4  C7  UNL     1      13.915 -14.079  70.003  1.00  0.00     0.001 A 
HETATM    5  C8  UNL     1      12.721 -13.614  69.408  1.00  0.00     0.017 A 
HETATM    6  C9  UNL     1      11.512 -14.178  69.593  1.00  0.00     0.032 A 
ENDROOT
BRANCH   1   7
HETATM    7  O3  UNL     1      10.260 -15.892  70.650  1.00  0.00    -0.319 OA
BRANCH   7   8
HETATM    8  C3  UNL     1       9.725 -16.233  71.863  1.00  0.00     0.271 C 
HETATM    9  O2  UNL     1       9.393 -17.617  71.937  1.00  0.00    -0.329 OA
HETATM   10  C2  UNL     1       8.806 -17.619  73.232  1.00  0.00     0.285 C 
HETATM   11  C18 UNL     1       7.687 -16.649  73.017  1.00  0.00     0.142 C 
HETATM   12  C17 UNL     1       8.352 -15.617  72.112  1.00  0.00     0.091 C 
BRANCH  10  13
HETATM   13  O1  UNL     1       8.429 -18.885  73.603  1.00  0.00    -0.364 OA
HETATM   14  C1  UNL     1       7.816 -19.507  72.518  1.00  0.00     0.204 C 
ENDBRANCH  10  13
BRANCH  11  15
HETATM   15  N3  UNL     1       7.146 -16.058  74.198  1.00  0.00    -0.371 N 
ATOM     16  H3  UNL     1       7.768 -15.826  74.972  1.00  0.00     0.161 HD
BRANCH  15  17
HETATM   17  C19 UNL     1       5.758 -15.790  74.314  1.00  0.00     0.066 C 
HETATM   18  C20 UNL     1       5.286 -14.368  74.361  1.00  0.00     0.088 C 
HETATM   19  N4  UNL     1       4.872 -16.742  74.384  1.00  0.00    -0.389 N 
ATOM     20  H42 UNL     1       5.193 -17.709  74.352  1.00  0.00     0.157 HD
ATOM     21  H41 UNL     1       3.874 -16.549  74.468  1.00  0.00     0.157 HD
ENDBRANCH  15  17
ENDBRANCH  11  15
ENDBRANCH   7   8
ENDBRANCH   1   7
BRANCH   6  22
HETATM   22  C10 UNL     1      10.229 -13.767  69.021  1.00  0.00     0.135 C 
HETATM   23  N1  UNL     1       9.548 -14.636  68.386  1.00  0.00    -0.263 N 
ATOM     24  H1  UNL     1      10.041 -15.529  68.383  1.00  0.00     0.194 HD
BRANCH  23  25
HETATM   25  O4  UNL     1       8.447 -14.744  67.755  1.00  0.00    -0.289 OA
ATOM     26  H4  UNL     1       7.759 -15.378  67.593  1.00  0.00     0.244 HD
ENDBRANCH  23  25
BRANCH  22  27
HETATM   27  C11 UNL     1       9.757 -12.389  69.183  1.00  0.00     0.274 C 
HETATM   28  O5  UNL     1       8.596 -12.124  68.861  1.00  0.00    -0.266 OA
HETATM   29  N2  UNL     1      10.547 -11.327  69.686  1.00  0.00    -0.333 N 
ATOM     30  H2  UNL     1      11.491 -11.612  69.945  1.00  0.00     0.168 HD
BRANCH  29  31
HETATM   31  C12 UNL     1      10.299  -9.967  69.900  1.00  0.00     0.096 C 
BRANCH  31  32
HETATM   32  C13 UNL     1       9.225  -9.508  70.821  1.00  0.00     0.159 C 
HETATM   33  C14 UNL     1       8.080  -8.754  70.320  1.00  0.00     0.039 C 
HETATM   34  C15 UNL     1       8.153  -7.445  71.125  1.00  0.00     0.029 C 
HETATM   35  C16 UNL     1       8.784  -8.006  72.402  1.00  0.00     0.168 C 
HETATM   36  O6  UNL     1       9.741  -8.888  71.963  1.00  0.00    -0.381 OA
ENDBRANCH  31  32
ENDBRANCH  29  31
ENDBRANCH  22  27
ENDBRANCH   6  22
TORSDOF 10
ENDMDL
MODEL 5
REMARK VINA RESULT: -6.656890910      2.131      5.502
REMARK  10 active torsions:
REMARK  status: ('A' for Active; 'I' for Inactive)
REMARK    1  A    between atoms: O1_2  and  C2_3 
REMARK    2  A    between atoms: C3_5  and  O3_6 
REMARK    3  A    between atoms: O3_6  and  C4_7 
REMARK    4  A    between atoms: C9_12  and  C10_13 
REMARK    5  A    between atoms: C10_13  and  C11_18 
REMARK    6  A    between atoms: N1_14  and  O4_16 
REMARK       I    between atoms: C11_18  and  N2_20 
REMARK    7  A    between atoms: N2_20  and  C12_22 
REMARK    8  A    between atoms: C12_22  and  C13_23 
REMARK    9  A    between atoms: C18_29  and  N3_30 
REMARK   10  A    between atoms: N3_30  and  C19_32 
ROOT
HETATM    1  C4  UNL     1       8.166 -14.060  66.158  1.00  0.00     0.084 A 
HETATM    2  C5  UNL     1       9.086 -14.472  65.208  1.00  0.00     0.038 A 
HETATM    3  C6  UNL     1       9.459 -13.644  64.171  1.00  0.00     0.003 A 
HETATM    4  C7  UNL     1       8.915 -12.402  64.079  1.00  0.00     0.001 A 
HETATM    5  C8  UNL     1       7.979 -11.998  65.056  1.00  0.00     0.017 A 
HETATM    6  C9  UNL     1       7.580 -12.767  66.088  1.00  0.00     0.032 A 
ENDROOT
BRANCH   1   7
HETATM    7  O3  UNL     1       7.769 -14.851  67.201  1.00  0.00    -0.319 OA
BRANCH   7   8
HETATM    8  C3  UNL     1       8.566 -15.270  68.234  1.00  0.00     0.271 C 
HETATM    9  O2  UNL     1       7.970 -15.033  69.507  1.00  0.00    -0.329 OA
HETATM   10  C2  UNL     1       9.045 -15.479  70.323  1.00  0.00     0.285 C 
HETATM   11  C18 UNL     1      10.122 -14.542  69.878  1.00  0.00     0.142 C 
HETATM   12  C17 UNL     1       9.842 -14.448  68.381  1.00  0.00     0.091 C 
BRANCH  10  13
HETATM   13  O1  UNL     1       8.715 -15.415  71.654  1.00  0.00    -0.364 OA
HETATM   14  C1  UNL     1       9.115 -16.597  72.273  1.00  0.00     0.204 C 
ENDBRANCH  10  13
BRANCH  11  15
HETATM   15  N3  UNL     1      11.458 -14.962  70.150  1.00  0.00    -0.371 N 
ATOM     16  H3  UNL     1      11.633 -15.928  70.428  1.00  0.00     0.161 HD
BRANCH  15  17
HETATM   17  C19 UNL     1      12.548 -14.060  70.040  1.00  0.00     0.066 C 
HETATM   18  C20 UNL     1      13.946 -14.574  70.207  1.00  0.00     0.088 C 
HETATM   19  N4  UNL     1      12.376 -12.792  69.800  1.00  0.00    -0.389 N 
ATOM     20  H42 UNL     1      11.424 -12.443  69.687  1.00  0.00     0.157 HD
ATOM     21  H41 UNL     1      13.159 -12.143  69.722  1.00  0.00     0.157 HD
ENDBRANCH  15  17
ENDBRANCH  11  15
ENDBRANCH   7   8
ENDBRANCH   1   7
BRANCH   6  22
HETATM   22  C10 UNL     1       6.620 -12.434  67.142  1.00  0.00     0.135 C 
HETATM   23  N1  UNL     1       5.386 -12.651  66.920  1.00  0.00    -0.263 N 
ATOM     24  H1  UNL     1       5.263 -13.045  65.988  1.00  0.00     0.194 HD
BRANCH  23  25
HETATM   25  O4  UNL     1       4.254 -12.531  67.495  1.00  0.00    -0.289 OA
ATOM     26  H4  UNL     1       3.599 -13.062  67.931  1.00  0.00     0.244 HD
ENDBRANCH  23  25
BRANCH  22  27
HETATM   27  C11 UNL     1       7.087 -11.865  68.409  1.00  0.00     0.274 C 
HETATM   28  O5  UNL     1       6.275 -11.741  69.331  1.00  0.00    -0.266 OA
HETATM   29  N2  UNL     1       8.415 -11.441  68.656  1.00  0.00    -0.333 N 
ATOM     30  H2  UNL     1       9.039 -11.581  67.861  1.00  0.00     0.168 HD
BRANCH  29  31
HETATM   31  C12 UNL     1       9.048 -10.870  69.765  1.00  0.00     0.096 C 
BRANCH  31  32
HETATM   32  C13 UNL     1       8.985  -9.407  70.028  1.00  0.00     0.159 C 
HETATM   33  C14 UNL     1       9.902  -8.774  70.972  1.00  0.00     0.039 C 
HETATM   34  C15 UNL     1       8.950  -8.136  71.998  1.00  0.00     0.029 C 
HETATM   35  C16 UNL     1       7.771  -7.855  71.062  1.00  0.00     0.168 C 
HETATM   36  O6  UNL     1       7.678  -8.973  70.270  1.00  0.00    -0.381 OA
ENDBRANCH  31  32
ENDBRANCH  29  31
ENDBRANCH  22  27
ENDBRANCH   6  22
TORSDOF 10
ENDMDL
