MODEL 1
REMARK VINA RESULT: -7.481248449      0.000      0.000
REMARK  11 active torsions:
REMARK  status: ('A' for Active; 'I' for Inactive)
REMARK    1  A    between atoms: N1_2  and  N2_4 
REMARK    2  A    between atoms: N2_4  and  C1_6 
REMARK    3  A    between atoms: C2_10  and  C3_11 
REMARK    4  A    between atoms: C3_11  and  N5_12 
REMARK    5  A    between atoms: N5_12  and  N6_13 
REMARK    6  A    between atoms: N7_19  and  C8_20 
REMARK    7  A    between atoms: C8_20  and  C9_21 
REMARK    8  A    between atoms: C9_21  and  C10_22 
REMARK    9  A    between atoms: C10_22  and  C11_23 
REMARK   10  A    between atoms: C11_23  and  C12_24 
REMARK   11  A    between atoms: C13_25  and  C14_26 
ROOT
HETATM    1  C1  UNL     1       8.877  -9.837  70.082  1.00  0.00     0.712 C 
HETATM    2  N3  UNL     1       7.667  -9.509  69.687  1.00  0.00    -0.133 N 
ATOM      3  H3  UNL     1       7.166  -8.663  69.959  1.00  0.00     0.201 HD
HETATM    4  N4  UNL     1       7.179 -10.495  68.843  1.00  0.00    -0.098 NA
HETATM    5  C2  UNL     1       7.888 -11.707  69.270  1.00  0.00     0.233 C 
HETATM    6  N7  UNL     1       9.216 -11.078  69.489  1.00  0.00    -0.194 N 
ENDROOT
BRANCH   6   7
HETATM    7  C8  UNL     1      10.489 -11.623  69.213  1.00  0.00     0.143 C 
BRANCH   7   8
HETATM    8  C9  UNL     1      11.099 -12.520  70.237  1.00  0.00     0.021 C 
BRANCH   8   9
HETATM    9  C10 UNL     1      11.775 -13.743  69.685  1.00  0.00     0.014 C 
BRANCH   9  10
HETATM   10  C11 UNL     1      10.720 -14.669  69.097  1.00  0.00     0.094 C 
BRANCH  10  11
HETATM   11  C12 UNL     1      10.107 -15.374  70.221  1.00  0.00    -0.101 C 
HETATM   12  C13 UNL     1       9.604 -15.952  71.158  1.00  0.00    -0.067 C 
BRANCH  12  13
HETATM   13  C14 UNL     1       8.999 -16.642  72.263  1.00  0.00     0.017 A 
HETATM   14  C15 UNL     1       8.875 -18.017  72.264  1.00  0.00     0.020 A 
HETATM   15  C16 UNL     1       8.289 -18.683  73.332  1.00  0.00     0.001 A 
HETATM   16  C17 UNL     1       7.809 -18.006  74.433  1.00  0.00     0.000 A 
HETATM   17  C18 UNL     1       7.932 -16.632  74.434  1.00  0.00     0.001 A 
HETATM   18  C19 UNL     1       8.514 -15.970  73.372  1.00  0.00     0.020 A 
ENDBRANCH  12  13
ENDBRANCH  10  11
ENDBRANCH   9  10
ENDBRANCH   8   9
ENDBRANCH   7   8
ENDBRANCH   6   7
BRANCH   1  19
HETATM   19  N2  UNL     1       9.672  -9.039  70.967  1.00  0.00    -0.071 N 
ATOM     20  H2  UNL     1      10.668  -9.232  71.067  1.00  0.00     0.212 HD
BRANCH  19  21
HETATM   21  N1  UNL     1       9.089  -7.998  71.695  1.00  0.00    -0.024 N 
HETATM   22  O1  UNL     1       9.174  -8.077  72.940  1.00  0.00    -0.516 OA
HETATM   23  O2  UNL     1       8.454  -6.937  71.093  1.00  0.00    -0.516 OA
ENDBRANCH  19  21
ENDBRANCH   1  19
BRANCH   5  24
HETATM   24  C3  UNL     1       7.964 -12.753  68.211  1.00  0.00     0.179 C 
BRANCH  24  25
HETATM   25  N5  UNL     1       8.674 -12.270  67.048  1.00  0.00    -0.140 NA
BRANCH  25  26
HETATM   26  N6  UNL     1       7.944 -12.318  65.889  1.00  0.00    -0.330 N 
HETATM   27  C4  UNL     1       6.990 -13.362  65.763  1.00  0.00     0.148 C 
HETATM   28  C5  UNL     1       7.557 -14.762  65.889  1.00  0.00     0.095 C 
HETATM   29  S1  UNL     1       9.171 -14.741  65.061  1.00  0.00    -0.166 SA
HETATM   30  C6  UNL     1       9.188 -13.270  63.996  1.00  0.00     0.095 C 
HETATM   31  C7  UNL     1       8.698 -12.045  64.700  1.00  0.00     0.148 C 
ENDBRANCH  25  26
ENDBRANCH  24  25
ENDBRANCH   5  24
TORSDOF 11
ENDMDL
MODEL 2
REMARK VINA RESULT: -7.459715110      0.110      1.066
REMARK  11 active torsions:
REMARK  status: ('A' for Active; 'I' for Inactive)
REMARK    1  A    between atoms: N1_2  and  N2_4 
REMARK    2  A    between atoms: N2_4  and  C1_6 
REMARK    3  A    between atoms: C2_10  and  C3_11 
REMARK    4  A    between atoms: C3_11  and  N5_12 
REMARK    5  A    between atoms: N5_12  and  N6_13 
REMARK    6  A    between atoms: N7_19  and  C8_20 
REMARK    7  A    between atoms: C8_20  and  C9_21 
REMARK    8  A    between atoms: C9_21  and  C10_22 
REMARK    9  A    between atoms: C10_22  and  C11_23 
REMARK   10  A    between atoms: C11_23  and  C12_24 
REMARK   11  A    between atoms: C13_25  and  C14_26 
ROOT
HETATM    1  C1  UNL     1       8.804  -9.793  70.034  1.00  0.00     0.712 C 
HETATM    2  N3  UNL     1       7.583  -9.479  69.664  1.00  0.00    -0.133 N 
ATOM      3  H3  UNL     1       7.092  -8.620  69.914  1.00  0.00     0.201 HD
HETATM    4  N4  UNL     1       7.067 -10.499  68.879  1.00  0.00    -0.098 NA
HETATM    5  C2  UNL     1       7.787 -11.693  69.336  1.00  0.00     0.233 C 
HETATM    6  N7  UNL     1       9.122 -11.060  69.485  1.00  0.00    -0.194 N 
ENDROOT
BRANCH   6   7
HETATM    7  C8  UNL     1      10.385 -11.620  69.194  1.00  0.00     0.143 C 
BRANCH   7   8
HETATM    8  C9  UNL     1      11.010 -12.501  70.223  1.00  0.00     0.021 C 
BRANCH   8   9
HETATM    9  C10 UNL     1      11.712 -13.712  69.676  1.00  0.00     0.014 C 
BRANCH   9  10
HETATM   10  C11 UNL     1      10.675 -14.669  69.104  1.00  0.00     0.094 C 
BRANCH  10  11
HETATM   11  C12 UNL     1      10.068 -15.358  70.240  1.00  0.00    -0.101 C 
HETATM   12  C13 UNL     1       9.556 -15.927  71.178  1.00  0.00    -0.067 C 
BRANCH  12  13
HETATM   13  C14 UNL     1       8.959 -16.608  72.294  1.00  0.00     0.017 A 
HETATM   14  C15 UNL     1       8.428 -15.904  73.357  1.00  0.00     0.020 A 
HETATM   15  C16 UNL     1       7.852 -16.562  74.435  1.00  0.00     0.001 A 
HETATM   16  C17 UNL     1       7.783 -17.938  74.493  1.00  0.00     0.000 A 
HETATM   17  C18 UNL     1       8.314 -18.642  73.432  1.00  0.00     0.001 A 
HETATM   18  C19 UNL     1       8.887 -17.989  72.360  1.00  0.00     0.020 A 
ENDBRANCH  12  13
ENDBRANCH  10  11
ENDBRANCH   9  10
ENDBRANCH   8   9
ENDBRANCH   7   8
ENDBRANCH   6   7
BRANCH   1  19
HETATM   19  N2  UNL     1       9.628  -8.960  70.858  1.00  0.00    -0.071 N 
ATOM     20  H2  UNL     1      10.642  -9.064  70.831  1.00  0.00     0.212 HD
BRANCH  19  21
HETATM   21  N1  UNL     1       9.049  -8.005  71.699  1.00  0.00    -0.024 N 
HETATM   22  O1  UNL     1       8.441  -7.068  71.137  1.00  0.00    -0.516 OA
HETATM   23  O2  UNL     1       9.133  -8.076  73.069  1.00  0.00    -0.516 OA
ENDBRANCH  19  21
ENDBRANCH   1  19
BRANCH   5  24
HETATM   24  C3  UNL     1       7.828 -12.785  68.322  1.00  0.00     0.179 C 
BRANCH  24  25
HETATM   25  N5  UNL     1       8.586 -12.389  67.157  1.00  0.00    -0.140 NA
BRANCH  25  26
HETATM   26  N6  UNL     1       7.866 -12.406  65.991  1.00  0.00    -0.330 N 
HETATM   27  C4  UNL     1       6.936 -13.465  65.814  1.00  0.00     0.148 C 
HETATM   28  C5  UNL     1       7.533 -14.855  65.889  1.00  0.00     0.095 C 
HETATM   29  S1  UNL     1       9.153 -14.766  65.075  1.00  0.00    -0.166 SA
HETATM   30  C6  UNL     1       9.144 -13.252  64.071  1.00  0.00     0.095 C 
HETATM   31  C7  UNL     1       8.622 -12.068  64.820  1.00  0.00     0.148 C 
ENDBRANCH  25  26
ENDBRANCH  24  25
ENDBRANCH   5  24
TORSDOF 11
ENDMDL
MODEL 3
REMARK VINA RESULT: -6.929571270      3.963      5.363
REMARK  11 active torsions:
REMARK  status: ('A' for Active; 'I' for Inactive)
REMARK    1  A    between atoms: N1_2  and  N2_4 
REMARK    2  A    between atoms: N2_4  and  C1_6 
REMARK    3  A    between atoms: C2_10  and  C3_11 
REMARK    4  A    between atoms: C3_11  and  N5_12 
REMARK    5  A    between atoms: N5_12  and  N6_13 
REMARK    6  A    between atoms: N7_19  and  C8_20 
REMARK    7  A    between atoms: C8_20  and  C9_21 
REMARK    8  A    between atoms: C9_21  and  C10_22 
REMARK    9  A    between atoms: C10_22  and  C11_23 
REMARK   10  A    between atoms: C11_23  and  C12_24 
REMARK   11  A    between atoms: C13_25  and  C14_26 
ROOT
HETATM    1  C1  UNL     1      12.504 -14.736  70.230  1.00  0.00     0.712 C 
HETATM    2  N3  UNL     1      12.908 -13.645  69.617  1.00  0.00    -0.133 N 
ATOM      3  H3  UNL     1      13.881 -13.378  69.467  1.00  0.00     0.201 HD
HETATM    4  N4  UNL     1      11.802 -12.915  69.208  1.00  0.00    -0.098 NA
HETATM    5  C2  UNL     1      10.755 -13.298  70.163  1.00  0.00     0.233 C 
HETATM    6  N7  UNL     1      11.087 -14.743  70.234  1.00  0.00    -0.194 N 
ENDROOT
BRANCH   6   7
HETATM    7  C8  UNL     1      10.196 -15.834  70.334  1.00  0.00     0.143 C 
BRANCH   7   8
HETATM    8  C9  UNL     1       9.237 -15.846  71.477  1.00  0.00     0.021 C 
BRANCH   8   9
HETATM    9  C10 UNL     1       9.434 -16.971  72.455  1.00  0.00     0.014 C 
BRANCH   9  10
HETATM   10  C11 UNL     1       8.801 -16.588  73.785  1.00  0.00     0.094 C 
BRANCH  10  11
HETATM   11  C12 UNL     1       7.542 -17.323  73.878  1.00  0.00    -0.101 C 
HETATM   12  C13 UNL     1       6.501 -17.936  73.962  1.00  0.00    -0.067 C 
BRANCH  12  13
HETATM   13  C14 UNL     1       5.261 -18.656  74.056  1.00  0.00     0.017 A 
HETATM   14  C15 UNL     1       5.241 -20.007  74.340  1.00  0.00     0.020 A 
HETATM   15  C16 UNL     1       4.044 -20.703  74.429  1.00  0.00     0.001 A 
HETATM   16  C17 UNL     1       2.828 -20.080  74.241  1.00  0.00     0.000 A 
HETATM   17  C18 UNL     1       2.846 -18.730  73.957  1.00  0.00     0.001 A 
HETATM   18  C19 UNL     1       4.036 -18.039  73.868  1.00  0.00     0.020 A 
ENDBRANCH  12  13
ENDBRANCH  10  11
ENDBRANCH   9  10
ENDBRANCH   8   9
ENDBRANCH   7   8
ENDBRANCH   6   7
BRANCH   1  19
HETATM   19  N2  UNL     1      13.390 -15.715  70.783  1.00  0.00    -0.071 N 
ATOM     20  H2  UNL     1      13.200 -16.708  70.645  1.00  0.00     0.212 HD
BRANCH  19  21
HETATM   21  N1  UNL     1      14.515 -15.318  71.512  1.00  0.00    -0.024 N 
HETATM   22  O1  UNL     1      15.227 -14.430  70.992  1.00  0.00    -0.516 OA
HETATM   23  O2  UNL     1      14.837 -15.861  72.733  1.00  0.00    -0.516 OA
ENDBRANCH  19  21
ENDBRANCH   1  19
BRANCH   5  24
HETATM   24  C3  UNL     1       9.374 -13.096  69.639  1.00  0.00     0.179 C 
BRANCH  24  25
HETATM   25  N5  UNL     1       9.363 -13.056  68.194  1.00  0.00    -0.140 NA
BRANCH  25  26
HETATM   26  N6  UNL     1       8.741 -14.130  67.612  1.00  0.00    -0.330 N 
HETATM   27  C4  UNL     1       9.035 -14.392  66.248  1.00  0.00     0.148 C 
HETATM   28  C5  UNL     1       8.737 -13.247  65.301  1.00  0.00     0.095 C 
HETATM   29  S1  UNL     1       7.204 -12.476  65.890  1.00  0.00    -0.166 SA
HETATM   30  C6  UNL     1       6.407 -13.683  66.990  1.00  0.00     0.095 C 
HETATM   31  C7  UNL     1       7.361 -14.285  67.970  1.00  0.00     0.148 C 
ENDBRANCH  25  26
ENDBRANCH  24  25
ENDBRANCH   5  24
TORSDOF 11
ENDMDL
MODEL 4
REMARK VINA RESULT: -6.928329738      4.085      7.582
REMARK  11 active torsions:
REMARK  status: ('A' for Active; 'I' for Inactive)
REMARK    1  A    between atoms: N1_2  and  N2_4 
REMARK    2  A    between atoms: N2_4  and  C1_6 
REMARK    3  A    between atoms: C2_10  and  C3_11 
REMARK    4  A    between atoms: C3_11  and  N5_12 
REMARK    5  A    between atoms: N5_12  and  N6_13 
REMARK    6  A    between atoms: N7_19  and  C8_20 
REMARK    7  A    between atoms: C8_20  and  C9_21 
REMARK    8  A    between atoms: C9_21  and  C10_22 
REMARK    9  A    between atoms: C10_22  and  C11_23 
REMARK   10  A    between atoms: C11_23  and  C12_24 
REMARK   11  A    between atoms: C13_25  and  C14_26 
ROOT
HETATM    1  C1  UNL     1       9.731 -13.860  68.323  1.00  0.00     0.712 C 
HETATM    2  N3  UNL     1      10.856 -13.810  69.000  1.00  0.00    -0.133 N 
ATOM      3  H3  UNL     1      11.745 -13.459  68.643  1.00  0.00     0.201 HD
HETATM    4  N4  UNL     1      10.645 -14.310  70.276  1.00  0.00    -0.098 NA
HETATM    5  C2  UNL     1       9.521 -15.240  70.107  1.00  0.00     0.233 C 
HETATM    6  N7  UNL     1       8.732 -14.409  69.163  1.00  0.00    -0.194 N 
ENDROOT
BRANCH   6   7
HETATM    7  C8  UNL     1       7.328 -14.259  69.106  1.00  0.00     0.143 C 
BRANCH   7   8
HETATM    8  C9  UNL     1       6.632 -14.701  67.863  1.00  0.00     0.021 C 
BRANCH   8   9
HETATM    9  C10 UNL     1       5.472 -13.840  67.448  1.00  0.00     0.014 C 
BRANCH   9  10
HETATM   10  C11 UNL     1       5.996 -12.647  66.661  1.00  0.00     0.094 C 
BRANCH  10  11
HETATM   11  C12 UNL     1       6.714 -11.800  67.611  1.00  0.00    -0.101 C 
HETATM   12  C13 UNL     1       7.316 -11.098  68.392  1.00  0.00    -0.067 C 
BRANCH  12  13
HETATM   13  C14 UNL     1       8.020 -10.262  69.325  1.00  0.00     0.017 A 
HETATM   14  C15 UNL     1       9.352 -10.482  69.614  1.00  0.00     0.020 A 
HETATM   15  C16 UNL     1      10.032  -9.674  70.515  1.00  0.00     0.001 A 
HETATM   16  C17 UNL     1       9.413  -8.622  71.157  1.00  0.00     0.000 A 
HETATM   17  C18 UNL     1       8.082  -8.402  70.869  1.00  0.00     0.001 A 
HETATM   18  C19 UNL     1       7.405  -9.204  69.973  1.00  0.00     0.020 A 
ENDBRANCH  12  13
ENDBRANCH  10  11
ENDBRANCH   9  10
ENDBRANCH   8   9
ENDBRANCH   7   8
ENDBRANCH   6   7
BRANCH   1  19
HETATM   19  N2  UNL     1       9.596 -13.424  66.965  1.00  0.00    -0.071 N 
ATOM     20  H2  UNL     1       9.725 -12.439  66.734  1.00  0.00     0.212 HD
BRANCH  19  21
HETATM   21  N1  UNL     1       9.289 -14.341  65.956  1.00  0.00    -0.024 N 
HETATM   22  O1  UNL     1       9.593 -15.534  66.179  1.00  0.00    -0.516 OA
HETATM   23  O2  UNL     1       8.685 -13.972  64.777  1.00  0.00    -0.516 OA
ENDBRANCH  19  21
ENDBRANCH   1  19
BRANCH   5  24
HETATM   24  C3  UNL     1       8.761 -15.484  71.365  1.00  0.00     0.179 C 
BRANCH  24  25
HETATM   25  N5  UNL     1       8.921 -16.847  71.819  1.00  0.00    -0.140 NA
BRANCH  25  26
HETATM   26  N6  UNL     1       9.139 -16.964  73.167  1.00  0.00    -0.330 N 
HETATM   27  C4  UNL     1       9.159 -18.275  73.712  1.00  0.00     0.148 C 
HETATM   28  C5  UNL     1       7.897 -19.080  73.480  1.00  0.00     0.095 C 
HETATM   29  S1  UNL     1       6.509 -17.922  73.644  1.00  0.00    -0.166 SA
HETATM   30  C6  UNL     1       7.151 -16.466  74.521  1.00  0.00     0.095 C 
HETATM   31  C7  UNL     1       8.455 -15.991  73.967  1.00  0.00     0.148 C 
ENDBRANCH  25  26
ENDBRANCH  24  25
ENDBRANCH   5  24
TORSDOF 11
ENDMDL
MODEL 5
REMARK VINA RESULT: -6.927990125      3.945      5.360
REMARK  11 active torsions:
REMARK  status: ('A' for Active; 'I' for Inactive)
REMARK    1  A    between atoms: N1_2  and  N2_4 
REMARK    2  A    between atoms: N2_4  and  C1_6 
REMARK    3  A    between atoms: C2_10  and  C3_11 
REMARK    4  A    between atoms: C3_11  and  N5_12 
REMARK    5  A    between atoms: N5_12  and  N6_13 
REMARK    6  A    between atoms: N7_19  and  C8_20 
REMARK    7  A    between atoms: C8_20  and  C9_21 
REMARK    8  A    between atoms: C9_21  and  C10_22 
REMARK    9  A    between atoms: C10_22  and  C11_23 
REMARK   10  A    between atoms: C11_23  and  C12_24 
REMARK   11  A    between atoms: C13_25  and  C14_26 
ROOT
HETATM    1  C1  UNL     1      12.502 -14.757  70.284  1.00  0.00     0.712 C 
HETATM    2  N3  UNL     1      12.879 -13.633  69.716  1.00  0.00    -0.133 N 
ATOM      3  H3  UNL     1      13.845 -13.334  69.580  1.00  0.00     0.201 HD
HETATM    4  N4  UNL     1      11.756 -12.917  69.331  1.00  0.00    -0.098 NA
HETATM    5  C2  UNL     1      10.716 -13.364  70.266  1.00  0.00     0.233 C 
HETATM    6  N7  UNL     1      11.086 -14.802  70.282  1.00  0.00    -0.194 N 
ENDROOT
BRANCH   6   7
HETATM    7  C8  UNL     1      10.223 -15.918  70.336  1.00  0.00     0.143 C 
BRANCH   7   8
HETATM    8  C9  UNL     1       9.913 -16.494  71.677  1.00  0.00     0.021 C 
BRANCH   8   9
HETATM    9  C10 UNL     1       8.801 -15.806  72.418  1.00  0.00     0.014 C 
BRANCH   9  10
HETATM   10  C11 UNL     1       8.740 -16.352  73.838  1.00  0.00     0.094 C 
BRANCH  10  11
HETATM   11  C12 UNL     1       7.522 -17.155  73.925  1.00  0.00    -0.101 C 
HETATM   12  C13 UNL     1       6.512 -17.818  74.007  1.00  0.00    -0.067 C 
BRANCH  12  13
HETATM   13  C14 UNL     1       5.313 -18.605  74.092  1.00  0.00     0.017 A 
HETATM   14  C15 UNL     1       4.078 -18.054  73.815  1.00  0.00     0.020 A 
HETATM   15  C16 UNL     1       2.920 -18.814  73.898  1.00  0.00     0.001 A 
HETATM   16  C17 UNL     1       2.949 -20.144  74.257  1.00  0.00     0.000 A 
HETATM   17  C18 UNL     1       4.183 -20.697  74.535  1.00  0.00     0.001 A 
HETATM   18  C19 UNL     1       5.335 -19.941  74.452  1.00  0.00     0.020 A 
ENDBRANCH  12  13
ENDBRANCH  10  11
ENDBRANCH   9  10
ENDBRANCH   8   9
ENDBRANCH   7   8
ENDBRANCH   6   7
BRANCH   1  19
HETATM   19  N2  UNL     1      13.412 -15.733  70.803  1.00  0.00    -0.071 N 
ATOM     20  H2  UNL     1      13.245 -16.725  70.630  1.00  0.00     0.212 HD
BRANCH  19  21
HETATM   21  N1  UNL     1      14.528 -15.335  71.543  1.00  0.00    -0.024 N 
HETATM   22  O1  UNL     1      15.312 -14.538  70.981  1.00  0.00    -0.516 OA
HETATM   23  O2  UNL     1      14.769 -15.782  72.821  1.00  0.00    -0.516 OA
ENDBRANCH  19  21
ENDBRANCH   1  19
BRANCH   5  24
HETATM   24  C3  UNL     1       9.332 -13.178  69.745  1.00  0.00     0.179 C 
BRANCH  24  25
HETATM   25  N5  UNL     1       9.295 -13.291  68.304  1.00  0.00    -0.140 NA
BRANCH  25  26
HETATM   26  N6  UNL     1       8.609 -12.280  67.683  1.00  0.00    -0.330 N 
HETATM   27  C4  UNL     1       7.413 -11.827  68.301  1.00  0.00     0.148 C 
HETATM   28  C5  UNL     1       6.362 -12.898  68.514  1.00  0.00     0.095 C 
HETATM   29  S1  UNL     1       6.419 -13.973  67.053  1.00  0.00    -0.166 SA
HETATM   30  C6  UNL     1       7.287 -13.042  65.758  1.00  0.00     0.095 C 
HETATM   31  C7  UNL     1       8.540 -12.397  66.255  1.00  0.00     0.148 C 
ENDBRANCH  25  26
ENDBRANCH  24  25
ENDBRANCH   5  24
TORSDOF 11
ENDMDL
