MODEL 1
REMARK VINA RESULT: -8.589450286      0.000      0.000
REMARK  12 active torsions:
REMARK  status: ('A' for Active; 'I' for Inactive)
REMARK    1  A    between atoms: C2_2  and  O1_3 
REMARK    2  A    between atoms: O1_3  and  C3_4 
REMARK    3  A    between atoms: C5_6  and  C6_7 
REMARK    4  A    between atoms: C8_9  and  O2_10 
REMARK    5  A    between atoms: O2_10  and  C9_11 
REMARK    6  A    between atoms: C9_11  and  O3_12 
REMARK    7  A    between atoms: O3_12  and  C10_13 
REMARK    8  A    between atoms: C11_15  and  C12_16 
REMARK    9  A    between atoms: C12_16  and  O5_17 
REMARK   10  A    between atoms: C13_19  and  O6_20 
REMARK   11  A    between atoms: C14_22  and  O7_23 
REMARK   12  A    between atoms: C15_25  and  O8_26 
ROOT
HETATM    1  O2  UNL     1       9.066 -15.103  71.217  1.00  0.00    -0.338 OA
ENDROOT
BRANCH   1   2
HETATM    2  C8  UNL     1       8.455 -14.835  70.006  1.00  0.00     0.140 C 
HETATM    3  C6  UNL     1       9.124 -14.346  68.948  1.00  0.00    -0.055 C 
HETATM    4  C7  UNL     1      10.561 -14.121  69.124  1.00  0.00     0.046 C 
BRANCH   3   5
HETATM    5  C5  UNL     1       8.381 -14.100  67.722  1.00  0.00     0.051 C 
HETATM    6  C3  UNL     1       8.400 -12.693  67.197  1.00  0.00     0.069 C 
HETATM    7  C4  UNL     1       9.118 -11.715  68.108  1.00  0.00     0.047 C 
HETATM    8  C22 UNL     1       9.220 -12.816  65.971  1.00  0.00     0.028 C 
HETATM    9  C17 UNL     1       8.713 -14.174  65.442  1.00  0.00    -0.006 C 
HETATM   10  C20 UNL     1       9.008 -11.976  64.810  1.00  0.00    -0.011 C 
HETATM   11  C16 UNL     1       9.010 -14.994  66.630  1.00  0.00     0.017 C 
HETATM   12  C18 UNL     1       9.553 -14.298  64.249  1.00  0.00     0.005 C 
HETATM   13  C19 UNL     1       9.532 -12.872  63.672  1.00  0.00     0.005 C 
HETATM   14  C21 UNL     1       7.637 -11.565  64.447  1.00  0.00     0.010 C 
BRANCH   6  15
HETATM   15  O1  UNL     1       7.116 -12.249  66.899  1.00  0.00    -0.380 OA
BRANCH  15  16
HETATM   16  C2  UNL     1       6.116 -12.833  67.626  1.00  0.00     0.164 C 
HETATM   17  C1  UNL     1       5.102 -13.547  66.761  1.00  0.00     0.033 C 
ENDBRANCH  15  16
ENDBRANCH   6  15
ENDBRANCH   3   5
ENDBRANCH   1   2
BRANCH   1  18
HETATM   18  C9  UNL     1       9.361 -16.388  71.681  1.00  0.00     0.347 C 
BRANCH  18  19
HETATM   19  O3  UNL     1       8.644 -16.683  72.841  1.00  0.00    -0.334 OA
BRANCH  19  20
HETATM   20  C10 UNL     1       8.469 -18.057  72.997  1.00  0.00     0.294 C 
HETATM   21  O4  UNL     1       7.556 -18.478  72.056  1.00  0.00    -0.348 OA
HETATM   22  C11 UNL     1       7.301 -19.828  72.063  1.00  0.00     0.179 C 
HETATM   23  C13 UNL     1       6.683 -20.236  73.349  1.00  0.00     0.180 C 
HETATM   24  C14 UNL     1       6.867 -19.286  74.489  1.00  0.00     0.183 C 
HETATM   25  C15 UNL     1       8.080 -18.426  74.405  1.00  0.00     0.204 C 
BRANCH  22  26
HETATM   26  C12 UNL     1       8.533 -20.656  71.728  1.00  0.00     0.198 C 
BRANCH  26  27
HETATM   27  O5  UNL     1       8.408 -21.849  72.455  1.00  0.00    -0.398 OA
ATOM     28  H5  UNL     1       9.170 -22.372  72.233  1.00  0.00     0.209 HD
ENDBRANCH  26  27
ENDBRANCH  22  26
BRANCH  23  29
HETATM   29  O6  UNL     1       5.310 -20.439  73.142  1.00  0.00    -0.390 OA
ATOM     30  H6  UNL     1       5.106 -21.349  73.327  1.00  0.00     0.210 HD
ENDBRANCH  23  29
BRANCH  24  31
HETATM   31  O7  UNL     1       7.004 -20.067  75.661  1.00  0.00    -0.390 OA
ATOM     32  H7  UNL     1       6.512 -20.868  75.520  1.00  0.00     0.210 HD
ENDBRANCH  24  31
BRANCH  25  33
HETATM   33  O8  UNL     1       9.176 -18.995  75.080  1.00  0.00    -0.388 OA
ATOM     34  H8  UNL     1       9.187 -19.937  74.955  1.00  0.00     0.210 HD
ENDBRANCH  25  33
ENDBRANCH  19  20
ENDBRANCH  18  19
ENDBRANCH   1  18
TORSDOF 12
ENDMDL
MODEL 2
REMARK VINA RESULT: -8.314246932      1.248      2.830
REMARK  12 active torsions:
REMARK  status: ('A' for Active; 'I' for Inactive)
REMARK    1  A    between atoms: C2_2  and  O1_3 
REMARK    2  A    between atoms: O1_3  and  C3_4 
REMARK    3  A    between atoms: C5_6  and  C6_7 
REMARK    4  A    between atoms: C8_9  and  O2_10 
REMARK    5  A    between atoms: O2_10  and  C9_11 
REMARK    6  A    between atoms: C9_11  and  O3_12 
REMARK    7  A    between atoms: O3_12  and  C10_13 
REMARK    8  A    between atoms: C11_15  and  C12_16 
REMARK    9  A    between atoms: C12_16  and  O5_17 
REMARK   10  A    between atoms: C13_19  and  O6_20 
REMARK   11  A    between atoms: C14_22  and  O7_23 
REMARK   12  A    between atoms: C15_25  and  O8_26 
ROOT
HETATM    1  O2  UNL     1      10.284 -16.385  71.222  1.00  0.00    -0.338 OA
ENDROOT
BRANCH   1   2
HETATM    2  C8  UNL     1       9.891 -15.391  70.345  1.00  0.00     0.140 C 
HETATM    3  C6  UNL     1      10.760 -14.539  69.776  1.00  0.00    -0.055 C 
HETATM    4  C7  UNL     1      12.174 -14.718  70.112  1.00  0.00     0.046 C 
BRANCH   3   5
HETATM    5  C5  UNL     1      10.236 -13.531  68.868  1.00  0.00     0.051 C 
HETATM    6  C3  UNL     1       8.751 -13.535  68.644  1.00  0.00     0.069 C 
HETATM    7  C4  UNL     1       8.038 -14.684  69.334  1.00  0.00     0.047 C 
HETATM    8  C22 UNL     1       8.317 -12.293  69.323  1.00  0.00     0.028 C 
HETATM    9  C17 UNL     1       9.479 -11.355  68.935  1.00  0.00    -0.006 C 
HETATM   10  C20 UNL     1       7.180 -11.521  68.869  1.00  0.00    -0.011 C 
HETATM   11  C16 UNL     1      10.594 -12.154  69.472  1.00  0.00     0.017 C 
HETATM   12  C18 UNL     1       9.054 -10.142  69.637  1.00  0.00     0.005 C 
HETATM   13  C19 UNL     1       7.540 -10.107  69.365  1.00  0.00     0.005 C 
HETATM   14  C21 UNL     1       6.896 -11.418  67.423  1.00  0.00     0.010 C 
BRANCH   6  15
HETATM   15  O1  UNL     1       8.445 -13.500  67.288  1.00  0.00    -0.380 OA
BRANCH  15  16
HETATM   16  C2  UNL     1       9.175 -14.352  66.505  1.00  0.00     0.164 C 
HETATM   17  C1  UNL     1       9.003 -14.083  65.028  1.00  0.00     0.033 C 
ENDBRANCH  15  16
ENDBRANCH   6  15
ENDBRANCH   3   5
ENDBRANCH   1   2
BRANCH   1  18
HETATM   18  C9  UNL     1       9.951 -16.413  72.578  1.00  0.00     0.347 C 
BRANCH  18  19
HETATM   19  O3  UNL     1       8.607 -16.743  72.761  1.00  0.00    -0.334 OA
BRANCH  19  20
HETATM   20  C10 UNL     1       8.439 -18.113  72.953  1.00  0.00     0.294 C 
HETATM   21  O4  UNL     1       7.531 -18.564  72.020  1.00  0.00    -0.348 OA
HETATM   22  C11 UNL     1       7.284 -19.914  72.062  1.00  0.00     0.179 C 
HETATM   23  C13 UNL     1       6.663 -20.292  73.357  1.00  0.00     0.180 C 
HETATM   24  C14 UNL     1       6.838 -19.311  74.472  1.00  0.00     0.183 C 
HETATM   25  C15 UNL     1       8.047 -18.447  74.368  1.00  0.00     0.204 C 
BRANCH  22  26
HETATM   26  C12 UNL     1       8.521 -20.744  71.753  1.00  0.00     0.198 C 
BRANCH  26  27
HETATM   27  O5  UNL     1       8.396 -21.922  72.506  1.00  0.00    -0.398 OA
ATOM     28  H5  UNL     1       8.742 -21.720  73.368  1.00  0.00     0.209 HD
ENDBRANCH  26  27
ENDBRANCH  22  26
BRANCH  23  29
HETATM   29  O6  UNL     1       5.292 -20.507  73.150  1.00  0.00    -0.390 OA
ATOM     30  H6  UNL     1       4.900 -20.780  73.972  1.00  0.00     0.210 HD
ENDBRANCH  23  29
BRANCH  24  31
HETATM   31  O7  UNL     1       6.975 -20.060  75.664  1.00  0.00    -0.390 OA
ATOM     32  H7  UNL     1       6.422 -19.646  76.317  1.00  0.00     0.210 HD
ENDBRANCH  24  31
BRANCH  25  33
HETATM   33  O8  UNL     1       9.143 -18.992  75.062  1.00  0.00    -0.388 OA
ATOM     34  H8  UNL     1       8.842 -19.516  75.795  1.00  0.00     0.210 HD
ENDBRANCH  25  33
ENDBRANCH  19  20
ENDBRANCH  18  19
ENDBRANCH   1  18
TORSDOF 12
ENDMDL
MODEL 3
REMARK VINA RESULT: -7.950542987      1.266      2.315
REMARK  12 active torsions:
REMARK  status: ('A' for Active; 'I' for Inactive)
REMARK    1  A    between atoms: C2_2  and  O1_3 
REMARK    2  A    between atoms: O1_3  and  C3_4 
REMARK    3  A    between atoms: C5_6  and  C6_7 
REMARK    4  A    between atoms: C8_9  and  O2_10 
REMARK    5  A    between atoms: O2_10  and  C9_11 
REMARK    6  A    between atoms: C9_11  and  O3_12 
REMARK    7  A    between atoms: O3_12  and  C10_13 
REMARK    8  A    between atoms: C11_15  and  C12_16 
REMARK    9  A    between atoms: C12_16  and  O5_17 
REMARK   10  A    between atoms: C13_19  and  O6_20 
REMARK   11  A    between atoms: C14_22  and  O7_23 
REMARK   12  A    between atoms: C15_25  and  O8_26 
ROOT
HETATM    1  O2  UNL     1       9.501 -16.313  71.550  1.00  0.00    -0.338 OA
ENDROOT
BRANCH   1   2
HETATM    2  C8  UNL     1       8.878 -15.347  70.783  1.00  0.00     0.140 C 
HETATM    3  C6  UNL     1       9.559 -14.443  70.060  1.00  0.00    -0.055 C 
HETATM    4  C7  UNL     1      11.021 -14.532  70.100  1.00  0.00     0.046 C 
BRANCH   3   5
HETATM    5  C5  UNL     1       8.801 -13.470  69.289  1.00  0.00     0.051 C 
HETATM    6  C3  UNL     1       9.098 -13.400  67.818  1.00  0.00     0.069 C 
HETATM    7  C4  UNL     1      10.241 -14.300  67.387  1.00  0.00     0.047 C 
HETATM    8  C22 UNL     1       7.866 -13.954  67.212  1.00  0.00     0.028 C 
HETATM    9  C17 UNL     1       6.805 -13.333  68.144  1.00  0.00    -0.006 C 
HETATM   10  C20 UNL     1       7.378 -13.522  65.919  1.00  0.00    -0.011 C 
HETATM   11  C16 UNL     1       7.310 -13.853  69.427  1.00  0.00     0.017 C 
HETATM   12  C18 UNL     1       5.596 -13.912  67.554  1.00  0.00     0.005 C 
HETATM   13  C19 UNL     1       5.867 -13.794  66.044  1.00  0.00     0.005 C 
HETATM   14  C21 UNL     1       7.537 -12.111  65.512  1.00  0.00     0.010 C 
BRANCH   6  15
HETATM   15  O1  UNL     1       9.313 -12.089  67.408  1.00  0.00    -0.380 OA
BRANCH  15  16
HETATM   16  C2  UNL     1      10.064 -11.329  68.263  1.00  0.00     0.164 C 
HETATM   17  C1  UNL     1       9.224 -10.557  69.254  1.00  0.00     0.033 C 
ENDBRANCH  15  16
ENDBRANCH   6  15
ENDBRANCH   3   5
ENDBRANCH   1   2
BRANCH   1  18
HETATM   18  C9  UNL     1       9.480 -16.343  72.947  1.00  0.00     0.347 C 
BRANCH  18  19
HETATM   19  O3  UNL     1       8.243 -16.779  73.423  1.00  0.00    -0.334 OA
BRANCH  19  20
HETATM   20  C10 UNL     1       8.152 -18.170  73.407  1.00  0.00     0.294 C 
HETATM   21  O4  UNL     1       7.243 -18.524  72.434  1.00  0.00    -0.348 OA
HETATM   22  C11 UNL     1       7.067 -19.878  72.275  1.00  0.00     0.179 C 
HETATM   23  C13 UNL     1       6.504 -20.481  73.509  1.00  0.00     0.180 C 
HETATM   24  C14 UNL     1       6.659 -19.671  74.757  1.00  0.00     0.183 C 
HETATM   25  C15 UNL     1       7.818 -18.736  74.762  1.00  0.00     0.204 C 
BRANCH  22  26
HETATM   26  C12 UNL     1       8.338 -20.581  71.818  1.00  0.00     0.198 C 
BRANCH  26  27
HETATM   27  O5  UNL     1       8.360 -21.814  72.488  1.00  0.00    -0.398 OA
ATOM     28  H5  UNL     1       8.289 -22.480  71.813  1.00  0.00     0.209 HD
ENDBRANCH  26  27
ENDBRANCH  22  26
BRANCH  23  29
HETATM   29  O6  UNL     1       5.141 -20.739  73.299  1.00  0.00    -0.390 OA
ATOM     30  H6  UNL     1       5.035 -21.129  72.439  1.00  0.00     0.210 HD
ENDBRANCH  23  29
BRANCH  24  31
HETATM   31  O7  UNL     1       6.868 -20.583  75.818  1.00  0.00    -0.390 OA
ATOM     32  H7  UNL     1       6.920 -20.072  76.617  1.00  0.00     0.210 HD
ENDBRANCH  24  31
BRANCH  25  33
HETATM   33  O8  UNL     1       8.960 -19.317  75.343  1.00  0.00    -0.388 OA
ATOM     34  H8  UNL     1       9.583 -18.643  75.591  1.00  0.00     0.210 HD
ENDBRANCH  25  33
ENDBRANCH  19  20
ENDBRANCH  18  19
ENDBRANCH   1  18
TORSDOF 12
ENDMDL
MODEL 4
REMARK VINA RESULT: -7.458363300      1.828      2.976
REMARK  12 active torsions:
REMARK  status: ('A' for Active; 'I' for Inactive)
REMARK    1  A    between atoms: C2_2  and  O1_3 
REMARK    2  A    between atoms: O1_3  and  C3_4 
REMARK    3  A    between atoms: C5_6  and  C6_7 
REMARK    4  A    between atoms: C8_9  and  O2_10 
REMARK    5  A    between atoms: O2_10  and  C9_11 
REMARK    6  A    between atoms: C9_11  and  O3_12 
REMARK    7  A    between atoms: O3_12  and  C10_13 
REMARK    8  A    between atoms: C11_15  and  C12_16 
REMARK    9  A    between atoms: C12_16  and  O5_17 
REMARK   10  A    between atoms: C13_19  and  O6_20 
REMARK   11  A    between atoms: C14_22  and  O7_23 
REMARK   12  A    between atoms: C15_25  and  O8_26 
ROOT
HETATM    1  O2  UNL     1       9.600 -16.752  71.362  1.00  0.00    -0.338 OA
ENDROOT
BRANCH   1   2
HETATM    2  C8  UNL     1       8.969 -15.733  70.674  1.00  0.00     0.140 C 
HETATM    3  C6  UNL     1       9.641 -14.732  70.081  1.00  0.00    -0.055 C 
HETATM    4  C7  UNL     1      11.102 -14.773  70.175  1.00  0.00     0.046 C 
BRANCH   3   5
HETATM    5  C5  UNL     1       8.875 -13.711  69.384  1.00  0.00     0.051 C 
HETATM    6  C3  UNL     1       9.180 -13.521  67.925  1.00  0.00     0.069 C 
HETATM    7  C4  UNL     1      10.338 -14.369  67.433  1.00  0.00     0.047 C 
HETATM    8  C22 UNL     1       7.960 -14.040  67.268  1.00  0.00     0.028 C 
HETATM    9  C17 UNL     1       6.885 -13.508  68.238  1.00  0.00    -0.006 C 
HETATM   10  C20 UNL     1       7.475 -13.513  66.010  1.00  0.00    -0.011 C 
HETATM   11  C16 UNL     1       7.388 -14.123  69.479  1.00  0.00     0.017 C 
HETATM   12  C18 UNL     1       5.688 -14.055  67.595  1.00  0.00     0.005 C 
HETATM   13  C19 UNL     1       5.967 -13.812  66.101  1.00  0.00     0.005 C 
HETATM   14  C21 UNL     1       7.619 -12.072  65.718  1.00  0.00     0.010 C 
BRANCH   6  15
HETATM   15  O1  UNL     1       9.381 -12.178  67.624  1.00  0.00    -0.380 OA
BRANCH  15  16
HETATM   16  C2  UNL     1      10.049 -11.461  68.578  1.00  0.00     0.164 C 
HETATM   17  C1  UNL     1       9.148 -10.514  69.338  1.00  0.00     0.033 C 
ENDBRANCH  15  16
ENDBRANCH   6  15
ENDBRANCH   3   5
ENDBRANCH   1   2
BRANCH   1  18
HETATM   18  C9  UNL     1       9.329 -17.090  72.691  1.00  0.00     0.347 C 
BRANCH  18  19
HETATM   19  O3  UNL     1       8.832 -18.390  72.790  1.00  0.00    -0.334 OA
BRANCH  19  20
HETATM   20  C10 UNL     1       7.771 -18.464  73.691  1.00  0.00     0.294 C 
HETATM   21  O4  UNL     1       6.737 -19.133  73.074  1.00  0.00    -0.348 OA
HETATM   22  C11 UNL     1       5.621 -19.315  73.855  1.00  0.00     0.179 C 
HETATM   23  C13 UNL     1       5.018 -18.009  74.219  1.00  0.00     0.180 C 
HETATM   24  C14 UNL     1       5.915 -16.820  74.087  1.00  0.00     0.183 C 
HETATM   25  C15 UNL     1       7.371 -17.110  74.215  1.00  0.00     0.204 C 
BRANCH  22  26
HETATM   26  C12 UNL     1       5.899 -20.182  75.075  1.00  0.00     0.198 C 
BRANCH  26  27
HETATM   27  O5  UNL     1       4.816 -21.069  75.175  1.00  0.00    -0.398 OA
ATOM     28  H5  UNL     1       5.187 -21.909  75.420  1.00  0.00     0.209 HD
ENDBRANCH  26  27
ENDBRANCH  22  26
BRANCH  23  29
HETATM   29  O6  UNL     1       3.875 -17.808  73.430  1.00  0.00    -0.390 OA
ATOM     30  H6  UNL     1       3.287 -18.544  73.555  1.00  0.00     0.210 HD
ENDBRANCH  23  29
BRANCH  24  31
HETATM   31  O7  UNL     1       5.584 -15.934  75.139  1.00  0.00    -0.390 OA
ATOM     32  H7  UNL     1       5.202 -16.457  75.834  1.00  0.00     0.210 HD
ENDBRANCH  24  31
BRANCH  25  33
HETATM   33  O8  UNL     1       7.826 -16.945  75.536  1.00  0.00    -0.388 OA
ATOM     34  H8  UNL     1       7.707 -16.044  75.815  1.00  0.00     0.210 HD
ENDBRANCH  25  33
ENDBRANCH  19  20
ENDBRANCH  18  19
ENDBRANCH   1  18
TORSDOF 12
ENDMDL
MODEL 5
REMARK VINA RESULT: -7.320351492      1.764      3.332
REMARK  12 active torsions:
REMARK  status: ('A' for Active; 'I' for Inactive)
REMARK    1  A    between atoms: C2_2  and  O1_3 
REMARK    2  A    between atoms: O1_3  and  C3_4 
REMARK    3  A    between atoms: C5_6  and  C6_7 
REMARK    4  A    between atoms: C8_9  and  O2_10 
REMARK    5  A    between atoms: O2_10  and  C9_11 
REMARK    6  A    between atoms: C9_11  and  O3_12 
REMARK    7  A    between atoms: O3_12  and  C10_13 
REMARK    8  A    between atoms: C11_15  and  C12_16 
REMARK    9  A    between atoms: C12_16  and  O5_17 
REMARK   10  A    between atoms: C13_19  and  O6_20 
REMARK   11  A    between atoms: C14_22  and  O7_23 
REMARK   12  A    between atoms: C15_25  and  O8_26 
ROOT
HETATM    1  O2  UNL     1      10.150 -16.589  71.194  1.00  0.00    -0.338 OA
ENDROOT
BRANCH   1   2
HETATM    2  C8  UNL     1       9.794 -15.587  70.311  1.00  0.00     0.140 C 
HETATM    3  C6  UNL     1      10.679 -14.705  69.818  1.00  0.00    -0.055 C 
HETATM    4  C7  UNL     1      12.071 -14.860  70.245  1.00  0.00     0.046 C 
BRANCH   3   5
HETATM    5  C5  UNL     1      10.194 -13.690  68.895  1.00  0.00     0.051 C 
HETATM    6  C3  UNL     1       8.707 -13.620  68.695  1.00  0.00     0.069 C 
HETATM    7  C4  UNL     1       7.946 -14.712  69.423  1.00  0.00     0.047 C 
HETATM    8  C22 UNL     1       8.353 -12.341  69.351  1.00  0.00     0.028 C 
HETATM    9  C17 UNL     1       9.556 -11.476  68.922  1.00  0.00    -0.006 C 
HETATM   10  C20 UNL     1       7.251 -11.519  68.898  1.00  0.00    -0.011 C 
HETATM   11  C16 UNL     1      10.636 -12.322  69.460  1.00  0.00     0.017 C 
HETATM   12  C18 UNL     1       9.209 -10.226  69.602  1.00  0.00     0.005 C 
HETATM   13  C19 UNL     1       7.695 -10.116  69.355  1.00  0.00     0.005 C 
HETATM   14  C21 UNL     1       6.948 -11.434  67.455  1.00  0.00     0.010 C 
BRANCH   6  15
HETATM   15  O1  UNL     1       8.380 -13.599  67.344  1.00  0.00    -0.380 OA
BRANCH  15  16
HETATM   16  C2  UNL     1       9.217 -14.314  66.532  1.00  0.00     0.164 C 
HETATM   17  C1  UNL     1       8.981 -14.045  65.063  1.00  0.00     0.033 C 
ENDBRANCH  15  16
ENDBRANCH   6  15
ENDBRANCH   3   5
ENDBRANCH   1   2
BRANCH   1  18
HETATM   18  C9  UNL     1       9.473 -16.864  72.385  1.00  0.00     0.347 C 
BRANCH  18  19
HETATM   19  O3  UNL     1       8.875 -18.124  72.346  1.00  0.00    -0.334 OA
BRANCH  19  20
HETATM   20  C10 UNL     1       7.941 -18.278  73.369  1.00  0.00     0.294 C 
HETATM   21  O4  UNL     1       6.913 -19.061  72.890  1.00  0.00    -0.348 OA
HETATM   22  C11 UNL     1       5.922 -19.331  73.802  1.00  0.00     0.179 C 
HETATM   23  C13 UNL     1       5.239 -18.081  74.218  1.00  0.00     0.180 C 
HETATM   24  C14 UNL     1       5.990 -16.814  73.963  1.00  0.00     0.183 C 
HETATM   25  C15 UNL     1       7.472 -16.957  73.919  1.00  0.00     0.204 C 
BRANCH  22  26
HETATM   26  C12 UNL     1       6.427 -20.135  74.992  1.00  0.00     0.198 C 
BRANCH  26  27
HETATM   27  O5  UNL     1       5.308 -20.802  75.512  1.00  0.00    -0.398 OA
ATOM     28  H5  UNL     1       5.075 -20.340  76.309  1.00  0.00     0.209 HD
ENDBRANCH  26  27
ENDBRANCH  22  26
BRANCH  23  29
HETATM   29  O6  UNL     1       3.996 -18.013  73.570  1.00  0.00    -0.390 OA
ATOM     30  H6  UNL     1       4.078 -18.417  72.713  1.00  0.00     0.210 HD
ENDBRANCH  23  29
BRANCH  24  31
HETATM   31  O7  UNL     1       5.699 -15.938  75.035  1.00  0.00    -0.390 OA
ATOM     32  H7  UNL     1       6.336 -15.232  74.998  1.00  0.00     0.210 HD
ENDBRANCH  24  31
BRANCH  25  33
HETATM   33  O8  UNL     1       8.062 -16.714  75.173  1.00  0.00    -0.388 OA
ATOM     34  H8  UNL     1       8.638 -15.960  75.126  1.00  0.00     0.210 HD
ENDBRANCH  25  33
ENDBRANCH  19  20
ENDBRANCH  18  19
ENDBRANCH   1  18
TORSDOF 12
ENDMDL
