MODEL 1
REMARK VINA RESULT: -6.401654149      0.000      0.000
REMARK  8 active torsions:
REMARK  status: ('A' for Active; 'I' for Inactive)
REMARK    1  A    between atoms: C1_2  and  C2_4 
REMARK    2  A    between atoms: C2_4  and  C3_5 
REMARK    3  A    between atoms: C3_5  and  N2_6 
REMARK       I    between atoms: N2_6  and  C4_8 
REMARK    4  A    between atoms: C4_8  and  C5_10 
REMARK    5  A    between atoms: C5_10  and  C6_11 
REMARK    6  A    between atoms: C6_11  and  C7_12 
REMARK    7  A    between atoms: C10_15  and  O3_16 
REMARK    8  A    between atoms: O3_16  and  C11_17 
ROOT
HETATM    1  C7  UNL     1       7.799  26.656  23.096  1.00  0.00    -0.009 C 
HETATM    2  C8  UNL     1       8.416  25.925  21.962  1.00  0.00     0.007 C 
HETATM    3  C9  UNL     1       7.498  25.242  21.031  1.00  0.00     0.038 C 
HETATM    4  C10 UNL     1       6.045  25.580  21.298  1.00  0.00     0.195 C 
HETATM    5  C12 UNL     1       5.809  25.152  22.755  1.00  0.00     0.191 C 
HETATM    6  C13 UNL     1       6.510  26.156  23.602  1.00  0.00     0.076 C 
HETATM    7  O5  UNL     1       4.452  25.196  23.015  1.00  0.00    -0.351 OA
HETATM    8  C14 UNL     1       4.323  24.381  24.159  1.00  0.00     0.198 C 
HETATM    9  C15 UNL     1       5.304  23.286  23.871  1.00  0.00     0.198 C 
HETATM   10  O6  UNL     1       6.227  23.850  22.977  1.00  0.00    -0.351 OA
ENDROOT
BRANCH   1  11
HETATM   11  C6  UNL     1       8.795  26.747  24.253  1.00  0.00     0.014 C 
BRANCH  11  12
HETATM   12  C5  UNL     1      10.099  26.224  23.735  1.00  0.00     0.103 C 
BRANCH  12  13
HETATM   13  C4  UNL     1      11.130  27.283  23.555  1.00  0.00     0.217 C 
HETATM   14  N2  UNL     1      10.724  28.620  23.661  1.00  0.00    -0.361 N 
ATOM     15  H2  UNL     1       9.745  28.834  23.852  1.00  0.00     0.162 HD
HETATM   16  O2  UNL     1      12.291  26.876  23.321  1.00  0.00    -0.274 OA
BRANCH  14  17
HETATM   17  C3  UNL     1      11.664  29.692  23.503  1.00  0.00     0.131 C 
BRANCH  17  18
HETATM   18  C2  UNL     1      11.606  30.656  24.635  1.00  0.00     0.119 C 
BRANCH  18  19
HETATM   19  C1  UNL     1      12.353  30.060  25.795  1.00  0.00     0.232 C 
HETATM   20  N1  UNL     1      13.375  29.118  25.541  1.00  0.00    -0.062 NA
HETATM   21  O1  UNL     1      12.080  30.388  26.966  1.00  0.00    -0.277 OA
ENDBRANCH  18  19
ENDBRANCH  17  18
ENDBRANCH  14  17
ENDBRANCH  12  13
ENDBRANCH  11  12
ENDBRANCH   1  11
BRANCH   4  22
HETATM   22  O3  UNL     1       5.236  24.845  20.419  1.00  0.00    -0.295 OA
BRANCH  22  23
HETATM   23  C11 UNL     1       5.719  23.669  19.847  1.00  0.00     0.373 C 
HETATM   24  N3  UNL     1       6.339  23.773  18.572  1.00  0.00    -0.032 NA
HETATM   25  O4  UNL     1       5.626  22.552  20.408  1.00  0.00    -0.242 OA
ENDBRANCH  22  23
ENDBRANCH   4  22
TORSDOF 8
ENDMDL
MODEL 2
REMARK VINA RESULT: -6.218333315      0.944      1.061
REMARK  8 active torsions:
REMARK  status: ('A' for Active; 'I' for Inactive)
REMARK    1  A    between atoms: C1_2  and  C2_4 
REMARK    2  A    between atoms: C2_4  and  C3_5 
REMARK    3  A    between atoms: C3_5  and  N2_6 
REMARK       I    between atoms: N2_6  and  C4_8 
REMARK    4  A    between atoms: C4_8  and  C5_10 
REMARK    5  A    between atoms: C5_10  and  C6_11 
REMARK    6  A    between atoms: C6_11  and  C7_12 
REMARK    7  A    between atoms: C10_15  and  O3_16 
REMARK    8  A    between atoms: O3_16  and  C11_17 
ROOT
HETATM    1  C7  UNL     1       7.901  26.795  22.887  1.00  0.00    -0.009 C 
HETATM    2  C8  UNL     1       8.494  26.013  21.774  1.00  0.00     0.007 C 
HETATM    3  C9  UNL     1       7.556  25.284  20.899  1.00  0.00     0.038 C 
HETATM    4  C10 UNL     1       6.109  25.630  21.185  1.00  0.00     0.195 C 
HETATM    5  C12 UNL     1       5.909  25.271  22.665  1.00  0.00     0.191 C 
HETATM    6  C13 UNL     1       6.626  26.316  23.447  1.00  0.00     0.076 C 
HETATM    7  O5  UNL     1       4.559  25.324  22.955  1.00  0.00    -0.351 OA
HETATM    8  C14 UNL     1       4.459  24.564  24.139  1.00  0.00     0.198 C 
HETATM    9  C15 UNL     1       5.438  23.459  23.880  1.00  0.00     0.198 C 
HETATM   10  O6  UNL     1       6.337  23.982  22.939  1.00  0.00    -0.351 OA
ENDROOT
BRANCH   1  11
HETATM   11  C6  UNL     1       8.923  26.944  24.014  1.00  0.00     0.014 C 
BRANCH  11  12
HETATM   12  C5  UNL     1      10.214  26.387  23.496  1.00  0.00     0.103 C 
BRANCH  12  13
HETATM   13  C4  UNL     1      11.324  27.379  23.489  1.00  0.00     0.217 C 
HETATM   14  N2  UNL     1      12.206  27.385  24.578  1.00  0.00    -0.361 N 
ATOM     15  H2  UNL     1      12.067  26.723  25.340  1.00  0.00     0.162 HD
HETATM   16  O2  UNL     1      11.371  28.133  22.491  1.00  0.00    -0.274 OA
BRANCH  14  17
HETATM   17  C3  UNL     1      13.300  28.311  24.636  1.00  0.00     0.131 C 
BRANCH  17  18
HETATM   18  C2  UNL     1      13.307  29.087  25.905  1.00  0.00     0.119 C 
BRANCH  18  19
HETATM   19  C1  UNL     1      12.242  30.144  25.813  1.00  0.00     0.232 C 
HETATM   20  N1  UNL     1      11.796  30.558  24.538  1.00  0.00    -0.062 NA
HETATM   21  O1  UNL     1      11.758  30.653  26.843  1.00  0.00    -0.277 OA
ENDBRANCH  18  19
ENDBRANCH  17  18
ENDBRANCH  14  17
ENDBRANCH  12  13
ENDBRANCH  11  12
ENDBRANCH   1  11
BRANCH   4  22
HETATM   22  O3  UNL     1       5.282  24.852  20.361  1.00  0.00    -0.295 OA
BRANCH  22  23
HETATM   23  C11 UNL     1       5.758  23.653  19.830  1.00  0.00     0.373 C 
HETATM   24  N3  UNL     1       6.359  23.705  18.544  1.00  0.00    -0.032 NA
HETATM   25  O4  UNL     1       5.673  22.560  20.438  1.00  0.00    -0.242 OA
ENDBRANCH  22  23
ENDBRANCH   4  22
TORSDOF 8
ENDMDL
MODEL 3
REMARK VINA RESULT: -6.148001870      1.907      2.925
REMARK  8 active torsions:
REMARK  status: ('A' for Active; 'I' for Inactive)
REMARK    1  A    between atoms: C1_2  and  C2_4 
REMARK    2  A    between atoms: C2_4  and  C3_5 
REMARK    3  A    between atoms: C3_5  and  N2_6 
REMARK       I    between atoms: N2_6  and  C4_8 
REMARK    4  A    between atoms: C4_8  and  C5_10 
REMARK    5  A    between atoms: C5_10  and  C6_11 
REMARK    6  A    between atoms: C6_11  and  C7_12 
REMARK    7  A    between atoms: C10_15  and  O3_16 
REMARK    8  A    between atoms: O3_16  and  C11_17 
ROOT
HETATM    1  C7  UNL     1       6.719  24.829  23.854  1.00  0.00    -0.009 C 
HETATM    2  C8  UNL     1       5.492  25.663  23.848  1.00  0.00     0.007 C 
HETATM    3  C9  UNL     1       4.454  25.314  22.860  1.00  0.00     0.038 C 
HETATM    4  C10 UNL     1       4.753  24.014  22.141  1.00  0.00     0.195 C 
HETATM    5  C12 UNL     1       6.122  24.242  21.480  1.00  0.00     0.191 C 
HETATM    6  C13 UNL     1       7.124  24.212  22.580  1.00  0.00     0.076 C 
HETATM    7  O5  UNL     1       6.368  23.202  20.604  1.00  0.00    -0.351 OA
HETATM    8  C14 UNL     1       7.369  23.730  19.761  1.00  0.00     0.198 C 
HETATM    9  C15 UNL     1       6.925  25.153  19.608  1.00  0.00     0.198 C 
HETATM   10  O6  UNL     1       6.142  25.414  20.742  1.00  0.00    -0.351 OA
ENDROOT
BRANCH   1  11
HETATM   11  C6  UNL     1       7.888  25.637  24.419  1.00  0.00     0.014 C 
BRANCH  11  12
HETATM   12  C5  UNL     1       8.186  26.712  23.420  1.00  0.00     0.103 C 
BRANCH  12  13
HETATM   13  C4  UNL     1       9.617  27.125  23.406  1.00  0.00     0.217 C 
HETATM   14  N2  UNL     1       9.919  28.432  23.001  1.00  0.00    -0.361 N 
ATOM     15  H2  UNL     1       9.164  29.060  22.727  1.00  0.00     0.162 HD
HETATM   16  O2  UNL     1      10.437  26.250  23.764  1.00  0.00    -0.274 OA
BRANCH  14  17
HETATM   17  C3  UNL     1      11.274  28.899  22.967  1.00  0.00     0.131 C 
BRANCH  17  18
HETATM   18  C2  UNL     1      11.585  29.794  24.114  1.00  0.00     0.119 C 
BRANCH  18  19
HETATM   19  C1  UNL     1      12.488  29.050  25.057  1.00  0.00     0.232 C 
HETATM   20  N1  UNL     1      13.050  29.739  26.156  1.00  0.00    -0.062 NA
HETATM   21  O1  UNL     1      12.742  27.843  24.878  1.00  0.00    -0.277 OA
ENDBRANCH  18  19
ENDBRANCH  17  18
ENDBRANCH  14  17
ENDBRANCH  12  13
ENDBRANCH  11  12
ENDBRANCH   1  11
BRANCH   4  22
HETATM   22  O3  UNL     1       3.760  23.786  21.177  1.00  0.00    -0.295 OA
BRANCH  22  23
HETATM   23  C11 UNL     1       2.596  23.103  21.526  1.00  0.00     0.373 C 
HETATM   24  N3  UNL     1       1.756  22.664  20.467  1.00  0.00    -0.032 NA
HETATM   25  O4  UNL     1       2.276  22.870  22.717  1.00  0.00    -0.242 OA
ENDBRANCH  22  23
ENDBRANCH   4  22
TORSDOF 8
ENDMDL
MODEL 4
REMARK VINA RESULT: -5.894302536      1.699      2.130
REMARK  8 active torsions:
REMARK  status: ('A' for Active; 'I' for Inactive)
REMARK    1  A    between atoms: C1_2  and  C2_4 
REMARK    2  A    between atoms: C2_4  and  C3_5 
REMARK    3  A    between atoms: C3_5  and  N2_6 
REMARK       I    between atoms: N2_6  and  C4_8 
REMARK    4  A    between atoms: C4_8  and  C5_10 
REMARK    5  A    between atoms: C5_10  and  C6_11 
REMARK    6  A    between atoms: C6_11  and  C7_12 
REMARK    7  A    between atoms: C10_15  and  O3_16 
REMARK    8  A    between atoms: O3_16  and  C11_17 
ROOT
HETATM    1  C7  UNL     1       7.186  25.764  20.964  1.00  0.00    -0.009 C 
HETATM    2  C8  UNL     1       7.483  24.507  20.234  1.00  0.00     0.007 C 
HETATM    3  C9  UNL     1       6.409  23.498  20.180  1.00  0.00     0.038 C 
HETATM    4  C10 UNL     1       5.096  24.020  20.729  1.00  0.00     0.195 C 
HETATM    5  C12 UNL     1       5.418  24.440  22.172  1.00  0.00     0.191 C 
HETATM    6  C13 UNL     1       6.219  25.691  22.072  1.00  0.00     0.076 C 
HETATM    7  O5  UNL     1       4.232  24.703  22.831  1.00  0.00    -0.351 OA
HETATM    8  C14 UNL     1       4.602  24.623  24.190  1.00  0.00     0.198 C 
HETATM    9  C15 UNL     1       5.569  23.479  24.180  1.00  0.00     0.198 C 
HETATM   10  O6  UNL     1       6.057  23.426  22.866  1.00  0.00    -0.351 OA
ENDROOT
BRANCH   1  11
HETATM   11  C6  UNL     1       8.489  26.386  21.471  1.00  0.00     0.014 C 
BRANCH  11  12
HETATM   12  C5  UNL     1       8.435  26.327  22.967  1.00  0.00     0.103 C 
BRANCH  12  13
HETATM   13  C4  UNL     1       9.753  26.576  23.615  1.00  0.00     0.217 C 
HETATM   14  N2  UNL     1      10.343  27.835  23.442  1.00  0.00    -0.361 N 
ATOM     15  H2  UNL     1       9.865  28.541  22.882  1.00  0.00     0.162 HD
HETATM   16  O2  UNL     1      10.224  25.618  24.268  1.00  0.00    -0.274 OA
BRANCH  14  17
HETATM   17  C3  UNL     1      11.608  28.145  24.040  1.00  0.00     0.131 C 
BRANCH  17  18
HETATM   18  C2  UNL     1      11.723  29.587  24.388  1.00  0.00     0.119 C 
BRANCH  18  19
HETATM   19  C1  UNL     1      12.514  29.700  25.661  1.00  0.00     0.232 C 
HETATM   20  N1  UNL     1      13.730  28.989  25.778  1.00  0.00    -0.062 NA
HETATM   21  O1  UNL     1      12.109  30.409  26.603  1.00  0.00    -0.277 OA
ENDBRANCH  18  19
ENDBRANCH  17  18
ENDBRANCH  14  17
ENDBRANCH  12  13
ENDBRANCH  11  12
ENDBRANCH   1  11
BRANCH   4  22
HETATM   22  O3  UNL     1       4.147  22.988  20.705  1.00  0.00    -0.295 OA
BRANCH  22  23
HETATM   23  C11 UNL     1       2.787  23.292  20.756  1.00  0.00     0.373 C 
HETATM   24  N3  UNL     1       2.019  22.669  21.776  1.00  0.00    -0.032 NA
HETATM   25  O4  UNL     1       2.237  24.078  19.949  1.00  0.00    -0.242 OA
ENDBRANCH  22  23
ENDBRANCH   4  22
TORSDOF 8
ENDMDL
MODEL 5
REMARK VINA RESULT: -5.694403487      1.709      2.885
REMARK  8 active torsions:
REMARK  status: ('A' for Active; 'I' for Inactive)
REMARK    1  A    between atoms: C1_2  and  C2_4 
REMARK    2  A    between atoms: C2_4  and  C3_5 
REMARK    3  A    between atoms: C3_5  and  N2_6 
REMARK       I    between atoms: N2_6  and  C4_8 
REMARK    4  A    between atoms: C4_8  and  C5_10 
REMARK    5  A    between atoms: C5_10  and  C6_11 
REMARK    6  A    between atoms: C6_11  and  C7_12 
REMARK    7  A    between atoms: C10_15  and  O3_16 
REMARK    8  A    between atoms: O3_16  and  C11_17 
ROOT
HETATM    1  C7  UNL     1       7.708  26.079  23.501  1.00  0.00    -0.009 C 
HETATM    2  C8  UNL     1       6.516  26.458  24.299  1.00  0.00     0.007 C 
HETATM    3  C9  UNL     1       5.441  25.454  24.408  1.00  0.00     0.038 C 
HETATM    4  C10 UNL     1       5.841  24.112  23.830  1.00  0.00     0.195 C 
HETATM    5  C12 UNL     1       6.202  24.411  22.367  1.00  0.00     0.191 C 
HETATM    6  C13 UNL     1       7.509  25.124  22.398  1.00  0.00     0.076 C 
HETATM    7  O5  UNL     1       6.348  23.213  21.693  1.00  0.00    -0.351 OA
HETATM    8  C14 UNL     1       6.219  23.593  20.341  1.00  0.00     0.198 C 
HETATM    9  C15 UNL     1       5.146  24.636  20.414  1.00  0.00     0.198 C 
HETATM   10  O6  UNL     1       5.198  25.121  21.729  1.00  0.00    -0.351 OA
ENDROOT
BRANCH   1  11
HETATM   11  C6  UNL     1       8.389  27.338  22.962  1.00  0.00     0.014 C 
BRANCH  11  12
HETATM   12  C5  UNL     1       9.667  26.891  22.322  1.00  0.00     0.103 C 
BRANCH  12  13
HETATM   13  C4  UNL     1      10.844  27.712  22.719  1.00  0.00     0.217 C 
HETATM   14  N2  UNL     1      10.608  28.997  23.225  1.00  0.00    -0.361 N 
ATOM     15  H2  UNL     1       9.650  29.337  23.306  1.00  0.00     0.162 HD
HETATM   16  O2  UNL     1      11.962  27.170  22.561  1.00  0.00    -0.274 OA
BRANCH  14  17
HETATM   17  C3  UNL     1      11.694  29.842  23.631  1.00  0.00     0.131 C 
BRANCH  17  18
HETATM   18  C2  UNL     1      11.819  29.916  25.111  1.00  0.00     0.119 C 
BRANCH  18  19
HETATM   19  C1  UNL     1      12.983  29.060  25.526  1.00  0.00     0.232 C 
HETATM   20  N1  UNL     1      13.945  29.592  26.413  1.00  0.00    -0.062 NA
HETATM   21  O1  UNL     1      13.102  27.895  25.096  1.00  0.00    -0.277 OA
ENDBRANCH  18  19
ENDBRANCH  17  18
ENDBRANCH  14  17
ENDBRANCH  12  13
ENDBRANCH  11  12
ENDBRANCH   1  11
BRANCH   4  22
HETATM   22  O3  UNL     1       4.749  23.235  23.910  1.00  0.00    -0.295 OA
BRANCH  22  23
HETATM   23  C11 UNL     1       3.452  23.724  23.759  1.00  0.00     0.373 C 
HETATM   24  N3  UNL     1       2.705  23.255  22.645  1.00  0.00    -0.032 NA
HETATM   25  O4  UNL     1       2.938  24.544  24.557  1.00  0.00    -0.242 OA
ENDBRANCH  22  23
ENDBRANCH   4  22
TORSDOF 8
ENDMDL
