MODEL 1
REMARK VINA RESULT: -9.855920253      0.000      0.000
REMARK  9 active torsions:
REMARK  status: ('A' for Active; 'I' for Inactive)
REMARK    1  A    between atoms: N1_1  and  C1_4 
REMARK    2  A    between atoms: C2_7  and  O1_8 
REMARK    3  A    between atoms: O1_8  and  C3_9 
REMARK    4  A    between atoms: N3_16  and  C9_17 
REMARK    5  A    between atoms: N4_20  and  C12_21 
REMARK    6  A    between atoms: C12_21  and  C13_22 
REMARK    7  A    between atoms: C13_22  and  C14_23 
REMARK    8  A    between atoms: C14_23  and  O2_24 
REMARK    9  A    between atoms: O2_24  and  C15_25 
ROOT
HETATM    1  C1  UNL     1      16.581   5.193  13.455  1.00  0.00     0.111 A 
HETATM    2  N2  UNL     1      16.850   5.794  12.312  1.00  0.00    -0.307 N 
ATOM      3  H2  UNL     1      17.802   6.138  12.185  1.00  0.00     0.171 HD
HETATM    4  C2  UNL     1      15.979   6.001  11.282  1.00  0.00     0.238 A 
HETATM    5  N3  UNL     1      14.725   5.550  11.459  1.00  0.00    -0.278 N 
HETATM    6  C23 UNL     1      14.411   4.912  12.648  1.00  0.00     0.089 A 
HETATM    7  C24 UNL     1      15.280   4.705  13.666  1.00  0.00     0.020 A 
HETATM    8  C25 UNL     1      14.747   4.005  14.844  1.00  0.00     0.056 C 
HETATM    9  C26 UNL     1      13.284   4.305  15.004  1.00  0.00     0.086 C 
HETATM   10  S1  UNL     1      12.829   4.210  13.210  1.00  0.00    -0.111 SA
ENDROOT
BRANCH   5  11
HETATM   11  C9  UNL     1      13.610   5.785  10.632  1.00  0.00     0.002 C 
HETATM   12  C10 UNL     1      13.517   7.035   9.835  1.00  0.00     0.083 C 
HETATM   13  C11 UNL     1      12.056   7.355   9.706  1.00  0.00     0.278 C 
HETATM   14  N4  UNL     1      11.123   6.298   9.651  1.00  0.00     0.089 N 
HETATM   15  C21 UNL     1      11.593   4.968   9.556  1.00  0.00     0.278 C 
HETATM   16  C22 UNL     1      13.055   4.701   9.780  1.00  0.00     0.083 C 
BRANCH  14  17
HETATM   17  C12 UNL     1      10.066   6.433  10.657  1.00  0.00     0.274 C 
BRANCH  17  18
HETATM   18  C13 UNL     1       8.788   5.751  10.286  1.00  0.00     0.057 C 
BRANCH  18  19
HETATM   19  C14 UNL     1       8.308   4.811  11.373  1.00  0.00     0.177 C 
BRANCH  19  20
HETATM   20  O2  UNL     1       9.301   4.099  12.027  1.00  0.00    -0.348 OA
BRANCH  20  21
HETATM   21  C15 UNL     1       9.081   3.497  13.248  1.00  0.00     0.112 A 
HETATM   22  C16 UNL     1       8.660   2.174  13.320  1.00  0.00     0.070 A 
HETATM   23 CL1  UNL     1       8.389   1.206  11.873  1.00  0.00    -0.081 Cl
HETATM   24  C17 UNL     1       8.436   1.552  14.527  1.00  0.00     0.050 A 
HETATM   25  C18 UNL     1       8.631   2.247  15.697  1.00  0.00     0.037 A 
HETATM   26 CL2  UNL     1       8.355   1.477  17.260  1.00  0.00    -0.084 Cl
HETATM   27  C19 UNL     1       9.045   3.550  15.642  1.00  0.00     0.050 A 
HETATM   28  C20 UNL     1       9.268   4.171  14.435  1.00  0.00     0.070 A 
HETATM   29 CL3  UNL     1       9.792   5.835  14.458  1.00  0.00    -0.081 Cl
ENDBRANCH  20  21
ENDBRANCH  19  20
ENDBRANCH  18  19
ENDBRANCH  17  18
ENDBRANCH  14  17
ENDBRANCH   5  11
BRANCH   4  30
HETATM   30  O1  UNL     1      16.355   6.631  10.165  1.00  0.00    -0.276 OA
BRANCH  30  31
HETATM   31  C3  UNL     1      16.990   7.792   9.857  1.00  0.00     0.117 A 
HETATM   32  C4  UNL     1      18.092   7.651   8.956  1.00  0.00     0.040 A 
HETATM   33  C5  UNL     1      18.826   8.734   8.548  1.00  0.00     0.003 A 
HETATM   34  C6  UNL     1      18.538  10.006   8.987  1.00  0.00     0.003 A 
HETATM   35  C7  UNL     1      17.498  10.182   9.843  1.00  0.00     0.045 A 
HETATM   36  C8  UNL     1      16.761   9.070  10.245  1.00  0.00     0.150 A 
HETATM   37  F1  UNL     1      15.709   9.358  11.031  1.00  0.00    -0.203 F 
ENDBRANCH  30  31
ENDBRANCH   4  30
BRANCH   1  38
HETATM   38  N1  UNL     1      17.452   5.027  14.410  1.00  0.00    -0.385 N 
ATOM     39  H12 UNL     1      17.695   5.842  14.974  1.00  0.00     0.157 HD
ATOM     40  H11 UNL     1      17.901   4.136  14.622  1.00  0.00     0.157 HD
ENDBRANCH   1  38
TORSDOF 9
ENDMDL
MODEL 2
REMARK VINA RESULT: -9.835323165      0.022      1.494
REMARK  9 active torsions:
REMARK  status: ('A' for Active; 'I' for Inactive)
REMARK    1  A    between atoms: N1_1  and  C1_4 
REMARK    2  A    between atoms: C2_7  and  O1_8 
REMARK    3  A    between atoms: O1_8  and  C3_9 
REMARK    4  A    between atoms: N3_16  and  C9_17 
REMARK    5  A    between atoms: N4_20  and  C12_21 
REMARK    6  A    between atoms: C12_21  and  C13_22 
REMARK    7  A    between atoms: C13_22  and  C14_23 
REMARK    8  A    between atoms: C14_23  and  O2_24 
REMARK    9  A    between atoms: O2_24  and  C15_25 
ROOT
HETATM    1  C1  UNL     1      16.588   5.174  13.439  1.00  0.00     0.111 A 
HETATM    2  N2  UNL     1      16.852   5.779  12.298  1.00  0.00    -0.307 N 
ATOM      3  H2  UNL     1      17.804   6.124  12.169  1.00  0.00     0.171 HD
HETATM    4  C2  UNL     1      15.977   5.990  11.272  1.00  0.00     0.238 A 
HETATM    5  N3  UNL     1      14.724   5.537  11.452  1.00  0.00    -0.278 N 
HETATM    6  C23 UNL     1      14.415   4.894  12.640  1.00  0.00     0.089 A 
HETATM    7  C24 UNL     1      15.288   4.683  13.654  1.00  0.00     0.020 A 
HETATM    8  C25 UNL     1      14.761   3.978  14.832  1.00  0.00     0.056 C 
HETATM    9  C26 UNL     1      13.297   4.276  14.998  1.00  0.00     0.086 C 
HETATM   10  S1  UNL     1      12.835   4.189  13.206  1.00  0.00    -0.111 SA
ENDROOT
BRANCH   5  11
HETATM   11  C9  UNL     1      13.605   5.775  10.631  1.00  0.00     0.002 C 
HETATM   12  C10 UNL     1      13.507   7.029   9.842  1.00  0.00     0.083 C 
HETATM   13  C11 UNL     1      12.044   7.346   9.720  1.00  0.00     0.278 C 
HETATM   14  N4  UNL     1      11.114   6.288   9.662  1.00  0.00     0.089 N 
HETATM   15  C21 UNL     1      11.587   4.959   9.556  1.00  0.00     0.278 C 
HETATM   16  C22 UNL     1      13.050   4.694   9.774  1.00  0.00     0.083 C 
BRANCH  14  17
HETATM   17  C12 UNL     1      10.060   6.414  10.672  1.00  0.00     0.274 C 
BRANCH  17  18
HETATM   18  C13 UNL     1       8.776   5.746  10.293  1.00  0.00     0.057 C 
BRANCH  18  19
HETATM   19  C14 UNL     1       8.295   4.788  11.363  1.00  0.00     0.177 C 
BRANCH  19  20
HETATM   20  O2  UNL     1       9.289   4.072  12.013  1.00  0.00    -0.348 OA
BRANCH  20  21
HETATM   21  C15 UNL     1       9.068   3.460  13.229  1.00  0.00     0.112 A 
HETATM   22  C16 UNL     1       9.263   4.153  14.417  1.00  0.00     0.070 A 
HETATM   23 CL1  UNL     1       9.795   5.833  14.435  1.00  0.00    -0.081 Cl
HETATM   24  C17 UNL     1       9.048   3.563  15.641  1.00  0.00     0.050 A 
HETATM   25  C18 UNL     1       8.630   2.255  15.701  1.00  0.00     0.037 A 
HETATM   26 CL2  UNL     1       8.342   1.470  17.256  1.00  0.00    -0.084 Cl
HETATM   27  C19 UNL     1       8.433   1.559  14.540  1.00  0.00     0.050 A 
HETATM   28  C20 UNL     1       8.649   2.150  13.317  1.00  0.00     0.070 A 
HETATM   29 CL3  UNL     1       8.377   1.189  11.887  1.00  0.00    -0.081 Cl
ENDBRANCH  20  21
ENDBRANCH  19  20
ENDBRANCH  18  19
ENDBRANCH  17  18
ENDBRANCH  14  17
ENDBRANCH   5  11
BRANCH   4  30
HETATM   30  O1  UNL     1      16.348   6.624  10.157  1.00  0.00    -0.276 OA
BRANCH  30  31
HETATM   31  C3  UNL     1      16.978   7.788   9.850  1.00  0.00     0.117 A 
HETATM   32  C4  UNL     1      18.079   7.654   8.947  1.00  0.00     0.040 A 
HETATM   33  C5  UNL     1      18.809   8.741   8.541  1.00  0.00     0.003 A 
HETATM   34  C6  UNL     1      18.516  10.011   8.984  1.00  0.00     0.003 A 
HETATM   35  C7  UNL     1      17.476  10.180   9.841  1.00  0.00     0.045 A 
HETATM   36  C8  UNL     1      16.744   9.065  10.242  1.00  0.00     0.150 A 
HETATM   37  F1  UNL     1      15.692   9.347  11.030  1.00  0.00    -0.203 F 
ENDBRANCH  30  31
ENDBRANCH   4  30
BRANCH   1  38
HETATM   38  N1  UNL     1      17.462   5.004  14.391  1.00  0.00    -0.385 N 
ATOM     39  H12 UNL     1      18.423   4.797  14.118  1.00  0.00     0.157 HD
ATOM     40  H11 UNL     1      17.240   5.063  15.385  1.00  0.00     0.157 HD
ENDBRANCH   1  38
TORSDOF 9
ENDMDL
MODEL 3
REMARK VINA RESULT: -9.786687484      1.405      1.638
REMARK  9 active torsions:
REMARK  status: ('A' for Active; 'I' for Inactive)
REMARK    1  A    between atoms: N1_1  and  C1_4 
REMARK    2  A    between atoms: C2_7  and  O1_8 
REMARK    3  A    between atoms: O1_8  and  C3_9 
REMARK    4  A    between atoms: N3_16  and  C9_17 
REMARK    5  A    between atoms: N4_20  and  C12_21 
REMARK    6  A    between atoms: C12_21  and  C13_22 
REMARK    7  A    between atoms: C13_22  and  C14_23 
REMARK    8  A    between atoms: C14_23  and  O2_24 
REMARK    9  A    between atoms: O2_24  and  C15_25 
ROOT
HETATM    1  C1  UNL     1      16.717   4.684  13.716  1.00  0.00     0.111 A 
HETATM    2  N2  UNL     1      17.095   4.957  12.482  1.00  0.00    -0.307 N 
ATOM      3  H2  UNL     1      18.099   5.014  12.310  1.00  0.00     0.171 HD
HETATM    4  C2  UNL     1      16.274   5.169  11.412  1.00  0.00     0.238 A 
HETATM    5  N3  UNL     1      14.952   5.096  11.648  1.00  0.00    -0.278 N 
HETATM    6  C23 UNL     1      14.523   4.809  12.934  1.00  0.00     0.089 A 
HETATM    7  C24 UNL     1      15.341   4.595  13.993  1.00  0.00     0.020 A 
HETATM    8  C25 UNL     1      14.684   4.303  15.275  1.00  0.00     0.056 C 
HETATM    9  C26 UNL     1      13.350   4.991  15.338  1.00  0.00     0.086 C 
HETATM   10  S1  UNL     1      12.832   4.660  13.590  1.00  0.00    -0.111 SA
ENDROOT
BRANCH   5  11
HETATM   11  C9  UNL     1      13.909   5.438  10.768  1.00  0.00     0.002 C 
HETATM   12  C10 UNL     1      13.981   6.686   9.968  1.00  0.00     0.083 C 
HETATM   13  C11 UNL     1      12.567   7.150   9.766  1.00  0.00     0.278 C 
HETATM   14  N4  UNL     1      11.538   6.191   9.663  1.00  0.00     0.089 N 
HETATM   15  C21 UNL     1      11.878   4.820   9.590  1.00  0.00     0.278 C 
HETATM   16  C22 UNL     1      13.293   4.410   9.887  1.00  0.00     0.083 C 
BRANCH  14  17
HETATM   17  C12 UNL     1      10.451   6.435  10.614  1.00  0.00     0.274 C 
BRANCH  17  18
HETATM   18  C13 UNL     1       9.575   5.245  10.849  1.00  0.00     0.057 C 
BRANCH  18  19
HETATM   19  C14 UNL     1       8.260   5.625  11.499  1.00  0.00     0.177 C 
BRANCH  19  20
HETATM   20  O2  UNL     1       7.730   4.682  12.366  1.00  0.00    -0.348 OA
BRANCH  20  21
HETATM   21  C15 UNL     1       8.517   3.997  13.268  1.00  0.00     0.112 A 
HETATM   22  C16 UNL     1       8.862   2.670  13.042  1.00  0.00     0.070 A 
HETATM   23 CL1  UNL     1       8.320   1.801  11.609  1.00  0.00    -0.081 Cl
HETATM   24  C17 UNL     1       9.649   1.968  13.927  1.00  0.00     0.050 A 
HETATM   25  C18 UNL     1      10.109   2.585  15.065  1.00  0.00     0.037 A 
HETATM   26 CL2  UNL     1      11.121   1.713  16.218  1.00  0.00    -0.084 Cl
HETATM   27  C19 UNL     1       9.779   3.892  15.301  1.00  0.00     0.050 A 
HETATM   28  C20 UNL     1       8.993   4.592  14.416  1.00  0.00     0.070 A 
HETATM   29 CL3  UNL     1       8.617   6.253  14.796  1.00  0.00    -0.081 Cl
ENDBRANCH  20  21
ENDBRANCH  19  20
ENDBRANCH  18  19
ENDBRANCH  17  18
ENDBRANCH  14  17
ENDBRANCH   5  11
BRANCH   4  30
HETATM   30  O1  UNL     1      16.764   5.446  10.201  1.00  0.00    -0.276 OA
BRANCH  30  31
HETATM   31  C3  UNL     1      17.554   6.407   9.656  1.00  0.00     0.117 A 
HETATM   32  C4  UNL     1      17.045   7.739   9.773  1.00  0.00     0.040 A 
HETATM   33  C5  UNL     1      17.734   8.815   9.276  1.00  0.00     0.003 A 
HETATM   34  C6  UNL     1      18.945   8.663   8.640  1.00  0.00     0.003 A 
HETATM   35  C7  UNL     1      19.463   7.414   8.510  1.00  0.00     0.045 A 
HETATM   36  C8  UNL     1      18.751   6.332   9.023  1.00  0.00     0.150 A 
HETATM   37  F1  UNL     1      19.382   5.151   8.910  1.00  0.00    -0.203 F 
ENDBRANCH  30  31
ENDBRANCH   4  30
BRANCH   1  38
HETATM   38  N1  UNL     1      17.545   4.496  14.705  1.00  0.00    -0.385 N 
ATOM     39  H12 UNL     1      17.692   3.538  15.022  1.00  0.00     0.157 HD
ATOM     40  H11 UNL     1      18.047   5.248  15.177  1.00  0.00     0.157 HD
ENDBRANCH   1  38
TORSDOF 9
ENDMDL
MODEL 4
REMARK VINA RESULT: -9.745321544      1.388      2.190
REMARK  9 active torsions:
REMARK  status: ('A' for Active; 'I' for Inactive)
REMARK    1  A    between atoms: N1_1  and  C1_4 
REMARK    2  A    between atoms: C2_7  and  O1_8 
REMARK    3  A    between atoms: O1_8  and  C3_9 
REMARK    4  A    between atoms: N3_16  and  C9_17 
REMARK    5  A    between atoms: N4_20  and  C12_21 
REMARK    6  A    between atoms: C12_21  and  C13_22 
REMARK    7  A    between atoms: C13_22  and  C14_23 
REMARK    8  A    between atoms: C14_23  and  O2_24 
REMARK    9  A    between atoms: O2_24  and  C15_25 
ROOT
HETATM    1  C1  UNL     1      16.639   4.650  13.738  1.00  0.00     0.111 A 
HETATM    2  N2  UNL     1      17.035   4.925  12.510  1.00  0.00    -0.307 N 
ATOM      3  H2  UNL     1      18.042   4.977  12.353  1.00  0.00     0.171 HD
HETATM    4  C2  UNL     1      16.231   5.147  11.431  1.00  0.00     0.238 A 
HETATM    5  N3  UNL     1      14.906   5.082  11.648  1.00  0.00    -0.278 N 
HETATM    6  C23 UNL     1      14.457   4.792  12.926  1.00  0.00     0.089 A 
HETATM    7  C24 UNL     1      15.259   4.568  13.995  1.00  0.00     0.020 A 
HETATM    8  C25 UNL     1      14.582   4.275  15.267  1.00  0.00     0.056 C 
HETATM    9  C26 UNL     1      13.252   4.971  15.315  1.00  0.00     0.086 C 
HETATM   10  S1  UNL     1      12.756   4.651  13.559  1.00  0.00    -0.111 SA
ENDROOT
BRANCH   5  11
HETATM   11  C9  UNL     1      13.877   5.434  10.754  1.00  0.00     0.002 C 
HETATM   12  C10 UNL     1      13.969   6.685   9.960  1.00  0.00     0.083 C 
HETATM   13  C11 UNL     1      12.561   7.159   9.740  1.00  0.00     0.278 C 
HETATM   14  N4  UNL     1      11.527   6.208   9.621  1.00  0.00     0.089 N 
HETATM   15  C21 UNL     1      11.858   4.835   9.547  1.00  0.00     0.278 C 
HETATM   16  C22 UNL     1      13.266   4.414   9.862  1.00  0.00     0.083 C 
BRANCH  14  17
HETATM   17  C12 UNL     1      10.428   6.456  10.558  1.00  0.00     0.274 C 
BRANCH  17  18
HETATM   18  C13 UNL     1       9.606   5.243  10.861  1.00  0.00     0.057 C 
BRANCH  18  19
HETATM   19  C14 UNL     1       8.276   5.600  11.491  1.00  0.00     0.177 C 
BRANCH  19  20
HETATM   20  O2  UNL     1       7.738   4.639  12.332  1.00  0.00    -0.348 OA
BRANCH  20  21
HETATM   21  C15 UNL     1       8.516   3.944  13.235  1.00  0.00     0.112 A 
HETATM   22  C16 UNL     1       8.974   4.556  14.395  1.00  0.00     0.070 A 
HETATM   23 CL1  UNL     1       8.589   6.234  14.773  1.00  0.00    -0.081 Cl
HETATM   24  C17 UNL     1       9.749   3.882  15.310  1.00  0.00     0.050 A 
HETATM   25  C18 UNL     1      10.085   2.569  15.080  1.00  0.00     0.037 A 
HETATM   26 CL2  UNL     1      11.076   1.676  16.235  1.00  0.00    -0.084 Cl
HETATM   27  C19 UNL     1       9.641   1.952  13.943  1.00  0.00     0.050 A 
HETATM   28  C20 UNL     1       8.866   2.627  13.029  1.00  0.00     0.070 A 
HETATM   29 CL3  UNL     1       8.347   1.765  11.604  1.00  0.00    -0.081 Cl
ENDBRANCH  20  21
ENDBRANCH  19  20
ENDBRANCH  18  19
ENDBRANCH  17  18
ENDBRANCH  14  17
ENDBRANCH   5  11
BRANCH   4  30
HETATM   30  O1  UNL     1      16.740   5.426  10.227  1.00  0.00    -0.276 OA
BRANCH  30  31
HETATM   31  C3  UNL     1      17.508   6.408   9.688  1.00  0.00     0.117 A 
HETATM   32  C4  UNL     1      16.981   7.730   9.835  1.00  0.00     0.040 A 
HETATM   33  C5  UNL     1      17.647   8.824   9.347  1.00  0.00     0.003 A 
HETATM   34  C6  UNL     1      18.852   8.702   8.692  1.00  0.00     0.003 A 
HETATM   35  C7  UNL     1      19.385   7.463   8.533  1.00  0.00     0.045 A 
HETATM   36  C8  UNL     1      18.697   6.362   9.038  1.00  0.00     0.150 A 
HETATM   37  F1  UNL     1      19.343   5.192   8.896  1.00  0.00    -0.203 F 
ENDBRANCH  30  31
ENDBRANCH   4  30
BRANCH   1  38
HETATM   38  N1  UNL     1      17.452   4.452  14.737  1.00  0.00    -0.385 N 
ATOM     39  H12 UNL     1      18.257   5.073  14.821  1.00  0.00     0.157 HD
ATOM     40  H11 UNL     1      17.331   3.715  15.432  1.00  0.00     0.157 HD
ENDBRANCH   1  38
TORSDOF 9
ENDMDL
MODEL 5
REMARK VINA RESULT: -9.579698346      4.955      9.706
REMARK  9 active torsions:
REMARK  status: ('A' for Active; 'I' for Inactive)
REMARK    1  A    between atoms: N1_1  and  C1_4 
REMARK    2  A    between atoms: C2_7  and  O1_8 
REMARK    3  A    between atoms: O1_8  and  C3_9 
REMARK    4  A    between atoms: N3_16  and  C9_17 
REMARK    5  A    between atoms: N4_20  and  C12_21 
REMARK    6  A    between atoms: C12_21  and  C13_22 
REMARK    7  A    between atoms: C13_22  and  C14_23 
REMARK    8  A    between atoms: C14_23  and  O2_24 
REMARK    9  A    between atoms: O2_24  and  C15_25 
ROOT
HETATM    1  C1  UNL     1      10.807   5.834  10.715  1.00  0.00     0.111 A 
HETATM    2  N2  UNL     1      10.220   5.374  11.803  1.00  0.00    -0.307 N 
ATOM      3  H2  UNL     1       9.203   5.443  11.840  1.00  0.00     0.171 HD
HETATM    4  C2  UNL     1      10.839   4.817  12.884  1.00  0.00     0.238 A 
HETATM    5  N3  UNL     1      12.180   4.736  12.829  1.00  0.00    -0.278 N 
HETATM    6  C23 UNL     1      12.828   5.207  11.698  1.00  0.00     0.089 A 
HETATM    7  C24 UNL     1      12.209   5.756  10.625  1.00  0.00     0.020 A 
HETATM    8  C25 UNL     1      13.079   6.193   9.524  1.00  0.00     0.056 C 
HETATM    9  C26 UNL     1      14.416   6.618  10.063  1.00  0.00     0.086 C 
HETATM   10  S1  UNL     1      14.606   5.265  11.314  1.00  0.00    -0.111 SA
ENDROOT
BRANCH   5  11
HETATM   11  C9  UNL     1      13.055   4.365  13.867  1.00  0.00     0.002 C 
HETATM   12  C10 UNL     1      13.075   5.130  15.140  1.00  0.00     0.083 C 
HETATM   13  C11 UNL     1      14.477   5.042  15.673  1.00  0.00     0.278 C 
HETATM   14  N4  UNL     1      15.234   3.878  15.425  1.00  0.00     0.089 N 
HETATM   15  C21 UNL     1      14.606   2.762  14.826  1.00  0.00     0.278 C 
HETATM   16  C22 UNL     1      13.235   2.936  14.234  1.00  0.00     0.083 C 
BRANCH  14  17
HETATM   17  C12 UNL     1      16.528   4.175  14.806  1.00  0.00     0.274 C 
BRANCH  17  18
HETATM   18  C13 UNL     1      17.681   4.115  15.757  1.00  0.00     0.057 C 
BRANCH  18  19
HETATM   19  C14 UNL     1      18.146   5.495  16.177  1.00  0.00     0.177 C 
BRANCH  19  20
HETATM   20  O2  UNL     1      19.344   5.535  16.873  1.00  0.00    -0.348 OA
BRANCH  20  21
HETATM   21  C15 UNL     1      19.435   6.087  18.133  1.00  0.00     0.112 A 
HETATM   22  C16 UNL     1      18.886   5.438  19.233  1.00  0.00     0.070 A 
HETATM   23 CL1  UNL     1      18.053   3.893  19.078  1.00  0.00    -0.081 Cl
HETATM   24  C17 UNL     1      18.968   5.969  20.500  1.00  0.00     0.050 A 
HETATM   25  C18 UNL     1      19.606   7.171  20.693  1.00  0.00     0.037 A 
HETATM   26 CL2  UNL     1      19.729   7.877  22.306  1.00  0.00    -0.084 Cl
HETATM   27  C19 UNL     1      20.152   7.821  19.621  1.00  0.00     0.050 A 
HETATM   28  C20 UNL     1      20.070   7.289  18.355  1.00  0.00     0.070 A 
HETATM   29 CL3  UNL     1      20.791   8.187  17.045  1.00  0.00    -0.081 Cl
ENDBRANCH  20  21
ENDBRANCH  19  20
ENDBRANCH  18  19
ENDBRANCH  17  18
ENDBRANCH  14  17
ENDBRANCH   5  11
BRANCH   4  30
HETATM   30  O1  UNL     1      10.146   4.389  13.942  1.00  0.00    -0.276 OA
BRANCH  30  31
HETATM   31  C3  UNL     1       9.304   3.358  14.215  1.00  0.00     0.117 A 
HETATM   32  C4  UNL     1       9.179   3.038  15.603  1.00  0.00     0.040 A 
HETATM   33  C5  UNL     1       8.362   2.025  16.034  1.00  0.00     0.003 A 
HETATM   34  C6  UNL     1       7.625   1.270  15.150  1.00  0.00     0.003 A 
HETATM   35  C7  UNL     1       7.715   1.543  13.823  1.00  0.00     0.045 A 
HETATM   36  C8  UNL     1       8.549   2.578  13.403  1.00  0.00     0.150 A 
HETATM   37  F1  UNL     1       8.510   2.818  12.081  1.00  0.00    -0.203 F 
ENDBRANCH  30  31
ENDBRANCH   4  30
BRANCH   1  38
HETATM   38  N1  UNL     1      10.167   6.363   9.712  1.00  0.00    -0.385 N 
ATOM     39  H12 UNL     1       9.453   7.061   9.923  1.00  0.00     0.157 HD
ATOM     40  H11 UNL     1      10.335   6.119   8.736  1.00  0.00     0.157 HD
ENDBRANCH   1  38
TORSDOF 9
ENDMDL
