MODEL 1
REMARK VINA RESULT: -8.348655315      0.000      0.000
REMARK  5 active torsions:
REMARK  status: ('A' for Active; 'I' for Inactive)
REMARK       I    between atoms: C1_4  and  N2_5 
REMARK       I    between atoms: C1_4  and  N4_10 
REMARK    1  A    between atoms: N2_5  and  N3_7 
REMARK    2  A    between atoms: N4_10  and  S1_12 
REMARK    3  A    between atoms: S1_12  and  C2_15 
REMARK    4  A    between atoms: C4_17  and  N5_18 
REMARK       I    between atoms: N6_20  and  C5_22 
REMARK       I    between atoms: C5_22  and  N7_23 
REMARK       I    between atoms: C5_22  and  N8_27 
REMARK    5  A    between atoms: N10_35  and  N11_36 
ROOT
HETATM    1  C2  UNL     1     -31.023  18.951 -15.395  1.00  0.00     0.153 C 
HETATM    2  C3  UNL     1     -30.606  19.612 -14.180  1.00  0.00     0.092 A 
HETATM    3  C4  UNL     1     -31.222  19.196 -12.987  1.00  0.00     0.140 A 
HETATM    4  N9  UNL     1     -30.920  19.738 -11.812  1.00  0.00    -0.291 N 
ATOM      5  H9  UNL     1     -31.393  19.404 -10.972  1.00  0.00     0.172 HD
HETATM    6  C6  UNL     1     -30.005  20.713 -11.708  1.00  0.00     0.349 A 
HETATM    7  O3  UNL     1     -29.740  21.209 -10.565  1.00  0.00    -0.244 OA
HETATM    8  N10 UNL     1     -29.400  21.134 -12.821  1.00  0.00    -0.174 N 
HETATM    9  C7  UNL     1     -29.684  20.602 -14.046  1.00  0.00     0.284 A 
HETATM   10  O4  UNL     1     -29.041  21.087 -15.031  1.00  0.00    -0.265 OA
ENDROOT
BRANCH   1  11
HETATM   11  S1  UNL     1     -30.302  19.398 -16.909  1.00  0.00     0.267 S 
HETATM   12  O1  UNL     1     -30.796  18.618 -18.100  1.00  0.00    -0.201 OA
HETATM   13  O2  UNL     1     -30.371  20.865 -17.225  1.00  0.00    -0.201 OA
BRANCH  11  14
HETATM   14  N4  UNL     1     -28.601  18.975 -16.791  1.00  0.00    -0.112 N 
HETATM   15  C1  UNL     1     -27.644  19.570 -17.647  1.00  0.00     0.699 C 
HETATM   16  N1  UNL     1     -27.825  20.780 -18.021  1.00  0.00    -0.233 N 
HETATM   17  N2  UNL     1     -26.509  18.838 -18.078  1.00  0.00    -0.138 N 
ATOM     18  H12 UNL     1     -27.136  21.208 -18.638  1.00  0.00     0.174 HD
ATOM     19  H11 UNL     1     -28.642  21.306 -17.711  1.00  0.00     0.174 HD
ATOM     20  H2  UNL     1     -25.580  19.229 -17.918  1.00  0.00     0.205 HD
ATOM     21  H4  UNL     1     -28.299  18.292 -16.096  1.00  0.00     0.197 HD
BRANCH  17  22
HETATM   22  N3  UNL     1     -26.620  17.597 -18.716  1.00  0.00    -0.331 N 
ATOM     23  H32 UNL     1     -26.223  16.783 -18.248  1.00  0.00     0.177 HD
ATOM     24  H31 UNL     1     -27.081  17.491 -19.620  1.00  0.00     0.177 HD
ENDBRANCH  17  22
ENDBRANCH  11  14
ENDBRANCH   1  11
BRANCH   3  25
HETATM   25  N5  UNL     1     -32.188  18.178 -13.039  1.00  0.00    -0.286 N 
HETATM   26  N6  UNL     1     -32.887  17.886 -12.033  1.00  0.00    -0.282 N 
HETATM   27  C5  UNL     1     -33.889  16.876 -11.978  1.00  0.00     0.494 C 
ATOM     28  H6  UNL     1     -32.721  18.421 -11.182  1.00  0.00     0.184 HD
HETATM   29  N7  UNL     1     -34.944  17.158 -11.026  1.00  0.00    -0.032 N 
HETATM   30  N8  UNL     1     -33.381  15.555 -11.677  1.00  0.00    -0.032 N 
ATOM     31  H73 UNL     1     -34.557  17.333 -10.099  1.00  0.00     0.279 HD
ATOM     32  H72 UNL     1     -35.361  18.071 -11.211  1.00  0.00     0.279 HD
ATOM     33  H71 UNL     1     -35.663  16.435 -10.987  1.00  0.00     0.279 HD
ATOM     34  H83 UNL     1     -32.648  15.295 -12.336  1.00  0.00     0.279 HD
ATOM     35  H82 UNL     1     -32.840  15.569 -10.812  1.00  0.00     0.279 HD
ATOM     36  H81 UNL     1     -34.100  14.831 -11.637  1.00  0.00     0.279 HD
ATOM     37  H5  UNL     1     -32.325  17.664 -13.909  1.00  0.00     0.188 HD
ENDBRANCH   3  25
BRANCH   8  38
HETATM   38  N11 UNL     1     -28.435  22.161 -12.724  1.00  0.00    -0.332 N 
ATOM     39 2H11 UNL     1     -27.605  22.012 -12.149  1.00  0.00     0.177 HD
ATOM     40 1H11 UNL     1     -28.591  23.033 -13.231  1.00  0.00     0.177 HD
ENDBRANCH   8  38
TORSDOF 5
ENDMDL
MODEL 2
REMARK VINA RESULT: -7.837406601      2.367      6.513
REMARK  5 active torsions:
REMARK  status: ('A' for Active; 'I' for Inactive)
REMARK       I    between atoms: C1_4  and  N2_5 
REMARK       I    between atoms: C1_4  and  N4_10 
REMARK    1  A    between atoms: N2_5  and  N3_7 
REMARK    2  A    between atoms: N4_10  and  S1_12 
REMARK    3  A    between atoms: S1_12  and  C2_15 
REMARK    4  A    between atoms: C4_17  and  N5_18 
REMARK       I    between atoms: N6_20  and  C5_22 
REMARK       I    between atoms: C5_22  and  N7_23 
REMARK       I    between atoms: C5_22  and  N8_27 
REMARK    5  A    between atoms: N10_35  and  N11_36 
ROOT
HETATM    1  C2  UNL     1     -31.350  20.067 -13.227  1.00  0.00     0.153 C 
HETATM    2  C3  UNL     1     -30.470  19.841 -14.350  1.00  0.00     0.092 A 
HETATM    3  C4  UNL     1     -29.154  20.320 -14.231  1.00  0.00     0.140 A 
HETATM    4  N9  UNL     1     -28.260  20.172 -15.203  1.00  0.00    -0.291 N 
ATOM      5  H9  UNL     1     -27.316  20.535 -15.072  1.00  0.00     0.172 HD
HETATM    6  C6  UNL     1     -28.573  19.555 -16.351  1.00  0.00     0.349 A 
HETATM    7  O3  UNL     1     -27.691  19.431 -17.262  1.00  0.00    -0.244 OA
HETATM    8  N10 UNL     1     -29.815  19.088 -16.500  1.00  0.00    -0.174 N 
HETATM    9  C7  UNL     1     -30.761  19.221 -15.523  1.00  0.00     0.284 A 
HETATM   10  O4  UNL     1     -31.908  18.734 -15.784  1.00  0.00    -0.265 OA
ENDROOT
BRANCH   1  11
HETATM   11  S1  UNL     1     -32.988  19.497 -13.289  1.00  0.00     0.267 S 
HETATM   12  O1  UNL     1     -33.803  19.777 -12.053  1.00  0.00    -0.201 OA
HETATM   13  O2  UNL     1     -33.761  19.948 -14.496  1.00  0.00    -0.201 OA
BRANCH  11  14
HETATM   14  N4  UNL     1     -32.899  17.743 -13.360  1.00  0.00    -0.112 N 
HETATM   15  C1  UNL     1     -33.988  16.943 -12.936  1.00  0.00     0.699 C 
HETATM   16  N1  UNL     1     -35.175  17.384 -13.113  1.00  0.00    -0.233 N 
HETATM   17  N2  UNL     1     -33.762  15.682 -12.331  1.00  0.00    -0.138 N 
ATOM     18  H12 UNL     1     -35.959  16.808 -12.808  1.00  0.00     0.174 HD
ATOM     19  H11 UNL     1     -35.337  18.291 -13.548  1.00  0.00     0.174 HD
ATOM     20  H2  UNL     1     -34.214  14.857 -12.726  1.00  0.00     0.205 HD
ATOM     21  H4  UNL     1     -32.053  17.295 -13.711  1.00  0.00     0.197 HD
BRANCH  17  22
HETATM   22  N3  UNL     1     -32.939  15.530 -11.209  1.00  0.00    -0.331 N 
ATOM     23  H32 UNL     1     -32.086  14.981 -11.314  1.00  0.00     0.177 HD
ATOM     24  H31 UNL     1     -33.167  15.948 -10.307  1.00  0.00     0.177 HD
ENDBRANCH  17  22
ENDBRANCH  11  14
ENDBRANCH   1  11
BRANCH   3  25
HETATM   25  N5  UNL     1     -28.771  20.974 -13.049  1.00  0.00    -0.286 N 
HETATM   26  N6  UNL     1     -28.691  22.229 -12.990  1.00  0.00    -0.282 N 
HETATM   27  C5  UNL     1     -28.315  22.989 -11.847  1.00  0.00     0.494 C 
ATOM     28  H6  UNL     1     -28.916  22.748 -13.838  1.00  0.00     0.184 HD
HETATM   29  N7  UNL     1     -28.910  24.310 -11.808  1.00  0.00    -0.032 N 
HETATM   30  N8  UNL     1     -26.886  23.157 -11.691  1.00  0.00    -0.032 N 
ATOM     31  H73 UNL     1     -28.704  24.823 -12.666  1.00  0.00     0.279 HD
ATOM     32  H72 UNL     1     -29.925  24.251 -11.884  1.00  0.00     0.279 HD
ATOM     33  H71 UNL     1     -28.641  24.855 -10.988  1.00  0.00     0.279 HD
ATOM     34  H83 UNL     1     -26.419  22.250 -11.687  1.00  0.00     0.279 HD
ATOM     35  H82 UNL     1     -26.480  23.558 -12.536  1.00  0.00     0.279 HD
ATOM     36  H81 UNL     1     -26.617  23.702 -10.871  1.00  0.00     0.279 HD
ATOM     37  H5  UNL     1     -28.553  20.421 -12.220  1.00  0.00     0.188 HD
ENDBRANCH   3  25
BRANCH   8  38
HETATM   38  N11 UNL     1     -30.157  18.436 -17.706  1.00  0.00    -0.332 N 
ATOM     39 2H11 UNL     1     -31.121  18.131 -17.851  1.00  0.00     0.177 HD
ATOM     40 1H11 UNL     1     -29.430  18.282 -18.405  1.00  0.00     0.177 HD
ENDBRANCH   8  38
TORSDOF 5
ENDMDL
MODEL 3
REMARK VINA RESULT: -7.820400598      2.458      6.637
REMARK  5 active torsions:
REMARK  status: ('A' for Active; 'I' for Inactive)
REMARK       I    between atoms: C1_4  and  N2_5 
REMARK       I    between atoms: C1_4  and  N4_10 
REMARK    1  A    between atoms: N2_5  and  N3_7 
REMARK    2  A    between atoms: N4_10  and  S1_12 
REMARK    3  A    between atoms: S1_12  and  C2_15 
REMARK    4  A    between atoms: C4_17  and  N5_18 
REMARK       I    between atoms: N6_20  and  C5_22 
REMARK       I    between atoms: C5_22  and  N7_23 
REMARK       I    between atoms: C5_22  and  N8_27 
REMARK    5  A    between atoms: N10_35  and  N11_36 
ROOT
HETATM    1  C2  UNL     1     -31.900  20.058 -13.593  1.00  0.00     0.153 C 
HETATM    2  C3  UNL     1     -30.852  20.018 -14.586  1.00  0.00     0.092 A 
HETATM    3  C4  UNL     1     -29.731  20.836 -14.359  1.00  0.00     0.140 A 
HETATM    4  N9  UNL     1     -28.710  20.882 -15.209  1.00  0.00    -0.291 N 
ATOM      5  H9  UNL     1     -27.917  21.490 -15.003  1.00  0.00     0.172 HD
HETATM    6  C6  UNL     1     -28.701  20.147 -16.330  1.00  0.00     0.349 A 
HETATM    7  O3  UNL     1     -27.705  20.217 -17.122  1.00  0.00    -0.244 OA
HETATM    8  N10 UNL     1     -29.750  19.359 -16.579  1.00  0.00    -0.174 N 
HETATM    9  C7  UNL     1     -30.817  19.285 -15.729  1.00  0.00     0.284 A 
HETATM   10  O4  UNL     1     -31.755  18.498 -16.076  1.00  0.00    -0.265 OA
ENDROOT
BRANCH   1  11
HETATM   11  S1  UNL     1     -33.313  19.070 -13.792  1.00  0.00     0.267 S 
HETATM   12  O1  UNL     1     -34.368  19.649 -14.698  1.00  0.00    -0.201 OA
HETATM   13  O2  UNL     1     -33.031  17.656 -14.213  1.00  0.00    -0.201 OA
BRANCH  11  14
HETATM   14  N4  UNL     1     -34.090  18.994 -12.217  1.00  0.00    -0.112 N 
HETATM   15  C1  UNL     1     -33.678  18.047 -11.249  1.00  0.00     0.699 C 
HETATM   16  N1  UNL     1     -32.444  17.715 -11.205  1.00  0.00    -0.233 N 
HETATM   17  N2  UNL     1     -34.616  17.483 -10.348  1.00  0.00    -0.138 N 
ATOM     18  H12 UNL     1     -32.147  17.033 -10.508  1.00  0.00     0.174 HD
ATOM     19  H11 UNL     1     -31.769  18.121 -11.854  1.00  0.00     0.174 HD
ATOM     20  H2  UNL     1     -34.436  17.547  -9.346  1.00  0.00     0.205 HD
ATOM     21  H4  UNL     1     -34.847  19.641 -11.998  1.00  0.00     0.197 HD
BRANCH  17  22
HETATM   22  N3  UNL     1     -35.779  16.843 -10.789  1.00  0.00    -0.331 N 
ATOM     23  H32 UNL     1     -36.588  17.423 -11.011  1.00  0.00     0.177 HD
ATOM     24  H31 UNL     1     -35.836  15.830 -10.890  1.00  0.00     0.177 HD
ENDBRANCH  17  22
ENDBRANCH  11  14
ENDBRANCH   1  11
BRANCH   3  25
HETATM   25  N5  UNL     1     -29.688  21.627 -13.200  1.00  0.00    -0.286 N 
HETATM   26  N6  UNL     1     -28.602  21.870 -12.612  1.00  0.00    -0.282 N 
HETATM   27  C5  UNL     1     -28.448  22.657 -11.436  1.00  0.00     0.494 C 
ATOM     28  H6  UNL     1     -27.756  21.466 -13.014  1.00  0.00     0.184 HD
HETATM   29  N7  UNL     1     -27.160  23.314 -11.344  1.00  0.00    -0.032 N 
HETATM   30  N8  UNL     1     -28.645  21.925 -10.203  1.00  0.00    -0.032 N 
ATOM     31  H73 UNL     1     -26.402  22.637 -11.426  1.00  0.00     0.279 HD
ATOM     32  H72 UNL     1     -26.980  23.873 -12.178  1.00  0.00     0.279 HD
ATOM     33  H71 UNL     1     -27.049  23.879 -10.501  1.00  0.00     0.279 HD
ATOM     34  H83 UNL     1     -29.553  21.460 -10.206  1.00  0.00     0.279 HD
ATOM     35  H82 UNL     1     -28.033  21.109 -10.171  1.00  0.00     0.279 HD
ATOM     36  H81 UNL     1     -28.534  22.489  -9.360  1.00  0.00     0.279 HD
ATOM     37  H5  UNL     1     -30.555  22.013 -12.828  1.00  0.00     0.188 HD
ENDBRANCH   3  25
BRANCH   8  38
HETATM   38  N11 UNL     1     -29.751  18.579 -17.757  1.00  0.00    -0.332 N 
ATOM     39 2H11 UNL     1     -30.547  17.970 -17.950  1.00  0.00     0.177 HD
ATOM     40 1H11 UNL     1     -28.953  18.642 -18.389  1.00  0.00     0.177 HD
ENDBRANCH   8  38
TORSDOF 5
ENDMDL
MODEL 4
REMARK VINA RESULT: -7.771236130      1.930      4.081
REMARK  5 active torsions:
REMARK  status: ('A' for Active; 'I' for Inactive)
REMARK       I    between atoms: C1_4  and  N2_5 
REMARK       I    between atoms: C1_4  and  N4_10 
REMARK    1  A    between atoms: N2_5  and  N3_7 
REMARK    2  A    between atoms: N4_10  and  S1_12 
REMARK    3  A    between atoms: S1_12  and  C2_15 
REMARK    4  A    between atoms: C4_17  and  N5_18 
REMARK       I    between atoms: N6_20  and  C5_22 
REMARK       I    between atoms: C5_22  and  N7_23 
REMARK       I    between atoms: C5_22  and  N8_27 
REMARK    5  A    between atoms: N10_35  and  N11_36 
ROOT
HETATM    1  C2  UNL     1     -30.003  19.691 -14.305  1.00  0.00     0.153 C 
HETATM    2  C3  UNL     1     -31.200  19.223 -13.646  1.00  0.00     0.092 A 
HETATM    3  C4  UNL     1     -31.226  19.307 -12.243  1.00  0.00     0.140 A 
HETATM    4  N9  UNL     1     -32.274  18.901 -11.533  1.00  0.00    -0.291 N 
ATOM      5  H9  UNL     1     -32.249  18.981 -10.516  1.00  0.00     0.172 HD
HETATM    6  C6  UNL     1     -33.363  18.390 -12.125  1.00  0.00     0.349 A 
HETATM    7  O3  UNL     1     -34.349  18.011 -11.413  1.00  0.00    -0.244 OA
HETATM    8  N10 UNL     1     -33.373  18.294 -13.457  1.00  0.00    -0.174 N 
HETATM    9  C7  UNL     1     -32.316  18.701 -14.220  1.00  0.00     0.284 A 
HETATM   10  O4  UNL     1     -32.445  18.558 -15.478  1.00  0.00    -0.265 OA
ENDROOT
BRANCH   1  11
HETATM   11  S1  UNL     1     -29.895  19.633 -16.036  1.00  0.00     0.267 S 
HETATM   12  O1  UNL     1     -30.435  18.373 -16.663  1.00  0.00    -0.201 OA
HETATM   13  O2  UNL     1     -30.489  20.820 -16.739  1.00  0.00    -0.201 OA
BRANCH  11  14
HETATM   14  N4  UNL     1     -28.181  19.609 -16.425  1.00  0.00    -0.112 N 
HETATM   15  C1  UNL     1     -27.728  19.910 -17.732  1.00  0.00     0.699 C 
HETATM   16  N1  UNL     1     -28.377  20.770 -18.420  1.00  0.00    -0.233 N 
HETATM   17  N2  UNL     1     -26.580  19.270 -18.261  1.00  0.00    -0.138 N 
ATOM     18  H12 UNL     1     -28.051  20.987 -19.362  1.00  0.00     0.174 HD
ATOM     19  H11 UNL     1     -29.203  21.230 -18.039  1.00  0.00     0.174 HD
ATOM     20  H2  UNL     1     -25.816  19.845 -18.618  1.00  0.00     0.205 HD
ATOM     21  H4  UNL     1     -27.503  19.375 -15.699  1.00  0.00     0.197 HD
BRANCH  17  22
HETATM   22  N3  UNL     1     -26.459  17.877 -18.312  1.00  0.00    -0.331 N 
ATOM     23  H32 UNL     1     -26.862  17.335 -17.547  1.00  0.00     0.177 HD
ATOM     24  H31 UNL     1     -25.988  17.400 -19.080  1.00  0.00     0.177 HD
ENDBRANCH  17  22
ENDBRANCH  11  14
ENDBRANCH   1  11
BRANCH   3  25
HETATM   25  N5  UNL     1     -30.112  19.835 -11.571  1.00  0.00    -0.286 N 
HETATM   26  N6  UNL     1     -30.131  20.993 -11.078  1.00  0.00    -0.282 N 
HETATM   27  C5  UNL     1     -29.062  21.620 -10.380  1.00  0.00     0.494 C 
ATOM     28  H6  UNL     1     -30.991  21.529 -11.189  1.00  0.00     0.184 HD
HETATM   29  N7  UNL     1     -29.502  22.585  -9.392  1.00  0.00    -0.032 N 
HETATM   30  N8  UNL     1     -28.107  22.290 -11.237  1.00  0.00    -0.032 N 
ATOM     31  H73 UNL     1     -30.114  23.282  -9.816  1.00  0.00     0.279 HD
ATOM     32  H72 UNL     1     -30.158  22.157  -8.738  1.00  0.00     0.279 HD
ATOM     33  H71 UNL     1     -28.736  23.035  -8.891  1.00  0.00     0.279 HD
ATOM     34  H83 UNL     1     -27.746  21.645 -11.940  1.00  0.00     0.279 HD
ATOM     35  H82 UNL     1     -28.581  22.960 -11.843  1.00  0.00     0.279 HD
ATOM     36  H81 UNL     1     -27.341  22.740 -10.736  1.00  0.00     0.279 HD
ATOM     37  H5  UNL     1     -29.269  19.267 -11.481  1.00  0.00     0.188 HD
ENDBRANCH   3  25
BRANCH   8  38
HETATM   38  N11 UNL     1     -34.515  17.757 -14.092  1.00  0.00    -0.332 N 
ATOM     39 2H11 UNL     1     -35.336  17.530 -13.531  1.00  0.00     0.177 HD
ATOM     40 1H11 UNL     1     -34.491  17.607 -15.101  1.00  0.00     0.177 HD
ENDBRANCH   8  38
TORSDOF 5
ENDMDL
MODEL 5
REMARK VINA RESULT: -7.390147841      2.112      6.331
REMARK  5 active torsions:
REMARK  status: ('A' for Active; 'I' for Inactive)
REMARK       I    between atoms: C1_4  and  N2_5 
REMARK       I    between atoms: C1_4  and  N4_10 
REMARK    1  A    between atoms: N2_5  and  N3_7 
REMARK    2  A    between atoms: N4_10  and  S1_12 
REMARK    3  A    between atoms: S1_12  and  C2_15 
REMARK    4  A    between atoms: C4_17  and  N5_18 
REMARK       I    between atoms: N6_20  and  C5_22 
REMARK       I    between atoms: C5_22  and  N7_23 
REMARK       I    between atoms: C5_22  and  N8_27 
REMARK    5  A    between atoms: N10_35  and  N11_36 
ROOT
HETATM    1  C2  UNL     1     -31.502  19.226 -14.871  1.00  0.00     0.153 C 
HETATM    2  C3  UNL     1     -30.609  20.010 -14.050  1.00  0.00     0.092 A 
HETATM    3  C4  UNL     1     -29.424  20.463 -14.656  1.00  0.00     0.140 A 
HETATM    4  N9  UNL     1     -28.528  21.189 -13.995  1.00  0.00    -0.291 N 
ATOM      5  H9  UNL     1     -27.682  21.495 -14.475  1.00  0.00     0.172 HD
HETATM    6  C6  UNL     1     -28.713  21.525 -12.710  1.00  0.00     0.349 A 
HETATM    7  O3  UNL     1     -27.833  22.222 -12.108  1.00  0.00    -0.244 OA
HETATM    8  N10 UNL     1     -29.827  21.112 -12.102  1.00  0.00    -0.174 N 
HETATM    9  C7  UNL     1     -30.771  20.365 -12.748  1.00  0.00     0.284 A 
HETATM   10  O4  UNL     1     -31.789  20.032 -12.061  1.00  0.00    -0.265 OA
ENDROOT
BRANCH   1  11
HETATM   11  S1  UNL     1     -32.992  18.638 -14.202  1.00  0.00     0.267 S 
HETATM   12  O1  UNL     1     -33.830  19.682 -13.510  1.00  0.00    -0.201 OA
HETATM   13  O2  UNL     1     -33.856  17.883 -15.171  1.00  0.00    -0.201 OA
BRANCH  11  14
HETATM   14  N4  UNL     1     -32.553  17.518 -12.921  1.00  0.00    -0.112 N 
HETATM   15  C1  UNL     1     -33.504  16.618 -12.386  1.00  0.00     0.699 C 
HETATM   16  N1  UNL     1     -34.406  16.149 -13.162  1.00  0.00    -0.233 N 
HETATM   17  N2  UNL     1     -33.455  16.245 -11.019  1.00  0.00    -0.138 N 
ATOM     18  H12 UNL     1     -35.092  15.500 -12.776  1.00  0.00     0.174 HD
ATOM     19  H11 UNL     1     -34.442  16.417 -14.145  1.00  0.00     0.174 HD
ATOM     20  H2  UNL     1     -33.416  15.254 -10.779  1.00  0.00     0.205 HD
ATOM     21  H4  UNL     1     -31.599  17.517 -12.559  1.00  0.00     0.197 HD
BRANCH  17  22
HETATM   22  N3  UNL     1     -33.456  17.191  -9.988  1.00  0.00    -0.331 N 
ATOM     23  H32 UNL     1     -33.871  18.103 -10.178  1.00  0.00     0.177 HD
ATOM     24  H31 UNL     1     -33.059  16.994  -9.070  1.00  0.00     0.177 HD
ENDBRANCH  17  22
ENDBRANCH  11  14
ENDBRANCH   1  11
BRANCH   3  25
HETATM   25  N5  UNL     1     -29.179  20.139 -16.000  1.00  0.00    -0.286 N 
HETATM   26  N6  UNL     1     -28.043  19.759 -16.387  1.00  0.00    -0.282 N 
HETATM   27  C5  UNL     1     -27.689  19.408 -17.720  1.00  0.00     0.494 C 
ATOM     28  H6  UNL     1     -27.309  19.698 -15.681  1.00  0.00     0.184 HD
HETATM   29  N7  UNL     1     -26.624  18.429 -17.797  1.00  0.00    -0.032 N 
HETATM   30  N8  UNL     1     -27.301  20.532 -18.545  1.00  0.00    -0.032 N 
ATOM     31  H73 UNL     1     -25.804  18.746 -17.279  1.00  0.00     0.279 HD
ATOM     32  H72 UNL     1     -26.858  17.598 -17.255  1.00  0.00     0.279 HD
ATOM     33  H71 UNL     1     -26.370  18.177 -18.753  1.00  0.00     0.279 HD
ATOM     34  H83 UNL     1     -28.031  21.244 -18.545  1.00  0.00     0.279 HD
ATOM     35  H82 UNL     1     -26.547  21.056 -18.102  1.00  0.00     0.279 HD
ATOM     36  H81 UNL     1     -27.048  20.279 -19.501  1.00  0.00     0.279 HD
ATOM     37  H5  UNL     1     -29.938  20.213 -16.677  1.00  0.00     0.188 HD
ENDBRANCH   3  25
BRANCH   8  38
HETATM   38  N11 UNL     1     -30.034  21.461 -10.748  1.00  0.00    -0.332 N 
ATOM     39 2H11 UNL     1     -30.878  21.139 -10.274  1.00  0.00     0.177 HD
ATOM     40 1H11 UNL     1     -29.332  22.030 -10.275  1.00  0.00     0.177 HD
ENDBRANCH   8  38
TORSDOF 5
ENDMDL
