MODEL 1
REMARK VINA RESULT: -8.190634656      0.000      0.000
REMARK  8 active torsions:
REMARK  status: ('A' for Active; 'I' for Inactive)
REMARK       I    between atoms: N1_1  and  C1_5 
REMARK       I    between atoms: C1_5  and  N2_6 
REMARK       I    between atoms: C1_5  and  N3_10 
REMARK    1  A    between atoms: N4_12  and  N5_14 
REMARK       I    between atoms: N5_14  and  C2_16 
REMARK       I    between atoms: C2_16  and  N6_18 
REMARK    2  A    between atoms: N6_18  and  N7_20 
REMARK       I    between atoms: N7_20  and  C3_22 
REMARK    3  A    between atoms: C3_22  and  C4_24 
REMARK    4  A    between atoms: C4_24  and  C5_25 
REMARK    5  A    between atoms: C4_24  and  N8_27 
REMARK    6  A    between atoms: N8_27  and  O3_28 
REMARK    7  A    between atoms: N8_27  and  C6_30 
REMARK    8  A    between atoms: C7_33  and  N10_34 
ROOT
HETATM    1  N7  UNL     1     -34.066  18.270 -11.110  1.00  0.00    -0.264 N 
ATOM      2  H7  UNL     1     -34.499  19.193 -11.074  1.00  0.00     0.190 HD
HETATM    3  C3  UNL     1     -33.070  18.120 -12.075  1.00  0.00     0.262 C 
HETATM    4  O2  UNL     1     -32.405  17.097 -12.298  1.00  0.00    -0.269 OA
ENDROOT
BRANCH   1   5
HETATM    5  N6  UNL     1     -34.541  17.374 -10.217  1.00  0.00    -0.248 N 
HETATM    6  C2  UNL     1     -35.459  16.331 -10.353  1.00  0.00     0.354 C 
HETATM    7  N5  UNL     1     -35.769  15.536  -9.199  1.00  0.00    -0.236 N 
HETATM    8  O1  UNL     1     -36.031  16.034 -11.393  1.00  0.00    -0.244 OA
ATOM      9  H5  UNL     1     -35.333  15.727  -8.297  1.00  0.00     0.193 HD
ATOM     10  H6  UNL     1     -34.161  17.478  -9.276  1.00  0.00     0.192 HD
BRANCH   7  11
HETATM   11  N4  UNL     1     -36.682  14.497  -9.346  1.00  0.00    -0.240 N 
HETATM   12  N3  UNL     1     -36.680  13.448  -8.686  1.00  0.00    -0.269 N 
HETATM   13  C1  UNL     1     -35.713  13.166  -7.661  1.00  0.00     0.495 C 
ATOM     14  H3  UNL     1     -37.400  12.752  -8.880  1.00  0.00     0.185 HD
HETATM   15  N1  UNL     1     -35.640  11.699  -7.559  1.00  0.00    -0.032 N 
HETATM   16  N2  UNL     1     -34.434  13.736  -7.938  1.00  0.00    -0.032 N 
ATOM     17  H13 UNL     1     -35.220  11.287  -8.393  1.00  0.00     0.279 HD
ATOM     18  H12 UNL     1     -34.944  11.407  -6.872  1.00  0.00     0.279 HD
ATOM     19  H11 UNL     1     -36.554  11.292  -7.361  1.00  0.00     0.279 HD
ATOM     20  H23 UNL     1     -33.738  13.444  -7.251  1.00  0.00     0.279 HD
ATOM     21  H22 UNL     1     -34.014  13.324  -8.772  1.00  0.00     0.279 HD
ATOM     22  H21 UNL     1     -34.485  14.752  -8.009  1.00  0.00     0.279 HD
ATOM     23  H4  UNL     1     -37.409  14.608 -10.053  1.00  0.00     0.208 HD
ENDBRANCH   7  11
ENDBRANCH   1   5
BRANCH   3  24
HETATM   24  C4  UNL     1     -32.746  19.299 -12.951  1.00  0.00     0.221 C 
BRANCH  24  25
HETATM   25  C5  UNL     1     -33.998  20.188 -13.041  1.00  0.00     0.123 C 
HETATM   26  S1  UNL     1     -33.646  21.929 -12.847  1.00  0.00    -0.095 SA
ENDBRANCH  24  25
BRANCH  24  27
HETATM   27  N8  UNL     1     -32.425  18.885 -14.295  1.00  0.00    -0.215 N 
BRANCH  27  28
HETATM   28  O3  UNL     1     -33.206  18.050 -14.993  1.00  0.00    -0.284 OA
ATOM     29  H3  UNL     1     -33.641  17.307 -14.593  1.00  0.00     0.245 HD
ENDBRANCH  27  28
BRANCH  27  30
HETATM   30  C6  UNL     1     -31.219  19.377 -14.922  1.00  0.00     0.200 C 
HETATM   31  N9  UNL     1     -30.704  18.900 -16.019  1.00  0.00    -0.332 N 
HETATM   32  C7  UNL     1     -29.506  19.622 -16.358  1.00  0.00     0.302 C 
ATOM     33  H9  UNL     1     -31.093  18.127 -16.559  1.00  0.00     0.164 HD
HETATM   34  C8  UNL     1     -29.701  20.931 -15.604  1.00  0.00     0.177 C 
HETATM   35  N11 UNL     1     -30.421  20.446 -14.441  1.00  0.00    -0.357 N 
ATOM     36  H11 UNL     1     -30.365  20.797 -13.485  1.00  0.00     0.162 HD
BRANCH  32  37
HETATM   37  N10 UNL     1     -28.337  18.996 -15.709  1.00  0.00    -0.057 N 
ATOM     38 3H10 UNL     1     -28.524  18.755 -14.736  1.00  0.00     0.276 HD
ATOM     39 2H10 UNL     1     -28.159  18.057 -16.065  1.00  0.00     0.276 HD
ATOM     40 1H10 UNL     1     -27.520  19.600 -15.802  1.00  0.00     0.276 HD
ENDBRANCH  32  37
ENDBRANCH  27  30
ENDBRANCH  24  27
ENDBRANCH   3  24
TORSDOF 8
ENDMDL
MODEL 2
REMARK VINA RESULT: -7.802276253      2.368      3.932
REMARK  8 active torsions:
REMARK  status: ('A' for Active; 'I' for Inactive)
REMARK       I    between atoms: N1_1  and  C1_5 
REMARK       I    between atoms: C1_5  and  N2_6 
REMARK       I    between atoms: C1_5  and  N3_10 
REMARK    1  A    between atoms: N4_12  and  N5_14 
REMARK       I    between atoms: N5_14  and  C2_16 
REMARK       I    between atoms: C2_16  and  N6_18 
REMARK    2  A    between atoms: N6_18  and  N7_20 
REMARK       I    between atoms: N7_20  and  C3_22 
REMARK    3  A    between atoms: C3_22  and  C4_24 
REMARK    4  A    between atoms: C4_24  and  C5_25 
REMARK    5  A    between atoms: C4_24  and  N8_27 
REMARK    6  A    between atoms: N8_27  and  O3_28 
REMARK    7  A    between atoms: N8_27  and  C6_30 
REMARK    8  A    between atoms: C7_33  and  N10_34 
ROOT
HETATM    1  N7  UNL     1     -31.537  19.026 -13.717  1.00  0.00    -0.264 N 
ATOM      2  H7  UNL     1     -31.115  19.410 -12.872  1.00  0.00     0.190 HD
HETATM    3  C3  UNL     1     -31.002  19.497 -14.915  1.00  0.00     0.262 C 
HETATM    4  O2  UNL     1     -31.350  19.170 -16.060  1.00  0.00    -0.269 OA
ENDROOT
BRANCH   1   5
HETATM    5  N6  UNL     1     -32.531  18.134 -13.511  1.00  0.00    -0.248 N 
HETATM    6  C2  UNL     1     -33.633  18.159 -12.653  1.00  0.00     0.354 C 
HETATM    7  N5  UNL     1     -34.532  17.040 -12.659  1.00  0.00    -0.236 N 
HETATM    8  O1  UNL     1     -33.899  19.072 -11.884  1.00  0.00    -0.244 OA
ATOM      9  H5  UNL     1     -34.372  16.242 -13.272  1.00  0.00     0.193 HD
ATOM     10  H6  UNL     1     -32.465  17.292 -14.083  1.00  0.00     0.192 HD
BRANCH   7  11
HETATM   11  N4  UNL     1     -35.628  17.078 -11.803  1.00  0.00    -0.240 N 
HETATM   12  N3  UNL     1     -35.660  16.588 -10.665  1.00  0.00    -0.269 N 
HETATM   13  C1  UNL     1     -34.545  15.903 -10.072  1.00  0.00     0.495 C 
ATOM     14  H3  UNL     1     -36.520  16.675 -10.124  1.00  0.00     0.185 HD
HETATM   15  N1  UNL     1     -35.112  14.982  -9.074  1.00  0.00    -0.032 N 
HETATM   16  N2  UNL     1     -33.750  15.208 -11.033  1.00  0.00    -0.032 N 
ATOM     17  H13 UNL     1     -35.637  14.228  -9.517  1.00  0.00     0.279 HD
ATOM     18  H12 UNL     1     -34.384  14.425  -8.624  1.00  0.00     0.279 HD
ATOM     19  H11 UNL     1     -35.679  15.479  -8.387  1.00  0.00     0.279 HD
ATOM     20  H23 UNL     1     -33.023  14.651 -10.584  1.00  0.00     0.279 HD
ATOM     21  H22 UNL     1     -34.275  14.454 -11.477  1.00  0.00     0.279 HD
ATOM     22  H21 UNL     1     -33.357  15.846 -11.725  1.00  0.00     0.279 HD
ATOM     23  H4  UNL     1     -36.470  17.546 -12.139  1.00  0.00     0.208 HD
ENDBRANCH   7  11
ENDBRANCH   1   5
BRANCH   3  24
HETATM   24  C4  UNL     1     -29.890  20.508 -14.848  1.00  0.00     0.221 C 
BRANCH  24  25
HETATM   25  C5  UNL     1     -30.055  21.483 -16.027  1.00  0.00     0.123 C 
HETATM   26  S1  UNL     1     -29.665  23.174 -15.606  1.00  0.00    -0.095 SA
ENDBRANCH  24  25
BRANCH  24  27
HETATM   27  N8  UNL     1     -28.599  19.880 -14.997  1.00  0.00    -0.215 N 
BRANCH  27  28
HETATM   28  O3  UNL     1     -27.915  19.391 -13.954  1.00  0.00    -0.284 OA
ATOM     29  H3  UNL     1     -27.005  19.611 -13.796  1.00  0.00     0.245 HD
ENDBRANCH  27  28
BRANCH  27  30
HETATM   30  C6  UNL     1     -28.009  19.771 -16.312  1.00  0.00     0.200 C 
HETATM   31  N9  UNL     1     -28.439  18.983 -17.256  1.00  0.00    -0.332 N 
HETATM   32  C7  UNL     1     -27.620  19.126 -18.430  1.00  0.00     0.302 C 
ATOM     33  H9  UNL     1     -29.240  18.357 -17.175  1.00  0.00     0.164 HD
HETATM   34  C8  UNL     1     -26.994  20.498 -18.216  1.00  0.00     0.177 C 
HETATM   35  N11 UNL     1     -26.882  20.499 -16.769  1.00  0.00    -0.357 N 
ATOM     36  H11 UNL     1     -26.150  20.930 -16.204  1.00  0.00     0.162 HD
BRANCH  32  37
HETATM   37  N10 UNL     1     -26.479  18.190 -18.370  1.00  0.00    -0.057 N 
ATOM     38 3H10 UNL     1     -26.190  18.003 -17.410  1.00  0.00     0.276 HD
ATOM     39 2H10 UNL     1     -26.749  17.242 -18.632  1.00  0.00     0.276 HD
ATOM     40 1H10 UNL     1     -25.709  18.540 -18.939  1.00  0.00     0.276 HD
ENDBRANCH  32  37
ENDBRANCH  27  30
ENDBRANCH  24  27
ENDBRANCH   3  24
TORSDOF 8
ENDMDL
MODEL 3
REMARK VINA RESULT: -7.791920389      1.960      3.024
REMARK  8 active torsions:
REMARK  status: ('A' for Active; 'I' for Inactive)
REMARK       I    between atoms: N1_1  and  C1_5 
REMARK       I    between atoms: C1_5  and  N2_6 
REMARK       I    between atoms: C1_5  and  N3_10 
REMARK    1  A    between atoms: N4_12  and  N5_14 
REMARK       I    between atoms: N5_14  and  C2_16 
REMARK       I    between atoms: C2_16  and  N6_18 
REMARK    2  A    between atoms: N6_18  and  N7_20 
REMARK       I    between atoms: N7_20  and  C3_22 
REMARK    3  A    between atoms: C3_22  and  C4_24 
REMARK    4  A    between atoms: C4_24  and  C5_25 
REMARK    5  A    between atoms: C4_24  and  N8_27 
REMARK    6  A    between atoms: N8_27  and  O3_28 
REMARK    7  A    between atoms: N8_27  and  C6_30 
REMARK    8  A    between atoms: C7_33  and  N10_34 
ROOT
HETATM    1  N7  UNL     1     -32.156  18.080 -13.631  1.00  0.00    -0.264 N 
ATOM      2  H7  UNL     1     -31.300  17.527 -13.594  1.00  0.00     0.190 HD
HETATM    3  C3  UNL     1     -32.022  19.345 -14.202  1.00  0.00     0.262 C 
HETATM    4  O2  UNL     1     -32.921  20.186 -14.359  1.00  0.00    -0.269 OA
ENDROOT
BRANCH   1   5
HETATM    5  N6  UNL     1     -33.254  17.479 -13.121  1.00  0.00    -0.248 N 
HETATM    6  C2  UNL     1     -33.888  17.608 -11.884  1.00  0.00     0.354 C 
HETATM    7  N5  UNL     1     -35.060  16.819 -11.628  1.00  0.00    -0.236 N 
HETATM    8  O1  UNL     1     -33.520  18.350 -10.984  1.00  0.00    -0.244 OA
ATOM      9  H5  UNL     1     -35.422  16.175 -12.331  1.00  0.00     0.193 HD
ATOM     10  H6  UNL     1     -33.699  16.812 -13.752  1.00  0.00     0.192 HD
BRANCH   7  11
HETATM   11  N4  UNL     1     -35.685  16.958 -10.393  1.00  0.00    -0.240 N 
HETATM   12  N3  UNL     1     -35.452  16.262  -9.395  1.00  0.00    -0.269 N 
HETATM   13  C1  UNL     1     -34.485  15.199  -9.385  1.00  0.00     0.495 C 
ATOM     14  H3  UNL     1     -35.973  16.453  -8.539  1.00  0.00     0.185 HD
HETATM   15  N1  UNL     1     -34.910  14.267  -8.328  1.00  0.00    -0.032 N 
HETATM   16  N2  UNL     1     -34.375  14.542 -10.648  1.00  0.00    -0.032 N 
ATOM     17  H13 UNL     1     -35.776  13.789  -8.577  1.00  0.00     0.279 HD
ATOM     18  H12 UNL     1     -34.292  13.456  -8.275  1.00  0.00     0.279 HD
ATOM     19  H11 UNL     1     -34.988  14.736  -7.426  1.00  0.00     0.279 HD
ATOM     20  H23 UNL     1     -33.758  13.732 -10.595  1.00  0.00     0.279 HD
ATOM     21  H22 UNL     1     -35.242  14.065 -10.897  1.00  0.00     0.279 HD
ATOM     22  H21 UNL     1     -34.081  15.188 -11.381  1.00  0.00     0.279 HD
ATOM     23  H4  UNL     1     -36.389  17.690 -10.303  1.00  0.00     0.208 HD
ENDBRANCH   7  11
ENDBRANCH   1   5
BRANCH   3  24
HETATM   24  C4  UNL     1     -30.661  19.764 -14.687  1.00  0.00     0.221 C 
BRANCH  24  25
HETATM   25  C5  UNL     1     -30.654  21.297 -14.829  1.00  0.00     0.123 C 
HETATM   26  S1  UNL     1     -29.785  22.126 -13.507  1.00  0.00    -0.095 SA
ENDBRANCH  24  25
BRANCH  24  27
HETATM   27  N8  UNL     1     -30.376  19.218 -15.991  1.00  0.00    -0.215 N 
BRANCH  27  28
HETATM   28  O3  UNL     1     -31.269  18.490 -16.675  1.00  0.00    -0.284 OA
ATOM     29  H3  UNL     1     -31.010  17.852 -17.329  1.00  0.00     0.245 HD
ENDBRANCH  27  28
BRANCH  27  30
HETATM   30  C6  UNL     1     -29.083  19.454 -16.594  1.00  0.00     0.200 C 
HETATM   31  N9  UNL     1     -28.816  19.310 -17.861  1.00  0.00    -0.332 N 
HETATM   32  C7  UNL     1     -27.436  19.626 -18.114  1.00  0.00     0.302 C 
ATOM     33  H9  UNL     1     -29.488  19.017 -18.570  1.00  0.00     0.164 HD
HETATM   34  C8  UNL     1     -27.083  20.493 -16.913  1.00  0.00     0.177 C 
HETATM   35  N11 UNL     1     -27.919  19.874 -15.902  1.00  0.00    -0.357 N 
ATOM     36  H11 UNL     1     -27.714  19.764 -14.909  1.00  0.00     0.162 HD
BRANCH  32  37
HETATM   37  N10 UNL     1     -26.602  18.419 -17.951  1.00  0.00    -0.057 N 
ATOM     38 3H10 UNL     1     -26.175  18.373 -17.026  1.00  0.00     0.276 HD
ATOM     39 2H10 UNL     1     -27.164  17.570 -17.899  1.00  0.00     0.276 HD
ATOM     40 1H10 UNL     1     -25.906  18.371 -18.696  1.00  0.00     0.276 HD
ENDBRANCH  32  37
ENDBRANCH  27  30
ENDBRANCH  24  27
ENDBRANCH   3  24
TORSDOF 8
ENDMDL
MODEL 4
REMARK VINA RESULT: -7.724921917      2.123      9.002
REMARK  8 active torsions:
REMARK  status: ('A' for Active; 'I' for Inactive)
REMARK       I    between atoms: N1_1  and  C1_5 
REMARK       I    between atoms: C1_5  and  N2_6 
REMARK       I    between atoms: C1_5  and  N3_10 
REMARK    1  A    between atoms: N4_12  and  N5_14 
REMARK       I    between atoms: N5_14  and  C2_16 
REMARK       I    between atoms: C2_16  and  N6_18 
REMARK    2  A    between atoms: N6_18  and  N7_20 
REMARK       I    between atoms: N7_20  and  C3_22 
REMARK    3  A    between atoms: C3_22  and  C4_24 
REMARK    4  A    between atoms: C4_24  and  C5_25 
REMARK    5  A    between atoms: C4_24  and  N8_27 
REMARK    6  A    between atoms: N8_27  and  O3_28 
REMARK    7  A    between atoms: N8_27  and  C6_30 
REMARK    8  A    between atoms: C7_33  and  N10_34 
ROOT
HETATM    1  N7  UNL     1     -31.710  18.997 -14.433  1.00  0.00    -0.264 N 
ATOM      2  H7  UNL     1     -31.259  19.387 -13.605  1.00  0.00     0.190 HD
HETATM    3  C3  UNL     1     -33.028  18.580 -14.249  1.00  0.00     0.262 C 
HETATM    4  O2  UNL     1     -33.774  18.084 -15.107  1.00  0.00    -0.269 OA
ENDROOT
BRANCH   1   5
HETATM    5  N6  UNL     1     -30.944  18.960 -15.545  1.00  0.00    -0.248 N 
HETATM    6  C2  UNL     1     -29.564  19.076 -15.721  1.00  0.00     0.354 C 
HETATM    7  N5  UNL     1     -29.033  18.996 -17.052  1.00  0.00    -0.236 N 
HETATM    8  O1  UNL     1     -28.755  19.244 -14.818  1.00  0.00    -0.244 OA
ATOM      9  H5  UNL     1     -29.647  18.860 -17.855  1.00  0.00     0.193 HD
ATOM     10  H6  UNL     1     -31.466  18.823 -16.410  1.00  0.00     0.192 HD
BRANCH   7  11
HETATM   11  N4  UNL     1     -27.656  19.109 -17.215  1.00  0.00    -0.240 N 
HETATM   12  N3  UNL     1     -27.044  20.174 -17.385  1.00  0.00    -0.269 N 
HETATM   13  C1  UNL     1     -27.694  21.455 -17.435  1.00  0.00     0.495 C 
ATOM     14  H3  UNL     1     -26.031  20.139 -17.494  1.00  0.00     0.185 HD
HETATM   15  N1  UNL     1     -26.813  22.331 -18.224  1.00  0.00    -0.032 N 
HETATM   16  N2  UNL     1     -29.004  21.387 -17.999  1.00  0.00    -0.032 N 
ATOM     17  H13 UNL     1     -26.784  22.048 -19.203  1.00  0.00     0.279 HD
ATOM     18  H12 UNL     1     -27.218  23.261 -18.340  1.00  0.00     0.279 HD
ATOM     19  H11 UNL     1     -25.877  22.380 -17.821  1.00  0.00     0.279 HD
ATOM     20  H23 UNL     1     -29.409  22.316 -18.115  1.00  0.00     0.279 HD
ATOM     21  H22 UNL     1     -28.975  21.103 -18.978  1.00  0.00     0.279 HD
ATOM     22  H21 UNL     1     -29.615  20.779 -17.453  1.00  0.00     0.279 HD
ATOM     23  H4  UNL     1     -27.108  18.249 -17.193  1.00  0.00     0.208 HD
ENDBRANCH   7  11
ENDBRANCH   1   5
BRANCH   3  24
HETATM   24  C4  UNL     1     -33.638  18.735 -12.882  1.00  0.00     0.221 C 
BRANCH  24  25
HETATM   25  C5  UNL     1     -33.460  20.198 -12.441  1.00  0.00     0.123 C 
HETATM   26  S1  UNL     1     -34.321  21.362 -13.487  1.00  0.00    -0.095 SA
ENDBRANCH  24  25
BRANCH  24  27
HETATM   27  N8  UNL     1     -32.961  17.915 -11.908  1.00  0.00    -0.215 N 
BRANCH  27  28
HETATM   28  O3  UNL     1     -31.639  17.988 -11.703  1.00  0.00    -0.284 OA
ATOM     29  H3  UNL     1     -31.205  17.508 -11.008  1.00  0.00     0.245 HD
ENDBRANCH  27  28
BRANCH  27  30
HETATM   30  C6  UNL     1     -33.722  16.975 -11.117  1.00  0.00     0.200 C 
HETATM   31  N9  UNL     1     -34.717  17.292 -10.339  1.00  0.00    -0.332 N 
HETATM   32  C7  UNL     1     -35.243  16.113  -9.703  1.00  0.00     0.302 C 
ATOM     33  H9  UNL     1     -35.072  18.238 -10.200  1.00  0.00     0.164 HD
HETATM   34  C8  UNL     1     -34.767  15.009 -10.637  1.00  0.00     0.177 C 
HETATM   35  N11 UNL     1     -33.503  15.575 -11.069  1.00  0.00    -0.357 N 
ATOM     36  H11 UNL     1     -32.642  15.074 -11.291  1.00  0.00     0.162 HD
BRANCH  32  37
HETATM   37  N10 UNL     1     -34.526  15.857  -8.438  1.00  0.00    -0.057 N 
ATOM     38 3H10 UNL     1     -33.747  16.501  -8.304  1.00  0.00     0.276 HD
ATOM     39 2H10 UNL     1     -35.081  16.122  -7.624  1.00  0.00     0.276 HD
ATOM     40 1H10 UNL     1     -34.228  14.883  -8.396  1.00  0.00     0.276 HD
ENDBRANCH  32  37
ENDBRANCH  27  30
ENDBRANCH  24  27
ENDBRANCH   3  24
TORSDOF 8
ENDMDL
MODEL 5
REMARK VINA RESULT: -7.612277296      2.136      3.569
REMARK  8 active torsions:
REMARK  status: ('A' for Active; 'I' for Inactive)
REMARK       I    between atoms: N1_1  and  C1_5 
REMARK       I    between atoms: C1_5  and  N2_6 
REMARK       I    between atoms: C1_5  and  N3_10 
REMARK    1  A    between atoms: N4_12  and  N5_14 
REMARK       I    between atoms: N5_14  and  C2_16 
REMARK       I    between atoms: C2_16  and  N6_18 
REMARK    2  A    between atoms: N6_18  and  N7_20 
REMARK       I    between atoms: N7_20  and  C3_22 
REMARK    3  A    between atoms: C3_22  and  C4_24 
REMARK    4  A    between atoms: C4_24  and  C5_25 
REMARK    5  A    between atoms: C4_24  and  N8_27 
REMARK    6  A    between atoms: N8_27  and  O3_28 
REMARK    7  A    between atoms: N8_27  and  C6_30 
REMARK    8  A    between atoms: C7_33  and  N10_34 
ROOT
HETATM    1  N7  UNL     1     -31.440  19.317 -13.104  1.00  0.00    -0.264 N 
ATOM      2  H7  UNL     1     -30.580  18.789 -12.955  1.00  0.00     0.190 HD
HETATM    3  C3  UNL     1     -31.370  20.302 -14.089  1.00  0.00     0.262 C 
HETATM    4  O2  UNL     1     -32.286  21.058 -14.445  1.00  0.00    -0.269 OA
ENDROOT
BRANCH   1   5
HETATM    5  N6  UNL     1     -32.480  18.957 -12.320  1.00  0.00    -0.248 N 
HETATM    6  C2  UNL     1     -33.546  18.083 -12.540  1.00  0.00     0.354 C 
HETATM    7  N5  UNL     1     -34.514  17.905 -11.496  1.00  0.00    -0.236 N 
HETATM    8  O1  UNL     1     -33.726  17.445 -13.569  1.00  0.00    -0.244 OA
ATOM      9  H5  UNL     1     -34.431  18.407 -10.612  1.00  0.00     0.193 HD
ATOM     10  H6  UNL     1     -32.488  19.405 -11.403  1.00  0.00     0.192 HD
BRANCH   7  11
HETATM   11  N4  UNL     1     -35.570  17.029 -11.725  1.00  0.00    -0.240 N 
HETATM   12  N3  UNL     1     -36.075  16.283 -10.874  1.00  0.00    -0.269 N 
HETATM   13  C1  UNL     1     -35.624  16.228  -9.510  1.00  0.00     0.495 C 
ATOM     14  H3  UNL     1     -36.847  15.680 -11.154  1.00  0.00     0.185 HD
HETATM   15  N1  UNL     1     -35.989  14.893  -9.010  1.00  0.00    -0.032 N 
HETATM   16  N2  UNL     1     -34.222  16.469  -9.383  1.00  0.00    -0.032 N 
ATOM     17  H13 UNL     1     -35.442  14.161  -9.465  1.00  0.00     0.279 HD
ATOM     18  H12 UNL     1     -35.671  14.754  -8.050  1.00  0.00     0.279 HD
ATOM     19  H11 UNL     1     -36.990  14.721  -9.101  1.00  0.00     0.279 HD
ATOM     20  H23 UNL     1     -33.904  16.330  -8.424  1.00  0.00     0.279 HD
ATOM     21  H22 UNL     1     -33.675  15.737  -9.838  1.00  0.00     0.279 HD
ATOM     22  H21 UNL     1     -33.969  17.394  -9.730  1.00  0.00     0.279 HD
ATOM     23  H4  UNL     1     -35.959  16.998 -12.668  1.00  0.00     0.208 HD
ENDBRANCH   7  11
ENDBRANCH   1   5
BRANCH   3  24
HETATM   24  C4  UNL     1     -30.064  20.492 -14.811  1.00  0.00     0.221 C 
BRANCH  24  25
HETATM   25  C5  UNL     1     -30.022  21.931 -15.355  1.00  0.00     0.123 C 
HETATM   26  S1  UNL     1     -28.917  23.000 -14.447  1.00  0.00    -0.095 SA
ENDBRANCH  24  25
BRANCH  24  27
HETATM   27  N8  UNL     1     -29.956  19.608 -15.946  1.00  0.00    -0.215 N 
BRANCH  27  28
HETATM   28  O3  UNL     1     -30.944  18.777 -16.304  1.00  0.00    -0.284 OA
ATOM     29  H3  UNL     1     -31.779  18.757 -15.852  1.00  0.00     0.245 HD
ENDBRANCH  27  28
BRANCH  27  30
HETATM   30  C6  UNL     1     -28.744  19.606 -16.732  1.00  0.00     0.200 C 
HETATM   31  N9  UNL     1     -28.649  19.155 -17.951  1.00  0.00    -0.332 N 
HETATM   32  C7  UNL     1     -27.300  19.304 -18.430  1.00  0.00     0.302 C 
ATOM     33  H9  UNL     1     -29.419  18.754 -18.487  1.00  0.00     0.164 HD
HETATM   34  C8  UNL     1     -26.759  20.397 -17.519  1.00  0.00     0.177 C 
HETATM   35  N11 UNL     1     -27.483  20.089 -16.300  1.00  0.00    -0.357 N 
ATOM     36  H11 UNL     1     -27.156  20.197 -15.340  1.00  0.00     0.162 HD
BRANCH  32  37
HETATM   37  N10 UNL     1     -26.504  18.110 -18.082  1.00  0.00    -0.057 N 
ATOM     38 3H10 UNL     1     -26.130  18.164 -17.135  1.00  0.00     0.276 HD
ATOM     39 2H10 UNL     1     -27.088  17.282 -17.965  1.00  0.00     0.276 HD
ATOM     40 1H10 UNL     1     -25.770  17.965 -18.775  1.00  0.00     0.276 HD
ENDBRANCH  32  37
ENDBRANCH  27  30
ENDBRANCH  24  27
ENDBRANCH   3  24
TORSDOF 8
ENDMDL
