MODEL 1
REMARK VINA RESULT: -7.763401944      0.000      0.000
REMARK  3 active torsions:
REMARK  status: ('A' for Active; 'I' for Inactive)
REMARK    1  A    between atoms: C2_2  and  C3_4 
REMARK    2  A    between atoms: C3_4  and  C4_5 
REMARK    3  A    between atoms: C8_9  and  O2_10 
ROOT
HETATM    1  C4  UNL     1      48.136 -28.918 -96.703  1.00  0.00    -0.027 C 
HETATM    2  C5  UNL     1      47.281 -30.139 -96.468  1.00  0.00     0.016 C 
HETATM    3  C6  UNL     1      47.257 -27.868 -97.351  1.00  0.00     0.013 C 
HETATM    4  C7  UNL     1      46.976 -26.822 -96.285  1.00  0.00     0.039 C 
HETATM    5  C8  UNL     1      47.407 -27.503 -94.976  1.00  0.00     0.066 C 
HETATM    6  C9  UNL     1      47.620 -26.560 -93.867  1.00  0.00     0.038 C 
HETATM    7  C10 UNL     1      48.887 -25.770 -93.909  1.00  0.00     0.003 C 
HETATM    8  C11 UNL     1      50.025 -26.404 -94.596  1.00  0.00     0.001 C 
HETATM    9  C12 UNL     1      49.673 -27.247 -95.793  1.00  0.00     0.013 C 
HETATM   10  C13 UNL     1      48.606 -28.262 -95.461  1.00  0.00    -0.005 C 
HETATM   11  C14 UNL     1      49.175 -29.198 -94.438  1.00  0.00     0.019 C 
ENDROOT
BRANCH   1  12
HETATM   12  C3  UNL     1      49.294 -29.200 -97.618  1.00  0.00     0.087 C 
BRANCH  12  13
HETATM   13  C2  UNL     1      48.829 -29.362 -99.031  1.00  0.00     0.123 C 
HETATM   14  C1  UNL     1      47.819 -30.380 -99.402  1.00  0.00     0.091 C 
HETATM   15  O1  UNL     1      49.292 -28.644 -99.883  1.00  0.00    -0.298 OA
ENDBRANCH  12  13
ENDBRANCH   1  12
BRANCH   5  16
HETATM   16  O2  UNL     1      46.385 -28.362 -94.649  1.00  0.00    -0.389 OA
ATOM     17  H2  UNL     1      46.692 -28.853 -93.896  1.00  0.00     0.210 HD
ENDBRANCH   5  16
TORSDOF 3
ENDMDL
MODEL 2
REMARK VINA RESULT: -7.203779652      1.790      2.824
REMARK  3 active torsions:
REMARK  status: ('A' for Active; 'I' for Inactive)
REMARK    1  A    between atoms: C2_2  and  C3_4 
REMARK    2  A    between atoms: C3_4  and  C4_5 
REMARK    3  A    between atoms: C8_9  and  O2_10 
ROOT
HETATM    1  C4  UNL     1      47.368 -28.637 -97.343  1.00  0.00    -0.027 C 
HETATM    2  C5  UNL     1      46.696 -27.305 -97.564  1.00  0.00     0.016 C 
HETATM    3  C6  UNL     1      48.694 -28.603 -98.074  1.00  0.00     0.013 C 
HETATM    4  C7  UNL     1      49.771 -28.473 -97.009  1.00  0.00     0.039 C 
HETATM    5  C8  UNL     1      48.995 -28.076 -95.744  1.00  0.00     0.066 C 
HETATM    6  C9  UNL     1      49.750 -28.293 -94.501  1.00  0.00     0.038 C 
HETATM    7  C10 UNL     1      49.851 -29.708 -94.030  1.00  0.00     0.003 C 
HETATM    8  C11 UNL     1      48.744 -30.599 -94.412  1.00  0.00     0.001 C 
HETATM    9  C12 UNL     1      48.140 -30.343 -95.768  1.00  0.00     0.013 C 
HETATM   10  C13 UNL     1      47.752 -28.893 -95.935  1.00  0.00    -0.005 C 
HETATM   11  C14 UNL     1      46.680 -28.594 -94.931  1.00  0.00     0.019 C 
ENDROOT
BRANCH   1  12
HETATM   12  C3  UNL     1      46.557 -29.781 -97.881  1.00  0.00     0.087 C 
BRANCH  12  13
HETATM   13  C2  UNL     1      46.761 -29.931 -99.355  1.00  0.00     0.123 C 
HETATM   14  C1  UNL     1      48.057 -30.378 -99.917  1.00  0.00     0.091 C 
HETATM   15  O1  UNL     1      45.844 -29.681-100.099  1.00  0.00    -0.298 OA
ENDBRANCH  12  13
ENDBRANCH   1  12
BRANCH   5  16
HETATM   16  O2  UNL     1      48.723 -26.735 -95.879  1.00  0.00    -0.389 OA
ATOM     17  H2  UNL     1      48.032 -26.548 -95.255  1.00  0.00     0.210 HD
ENDBRANCH   5  16
TORSDOF 3
ENDMDL
MODEL 3
REMARK VINA RESULT: -7.085066283      1.045      1.068
REMARK  3 active torsions:
REMARK  status: ('A' for Active; 'I' for Inactive)
REMARK    1  A    between atoms: C2_2  and  C3_4 
REMARK    2  A    between atoms: C3_4  and  C4_5 
REMARK    3  A    between atoms: C8_9  and  O2_10 
ROOT
HETATM    1  C4  UNL     1      47.721 -28.928 -97.312  1.00  0.00    -0.027 C 
HETATM    2  C5  UNL     1      46.745 -30.072 -97.197  1.00  0.00     0.016 C 
HETATM    3  C6  UNL     1      46.948 -27.721 -97.803  1.00  0.00     0.013 C 
HETATM    4  C7  UNL     1      46.802 -26.789 -96.611  1.00  0.00     0.039 C 
HETATM    5  C8  UNL     1      47.180 -27.664 -95.407  1.00  0.00     0.066 C 
HETATM    6  C9  UNL     1      47.514 -26.890 -94.201  1.00  0.00     0.038 C 
HETATM    7  C10 UNL     1      48.858 -26.238 -94.188  1.00  0.00     0.003 C 
HETATM    8  C11 UNL     1      49.908 -26.899 -94.981  1.00  0.00     0.001 C 
HETATM    9  C12 UNL     1      49.446 -27.549 -96.258  1.00  0.00     0.013 C 
HETATM   10  C13 UNL     1      48.282 -28.479 -96.015  1.00  0.00    -0.005 C 
HETATM   11  C14 UNL     1      48.766 -29.587 -95.129  1.00  0.00     0.019 C 
ENDROOT
BRANCH   1  12
HETATM   12  C3  UNL     1      48.825 -29.216 -98.289  1.00  0.00     0.087 C 
BRANCH  12  13
HETATM   13  C2  UNL     1      48.293 -29.906 -99.505  1.00  0.00     0.123 C 
HETATM   14  C1  UNL     1      48.880 -29.678-100.845  1.00  0.00     0.091 C 
HETATM   15  O1  UNL     1      47.363 -30.667 -99.384  1.00  0.00    -0.298 OA
ENDBRANCH  12  13
ENDBRANCH   1  12
BRANCH   5  16
HETATM   16  O2  UNL     1      46.078 -28.445 -95.152  1.00  0.00    -0.389 OA
ATOM     17  H2  UNL     1      45.692 -28.095 -94.358  1.00  0.00     0.210 HD
ENDBRANCH   5  16
TORSDOF 3
ENDMDL
MODEL 4
REMARK VINA RESULT: -6.703611057      1.892      3.317
REMARK  3 active torsions:
REMARK  status: ('A' for Active; 'I' for Inactive)
REMARK    1  A    between atoms: C2_2  and  C3_4 
REMARK    2  A    between atoms: C3_4  and  C4_5 
REMARK    3  A    between atoms: C8_9  and  O2_10 
ROOT
HETATM    1  C4  UNL     1      47.635 -27.484 -95.859  1.00  0.00    -0.027 C 
HETATM    2  C5  UNL     1      47.711 -26.088 -95.291  1.00  0.00     0.016 C 
HETATM    3  C6  UNL     1      48.743 -27.616 -96.883  1.00  0.00     0.013 C 
HETATM    4  C7  UNL     1      49.811 -28.495 -96.253  1.00  0.00     0.039 C 
HETATM    5  C8  UNL     1      49.432 -28.528 -94.764  1.00  0.00     0.066 C 
HETATM    6  C9  UNL     1      50.060 -29.632 -94.023  1.00  0.00     0.038 C 
HETATM    7  C10 UNL     1      49.470 -30.989 -94.236  1.00  0.00     0.003 C 
HETATM    8  C11 UNL     1      48.040 -31.026 -94.586  1.00  0.00     0.001 C 
HETATM    9  C12 UNL     1      47.554 -29.895 -95.454  1.00  0.00     0.013 C 
HETATM   10  C13 UNL     1      47.937 -28.553 -94.878  1.00  0.00    -0.005 C 
HETATM   11  C14 UNL     1      47.234 -28.408 -93.562  1.00  0.00     0.019 C 
ENDROOT
BRANCH   1  12
HETATM   12  C3  UNL     1      46.323 -27.752 -96.540  1.00  0.00     0.087 C 
BRANCH  12  13
HETATM   13  C2  UNL     1      46.494 -27.800 -98.025  1.00  0.00     0.123 C 
HETATM   14  C1  UNL     1      46.596 -29.087 -98.752  1.00  0.00     0.091 C 
HETATM   15  O1  UNL     1      46.550 -26.763 -98.640  1.00  0.00    -0.298 OA
ENDBRANCH  12  13
ENDBRANCH   1  12
BRANCH   5  16
HETATM   16  O2  UNL     1      49.862 -27.331 -94.242  1.00  0.00    -0.389 OA
ATOM     17  H2  UNL     1      50.798 -27.304 -94.397  1.00  0.00     0.210 HD
ENDBRANCH   5  16
TORSDOF 3
ENDMDL
MODEL 5
REMARK VINA RESULT: -6.681428509      1.595      4.593
REMARK  3 active torsions:
REMARK  status: ('A' for Active; 'I' for Inactive)
REMARK    1  A    between atoms: C2_2  and  C3_4 
REMARK    2  A    between atoms: C3_4  and  C4_5 
REMARK    3  A    between atoms: C8_9  and  O2_10 
ROOT
HETATM    1  C4  UNL     1      48.710 -28.140 -94.881  1.00  0.00    -0.027 C 
HETATM    2  C5  UNL     1      49.441 -29.028 -93.905  1.00  0.00     0.016 C 
HETATM    3  C6  UNL     1      49.687 -27.078 -95.346  1.00  0.00     0.013 C 
HETATM    4  C7  UNL     1      50.073 -27.441 -96.770  1.00  0.00     0.039 C 
HETATM    5  C8  UNL     1      49.582 -28.888 -96.930  1.00  0.00     0.066 C 
HETATM    6  C9  UNL     1      49.467 -29.317 -98.332  1.00  0.00     0.038 C 
HETATM    7  C10 UNL     1      48.284 -28.800 -99.085  1.00  0.00     0.003 C 
HETATM    8  C11 UNL     1      47.087 -28.498 -98.283  1.00  0.00     0.001 C 
HETATM    9  C12 UNL     1      47.349 -27.948 -96.905  1.00  0.00     0.013 C 
HETATM   10  C13 UNL     1      48.312 -28.820 -96.136  1.00  0.00    -0.005 C 
HETATM   11  C14 UNL     1      47.657 -30.154 -95.940  1.00  0.00     0.019 C 
ENDROOT
BRANCH   1  12
HETATM   12  C3  UNL     1      47.527 -27.457 -94.257  1.00  0.00     0.087 C 
BRANCH  12  13
HETATM   13  C2  UNL     1      47.818 -26.012 -94.004  1.00  0.00     0.123 C 
HETATM   14  C1  UNL     1      47.086 -24.938 -94.714  1.00  0.00     0.091 C 
HETATM   15  O1  UNL     1      48.671 -25.721 -93.201  1.00  0.00    -0.298 OA
ENDBRANCH  12  13
ENDBRANCH   1  12
BRANCH   5  16
HETATM   16  O2  UNL     1      50.515 -29.672 -96.293  1.00  0.00    -0.389 OA
ATOM     17  H2  UNL     1      50.976 -30.135 -96.982  1.00  0.00     0.210 HD
ENDBRANCH   5  16
TORSDOF 3
ENDMDL
