MODEL 1
REMARK VINA RESULT: -8.717705934      0.000      0.000
REMARK  9 active torsions:
REMARK  status: ('A' for Active; 'I' for Inactive)
REMARK    1  A    between atoms: C1_2  and  C2_3 
REMARK    2  A    between atoms: C2_3  and  C3_4 
REMARK    3  A    between atoms: C3_4  and  C4_5 
REMARK    4  A    between atoms: C4_5  and  C5_6 
REMARK    5  A    between atoms: C5_6  and  C6_7 
REMARK    6  A    between atoms: C6_7  and  C7_8 
REMARK    7  A    between atoms: C7_8  and  N2_9 
REMARK       I    between atoms: N2_9  and  C8_11 
REMARK    8  A    between atoms: C8_11  and  C9_13 
REMARK    9  A    between atoms: C10_14  and  C11_15 
REMARK       I    between atoms: N3_21  and  C17_23 
REMARK       I    between atoms: C17_23  and  N4_25 
ROOT
HETATM    1  C4  UNL     1      50.689 -30.692 -98.873  1.00  0.00     0.000 C 
ENDROOT
BRANCH   1   2
HETATM    2  C3  UNL     1      50.315 -29.257 -98.753  1.00  0.00     0.007 C 
BRANCH   2   3
HETATM    3  C2  UNL     1      48.870 -28.941 -98.675  1.00  0.00     0.073 C 
BRANCH   3   4
HETATM    4  C1  UNL     1      48.001 -29.905 -98.018  1.00  0.00     0.097 C 
HETATM    5  N1  UNL     1      47.357 -30.973 -98.692  1.00  0.00    -0.087 NA
HETATM    6  N3  UNL     1      47.782 -29.813 -96.754  1.00  0.00    -0.300 N 
HETATM    7  C17 UNL     1      48.306 -28.847 -95.890  1.00  0.00     0.323 C 
ATOM      8  H3  UNL     1      47.165 -30.513 -96.342  1.00  0.00     0.171 HD
HETATM    9  O2  UNL     1      49.401 -29.046 -95.294  1.00  0.00    -0.247 OA
HETATM   10  N4  UNL     1      47.593 -27.635 -95.686  1.00  0.00    -0.334 N 
HETATM   11  C18 UNL     1      48.146 -26.629 -94.779  1.00  0.00     0.127 C 
HETATM   12  C22 UNL     1      46.349 -27.334 -96.324  1.00  0.00     0.127 C 
HETATM   13  C19 UNL     1      48.330 -25.370 -95.593  1.00  0.00     0.020 C 
HETATM   14  C20 UNL     1      46.940 -24.913 -96.008  1.00  0.00     0.003 C 
HETATM   15  C21 UNL     1      46.252 -25.929 -96.859  1.00  0.00     0.020 C 
ENDBRANCH   3   4
ENDBRANCH   2   3
ENDBRANCH   1   2
BRANCH   1  16
HETATM   16  C5  UNL     1      51.373 -31.094 -97.583  1.00  0.00     0.002 C 
BRANCH  16  17
HETATM   17  C6  UNL     1      51.027 -32.489 -97.138  1.00  0.00     0.020 C 
BRANCH  17  18
HETATM   18  C7  UNL     1      49.902 -32.517 -96.139  1.00  0.00     0.123 C 
BRANCH  18  19
HETATM   19  N2  UNL     1      50.320 -32.086 -94.837  1.00  0.00    -0.358 N 
HETATM   20  C8  UNL     1      49.340 -31.766 -93.815  1.00  0.00     0.240 C 
HETATM   21  O1  UNL     1      48.174 -31.900 -94.167  1.00  0.00    -0.269 OA
ATOM     22  H2  UNL     1      51.314 -32.003 -94.627  1.00  0.00     0.162 HD
BRANCH  20  23
HETATM   23  C9  UNL     1      49.796 -31.339 -92.535  1.00  0.00     0.070 C 
HETATM   24  C10 UNL     1      49.506 -31.670 -91.348  1.00  0.00    -0.017 C 
BRANCH  24  25
HETATM   25  C11 UNL     1      48.677 -32.544 -90.612  1.00  0.00     0.008 C 
HETATM   26  C12 UNL     1      47.447 -32.067 -89.969  1.00  0.00     0.008 C 
HETATM   27  C13 UNL     1      46.564 -33.266 -89.518  1.00  0.00     0.001 C 
HETATM   28  C14 UNL     1      47.384 -34.137 -88.626  1.00  0.00     0.000 C 
HETATM   29  C15 UNL     1      48.738 -33.524 -88.335  1.00  0.00     0.001 C 
HETATM   30  C16 UNL     1      49.514 -33.337 -89.593  1.00  0.00     0.008 C 
ENDBRANCH  24  25
ENDBRANCH  20  23
ENDBRANCH  18  19
ENDBRANCH  17  18
ENDBRANCH  16  17
ENDBRANCH   1  16
TORSDOF 9
ENDMDL
MODEL 2
REMARK VINA RESULT: -8.663326800      3.338      6.835
REMARK  9 active torsions:
REMARK  status: ('A' for Active; 'I' for Inactive)
REMARK    1  A    between atoms: C1_2  and  C2_3 
REMARK    2  A    between atoms: C2_3  and  C3_4 
REMARK    3  A    between atoms: C3_4  and  C4_5 
REMARK    4  A    between atoms: C4_5  and  C5_6 
REMARK    5  A    between atoms: C5_6  and  C6_7 
REMARK    6  A    between atoms: C6_7  and  C7_8 
REMARK    7  A    between atoms: C7_8  and  N2_9 
REMARK       I    between atoms: N2_9  and  C8_11 
REMARK    8  A    between atoms: C8_11  and  C9_13 
REMARK    9  A    between atoms: C10_14  and  C11_15 
REMARK       I    between atoms: N3_21  and  C17_23 
REMARK       I    between atoms: C17_23  and  N4_25 
ROOT
HETATM    1  C4  UNL     1      51.565 -30.934 -97.969  1.00  0.00     0.000 C 
ENDROOT
BRANCH   1   2
HETATM    2  C3  UNL     1      51.613 -31.086 -96.490  1.00  0.00     0.007 C 
BRANCH   2   3
HETATM    3  C2  UNL     1      50.702 -30.231 -95.693  1.00  0.00     0.073 C 
BRANCH   3   4
HETATM    4  C1  UNL     1      49.987 -30.852 -94.589  1.00  0.00     0.097 C 
HETATM    5  N1  UNL     1      50.492 -30.930 -93.267  1.00  0.00    -0.087 NA
HETATM    6  N3  UNL     1      48.827 -31.370 -94.788  1.00  0.00    -0.300 N 
HETATM    7  C17 UNL     1      48.133 -31.410 -96.001  1.00  0.00     0.323 C 
ATOM      8  H3  UNL     1      48.367 -31.792 -93.981  1.00  0.00     0.171 HD
HETATM    9  O2  UNL     1      47.345 -30.476 -96.321  1.00  0.00    -0.247 OA
HETATM   10  N4  UNL     1      48.323 -32.514 -96.875  1.00  0.00    -0.334 N 
HETATM   11  C18 UNL     1      47.593 -32.550 -98.142  1.00  0.00     0.127 C 
HETATM   12  C22 UNL     1      49.198 -33.607 -96.586  1.00  0.00     0.127 C 
HETATM   13  C19 UNL     1      48.633 -32.620 -99.236  1.00  0.00     0.020 C 
HETATM   14  C20 UNL     1      49.352 -33.950 -99.071  1.00  0.00     0.003 C 
HETATM   15  C21 UNL     1      50.046 -34.046 -97.753  1.00  0.00     0.020 C 
ENDBRANCH   3   4
ENDBRANCH   2   3
ENDBRANCH   1   2
BRANCH   1  16
HETATM   16  C5  UNL     1      50.559 -29.845 -98.282  1.00  0.00     0.002 C 
BRANCH  16  17
HETATM   17  C6  UNL     1      50.565 -29.430 -99.729  1.00  0.00     0.020 C 
BRANCH  17  18
HETATM   18  C7  UNL     1      49.179 -29.267-100.290  1.00  0.00     0.123 C 
BRANCH  18  19
HETATM   19  N2  UNL     1      48.361 -28.414 -99.478  1.00  0.00    -0.358 N 
HETATM   20  C8  UNL     1      46.943 -28.685 -99.317  1.00  0.00     0.240 C 
HETATM   21  O1  UNL     1      46.543 -29.673 -99.920  1.00  0.00    -0.269 OA
ATOM     22  H2  UNL     1      48.777 -27.610 -99.009  1.00  0.00     0.162 HD
BRANCH  20  23
HETATM   23  C9  UNL     1      46.165 -27.813 -98.505  1.00  0.00     0.070 C 
HETATM   24  C10 UNL     1      46.440 -27.036 -97.543  1.00  0.00    -0.017 C 
BRANCH  24  25
HETATM   25  C11 UNL     1      47.523 -26.581 -96.760  1.00  0.00     0.008 C 
HETATM   26  C12 UNL     1      48.443 -27.523 -96.112  1.00  0.00     0.008 C 
HETATM   27  C13 UNL     1      49.712 -26.783 -95.601  1.00  0.00     0.001 C 
HETATM   28  C14 UNL     1      49.276 -25.683 -94.693  1.00  0.00     0.000 C 
HETATM   29  C15 UNL     1      47.781 -25.718 -94.450  1.00  0.00     0.001 C 
HETATM   30  C16 UNL     1      47.035 -25.549 -95.729  1.00  0.00     0.008 C 
ENDBRANCH  24  25
ENDBRANCH  20  23
ENDBRANCH  18  19
ENDBRANCH  17  18
ENDBRANCH  16  17
ENDBRANCH   1  16
TORSDOF 9
ENDMDL
MODEL 3
REMARK VINA RESULT: -8.593964677      2.313      6.717
REMARK  9 active torsions:
REMARK  status: ('A' for Active; 'I' for Inactive)
REMARK    1  A    between atoms: C1_2  and  C2_3 
REMARK    2  A    between atoms: C2_3  and  C3_4 
REMARK    3  A    between atoms: C3_4  and  C4_5 
REMARK    4  A    between atoms: C4_5  and  C5_6 
REMARK    5  A    between atoms: C5_6  and  C6_7 
REMARK    6  A    between atoms: C6_7  and  C7_8 
REMARK    7  A    between atoms: C7_8  and  N2_9 
REMARK       I    between atoms: N2_9  and  C8_11 
REMARK    8  A    between atoms: C8_11  and  C9_13 
REMARK    9  A    between atoms: C10_14  and  C11_15 
REMARK       I    between atoms: N3_21  and  C17_23 
REMARK       I    between atoms: C17_23  and  N4_25 
ROOT
HETATM    1  C4  UNL     1      48.231 -26.169 -94.872  1.00  0.00     0.000 C 
ENDROOT
BRANCH   1   2
HETATM    2  C3  UNL     1      49.531 -26.573 -95.473  1.00  0.00     0.007 C 
BRANCH   2   3
HETATM    3  C2  UNL     1      49.935 -27.989 -95.319  1.00  0.00     0.073 C 
BRANCH   3   4
HETATM    4  C1  UNL     1      49.910 -28.832 -96.504  1.00  0.00     0.097 C 
HETATM    5  N1  UNL     1      49.560 -28.365 -97.796  1.00  0.00    -0.087 NA
HETATM    6  N3  UNL     1      50.217 -30.077 -96.412  1.00  0.00    -0.300 N 
HETATM    7  C17 UNL     1      50.591 -30.755 -95.248  1.00  0.00     0.323 C 
ATOM      8  H3  UNL     1      50.184 -30.624 -97.272  1.00  0.00     0.171 HD
HETATM    9  O2  UNL     1      51.806 -30.828 -94.911  1.00  0.00    -0.247 OA
HETATM   10  N4  UNL     1      49.590 -31.363 -94.444  1.00  0.00    -0.334 N 
HETATM   11  C18 UNL     1      49.990 -32.073 -93.228  1.00  0.00     0.127 C 
HETATM   12  C22 UNL     1      48.196 -31.324 -94.757  1.00  0.00     0.127 C 
HETATM   13  C19 UNL     1      49.271 -31.399 -92.082  1.00  0.00     0.020 C 
HETATM   14  C20 UNL     1      47.785 -31.639 -92.298  1.00  0.00     0.003 C 
HETATM   15  C21 UNL     1      47.305 -31.034 -93.576  1.00  0.00     0.020 C 
ENDBRANCH   3   4
ENDBRANCH   2   3
ENDBRANCH   1   2
BRANCH   1  16
HETATM   16  C5  UNL     1      47.138 -26.917 -95.606  1.00  0.00     0.002 C 
BRANCH  16  17
HETATM   17  C6  UNL     1      46.534 -26.127 -96.736  1.00  0.00     0.020 C 
BRANCH  17  18
HETATM   18  C7  UNL     1      46.570 -26.868 -98.045  1.00  0.00     0.123 C 
BRANCH  18  19
HETATM   19  N2  UNL     1      46.363 -28.277 -97.878  1.00  0.00    -0.358 N 
HETATM   20  C8  UNL     1      46.685 -29.202 -98.949  1.00  0.00     0.240 C 
HETATM   21  O1  UNL     1      47.132 -28.675 -99.961  1.00  0.00    -0.269 OA
ATOM     22  H2  UNL     1      45.986 -28.632 -97.000  1.00  0.00     0.162 HD
BRANCH  20  23
HETATM   23  C9  UNL     1      46.461 -30.594 -98.746  1.00  0.00     0.070 C 
HETATM   24  C10 UNL     1      47.226 -31.578 -98.524  1.00  0.00    -0.017 C 
BRANCH  24  25
HETATM   25  C11 UNL     1      48.588 -31.909 -98.352  1.00  0.00     0.008 C 
HETATM   26  C12 UNL     1      49.565 -31.692 -99.425  1.00  0.00     0.008 C 
HETATM   27  C13 UNL     1      51.016 -31.820 -98.877  1.00  0.00     0.001 C 
HETATM   28  C14 UNL     1      51.153 -33.157 -98.231  1.00  0.00     0.000 C 
HETATM   29  C15 UNL     1      49.912 -34.003 -98.427  1.00  0.00     0.001 C 
HETATM   30  C16 UNL     1      48.722 -33.345 -97.818  1.00  0.00     0.008 C 
ENDBRANCH  24  25
ENDBRANCH  20  23
ENDBRANCH  18  19
ENDBRANCH  17  18
ENDBRANCH  16  17
ENDBRANCH   1  16
TORSDOF 9
ENDMDL
MODEL 4
REMARK VINA RESULT: -8.451016114      2.044      3.066
REMARK  9 active torsions:
REMARK  status: ('A' for Active; 'I' for Inactive)
REMARK    1  A    between atoms: C1_2  and  C2_3 
REMARK    2  A    between atoms: C2_3  and  C3_4 
REMARK    3  A    between atoms: C3_4  and  C4_5 
REMARK    4  A    between atoms: C4_5  and  C5_6 
REMARK    5  A    between atoms: C5_6  and  C6_7 
REMARK    6  A    between atoms: C6_7  and  C7_8 
REMARK    7  A    between atoms: C7_8  and  N2_9 
REMARK       I    between atoms: N2_9  and  C8_11 
REMARK    8  A    between atoms: C8_11  and  C9_13 
REMARK    9  A    between atoms: C10_14  and  C11_15 
REMARK       I    between atoms: N3_21  and  C17_23 
REMARK       I    between atoms: C17_23  and  N4_25 
ROOT
HETATM    1  C4  UNL     1      52.015 -31.156 -97.313  1.00  0.00     0.000 C 
ENDROOT
BRANCH   1   2
HETATM    2  C3  UNL     1      51.388 -32.179 -98.194  1.00  0.00     0.007 C 
BRANCH   2   3
HETATM    3  C2  UNL     1      50.493 -33.167 -97.549  1.00  0.00     0.073 C 
BRANCH   3   4
HETATM    4  C1  UNL     1      49.254 -33.504 -98.233  1.00  0.00     0.097 C 
HETATM    5  N1  UNL     1      49.156 -34.489 -99.247  1.00  0.00    -0.087 NA
HETATM    6  N3  UNL     1      48.166 -32.890 -97.926  1.00  0.00    -0.300 N 
HETATM    7  C17 UNL     1      48.023 -31.887 -96.963  1.00  0.00     0.323 C 
ATOM      8  H3  UNL     1      47.326 -33.163 -98.435  1.00  0.00     0.171 HD
HETATM    9  O2  UNL     1      47.740 -32.181 -95.768  1.00  0.00    -0.247 OA
HETATM   10  N4  UNL     1      48.199 -30.529 -97.342  1.00  0.00    -0.334 N 
HETATM   11  C18 UNL     1      48.046 -29.484 -96.329  1.00  0.00     0.127 C 
HETATM   12  C22 UNL     1      48.522 -30.116 -98.672  1.00  0.00     0.127 C 
HETATM   13  C19 UNL     1      49.358 -28.735 -96.283  1.00  0.00     0.020 C 
HETATM   14  C20 UNL     1      49.521 -28.057 -97.635  1.00  0.00     0.003 C 
HETATM   15  C21 UNL     1      49.584 -29.050 -98.749  1.00  0.00     0.020 C 
ENDBRANCH   3   4
ENDBRANCH   2   3
ENDBRANCH   1   2
BRANCH   1  16
HETATM   16  C5  UNL     1      52.126 -31.756 -95.927  1.00  0.00     0.002 C 
BRANCH  16  17
HETATM   17  C6  UNL     1      51.164 -31.152 -94.940  1.00  0.00     0.020 C 
BRANCH  17  18
HETATM   18  C7  UNL     1      50.479 -32.187 -94.091  1.00  0.00     0.123 C 
BRANCH  18  19
HETATM   19  N2  UNL     1      49.460 -31.619 -93.257  1.00  0.00    -0.358 N 
HETATM   20  C8  UNL     1      49.380 -31.964 -91.849  1.00  0.00     0.240 C 
HETATM   21  O1  UNL     1      50.236 -32.752 -91.468  1.00  0.00    -0.269 OA
ATOM     22  H2  UNL     1      48.784 -30.968 -93.657  1.00  0.00     0.162 HD
BRANCH  20  23
HETATM   23  C9  UNL     1      48.350 -31.380 -91.057  1.00  0.00     0.070 C 
HETATM   24  C10 UNL     1      47.469 -31.855 -90.281  1.00  0.00    -0.017 C 
BRANCH  24  25
HETATM   25  C11 UNL     1      46.992 -33.079 -89.761  1.00  0.00     0.008 C 
HETATM   26  C12 UNL     1      45.673 -33.174 -89.126  1.00  0.00     0.008 C 
HETATM   27  C13 UNL     1      45.259 -34.663 -88.946  1.00  0.00     0.001 C 
HETATM   28  C14 UNL     1      46.328 -35.351 -88.166  1.00  0.00     0.000 C 
HETATM   29  C15 UNL     1      47.386 -34.379 -87.687  1.00  0.00     0.001 C 
HETATM   30  C16 UNL     1      48.051 -33.712 -88.842  1.00  0.00     0.008 C 
ENDBRANCH  24  25
ENDBRANCH  20  23
ENDBRANCH  18  19
ENDBRANCH  17  18
ENDBRANCH  16  17
ENDBRANCH   1  16
TORSDOF 9
ENDMDL
MODEL 5
REMARK VINA RESULT: -8.422418168      1.900      3.936
REMARK  9 active torsions:
REMARK  status: ('A' for Active; 'I' for Inactive)
REMARK    1  A    between atoms: C1_2  and  C2_3 
REMARK    2  A    between atoms: C2_3  and  C3_4 
REMARK    3  A    between atoms: C3_4  and  C4_5 
REMARK    4  A    between atoms: C4_5  and  C5_6 
REMARK    5  A    between atoms: C5_6  and  C6_7 
REMARK    6  A    between atoms: C6_7  and  C7_8 
REMARK    7  A    between atoms: C7_8  and  N2_9 
REMARK       I    between atoms: N2_9  and  C8_11 
REMARK    8  A    between atoms: C8_11  and  C9_13 
REMARK    9  A    between atoms: C10_14  and  C11_15 
REMARK       I    between atoms: N3_21  and  C17_23 
REMARK       I    between atoms: C17_23  and  N4_25 
ROOT
HETATM    1  C4  UNL     1      49.530 -29.144 -94.812  1.00  0.00     0.000 C 
ENDROOT
BRANCH   1   2
HETATM    2  C3  UNL     1      48.263 -28.852 -95.535  1.00  0.00     0.007 C 
BRANCH   2   3
HETATM    3  C2  UNL     1      48.351 -27.968 -96.721  1.00  0.00     0.073 C 
BRANCH   3   4
HETATM    4  C1  UNL     1      47.179 -27.868 -97.576  1.00  0.00     0.097 C 
HETATM    5  N1  UNL     1      45.988 -27.194 -97.207  1.00  0.00    -0.087 NA
HETATM    6  N3  UNL     1      47.188 -28.411 -98.742  1.00  0.00    -0.300 N 
HETATM    7  C17 UNL     1      48.245 -29.124 -99.317  1.00  0.00     0.323 C 
ATOM      8  H3  UNL     1      46.342 -28.313 -99.302  1.00  0.00     0.171 HD
HETATM    9  O2  UNL     1      49.117 -28.530-100.010  1.00  0.00    -0.247 OA
HETATM   10  N4  UNL     1      48.331 -30.527 -99.112  1.00  0.00    -0.334 N 
HETATM   11  C18 UNL     1      49.438 -31.267 -99.717  1.00  0.00     0.127 C 
HETATM   12  C22 UNL     1      47.385 -31.271 -98.339  1.00  0.00     0.127 C 
HETATM   13  C19 UNL     1      50.181 -31.934 -98.582  1.00  0.00     0.020 C 
HETATM   14  C20 UNL     1      49.224 -32.943 -97.967  1.00  0.00     0.003 C 
HETATM   15  C21 UNL     1      48.005 -32.284 -97.411  1.00  0.00     0.020 C 
ENDBRANCH   3   4
ENDBRANCH   2   3
ENDBRANCH   1   2
BRANCH   1  16
HETATM   16  C5  UNL     1      50.237 -30.254 -95.561  1.00  0.00     0.002 C 
BRANCH  16  17
HETATM   17  C6  UNL     1      50.924 -31.238 -94.654  1.00  0.00     0.020 C 
BRANCH  17  18
HETATM   18  C7  UNL     1      49.968 -32.220 -94.033  1.00  0.00     0.123 C 
BRANCH  18  19
HETATM   19  N2  UNL     1      49.623 -31.865 -92.687  1.00  0.00    -0.358 N 
HETATM   20  C8  UNL     1      48.236 -31.667 -92.307  1.00  0.00     0.240 C 
HETATM   21  O1  UNL     1      47.431 -31.829 -93.216  1.00  0.00    -0.269 OA
ATOM     22  H2  UNL     1      50.359 -31.750 -91.989  1.00  0.00     0.162 HD
BRANCH  20  23
HETATM   23  C9  UNL     1      47.935 -31.312 -90.961  1.00  0.00     0.070 C 
HETATM   24  C10 UNL     1      47.410 -31.933 -89.990  1.00  0.00    -0.017 C 
BRANCH  24  25
HETATM   25  C11 UNL     1      46.863 -33.187 -89.640  1.00  0.00     0.008 C 
HETATM   26  C12 UNL     1      45.541 -33.293 -89.014  1.00  0.00     0.008 C 
HETATM   27  C13 UNL     1      45.040 -34.766 -89.039  1.00  0.00     0.001 C 
HETATM   28  C14 UNL     1      46.067 -35.617 -88.371  1.00  0.00     0.000 C 
HETATM   29  C15 UNL     1      47.180 -34.783 -87.771  1.00  0.00     0.001 C 
HETATM   30  C16 UNL     1      47.882 -34.002 -88.827  1.00  0.00     0.008 C 
ENDBRANCH  24  25
ENDBRANCH  20  23
ENDBRANCH  18  19
ENDBRANCH  17  18
ENDBRANCH  16  17
ENDBRANCH   1  16
TORSDOF 9
ENDMDL
