MODEL 1
REMARK VINA RESULT: -8.168168637      0.000      0.000
REMARK  9 active torsions:
REMARK  status: ('A' for Active; 'I' for Inactive)
REMARK    1  A    between atoms: C2_2  and  N1_4 
REMARK    2  A    between atoms: N1_4  and  C4_7 
REMARK    3  A    between atoms: C4_7  and  C5_8 
REMARK    4  A    between atoms: C5_8  and  N2_9 
REMARK       I    between atoms: N2_9  and  C7_11 
REMARK    5  A    between atoms: C7_11  and  C8_13 
REMARK    6  A    between atoms: C8_13  and  N3_15 
REMARK       I    between atoms: N3_15  and  C10_17 
REMARK    7  A    between atoms: C10_17  and  C11_19 
REMARK    8  A    between atoms: C11_19  and  C12_20 
REMARK    9  A    between atoms: C11_19  and  C18_26 
ROOT
HETATM    1  N3  UNL     1      48.480 -30.530 -96.186  1.00  0.00    -0.348 N 
ATOM      2  H3  UNL     1      47.600 -30.710 -96.670  1.00  0.00     0.163 HD
HETATM    3  C10 UNL     1      49.075 -29.242 -96.267  1.00  0.00     0.223 C 
HETATM    4  O2  UNL     1      50.176 -29.065 -95.642  1.00  0.00    -0.273 OA
ENDROOT
BRANCH   1   5
HETATM    5  C8  UNL     1      49.106 -31.594 -95.422  1.00  0.00     0.172 C 
HETATM    6  C9  UNL     1      49.218 -32.843 -96.267  1.00  0.00     0.042 C 
BRANCH   5   7
HETATM    7  C7  UNL     1      48.305 -31.823 -94.207  1.00  0.00     0.241 C 
HETATM    8  N2  UNL     1      48.836 -31.507 -92.931  1.00  0.00    -0.353 N 
HETATM    9  C6  UNL     1      50.150 -30.953 -92.781  1.00  0.00     0.152 C 
HETATM   10  O1  UNL     1      47.135 -32.304 -94.307  1.00  0.00    -0.271 OA
BRANCH   8  11
HETATM   11  C5  UNL     1      48.003 -31.757 -91.750  1.00  0.00     0.152 C 
BRANCH  11  12
HETATM   12  C4  UNL     1      48.944 -32.107 -90.620  1.00  0.00     0.252 C 
BRANCH  12  13
HETATM   13  N1  UNL     1      48.161 -32.151 -89.407  1.00  0.00    -0.070 N 
ATOM     14  H12 UNL     1      47.395 -31.478 -89.449  1.00  0.00     0.277 HD
ATOM     15  H11 UNL     1      48.687 -31.763 -88.625  1.00  0.00     0.277 HD
BRANCH  13  16
HETATM   16  C2  UNL     1      47.669 -33.455 -89.086  1.00  0.00     0.178 C 
HETATM   17  C1  UNL     1      46.151 -33.397 -89.136  1.00  0.00     0.039 C 
HETATM   18  C3  UNL     1      48.059 -33.934 -87.714  1.00  0.00     0.039 C 
ENDBRANCH  13  16
ENDBRANCH  12  13
ENDBRANCH  11  12
ENDBRANCH   8  11
ENDBRANCH   5   7
ENDBRANCH   1   5
BRANCH   3  19
HETATM   19  C11 UNL     1      48.450 -28.143 -97.045  1.00  0.00     0.086 C 
BRANCH  19  20
HETATM   20  C12 UNL     1      47.086 -27.796 -96.527  1.00  0.00    -0.001 C 
HETATM   21  C13 UNL     1      47.219 -27.420 -95.073  1.00  0.00     0.005 C 
HETATM   22  C14 UNL     1      47.755 -26.038 -94.871  1.00  0.00     0.000 C 
HETATM   23  C15 UNL     1      46.846 -25.065 -95.568  1.00  0.00     0.000 C 
HETATM   24  C16 UNL     1      46.667 -25.366 -97.030  1.00  0.00     0.000 C 
HETATM   25  C17 UNL     1      46.337 -26.801 -97.309  1.00  0.00     0.005 C 
ENDBRANCH  19  20
BRANCH  19  26
HETATM   26  C18 UNL     1      48.549 -28.421 -98.491  1.00  0.00    -0.001 C 
HETATM   27  C19 UNL     1      47.721 -29.544 -99.017  1.00  0.00     0.005 C 
HETATM   28  C20 UNL     1      47.796 -29.436-100.548  1.00  0.00     0.000 C 
HETATM   29  C21 UNL     1      49.195 -29.581-101.026  1.00  0.00     0.000 C 
HETATM   30  C22 UNL     1      50.204 -28.777-100.262  1.00  0.00     0.000 C 
HETATM   31  C23 UNL     1      50.008 -28.823 -98.772  1.00  0.00     0.005 C 
ENDBRANCH  19  26
ENDBRANCH   3  19
TORSDOF 9
ENDMDL
MODEL 2
REMARK VINA RESULT: -8.079226206      1.441      3.914
REMARK  9 active torsions:
REMARK  status: ('A' for Active; 'I' for Inactive)
REMARK    1  A    between atoms: C2_2  and  N1_4 
REMARK    2  A    between atoms: N1_4  and  C4_7 
REMARK    3  A    between atoms: C4_7  and  C5_8 
REMARK    4  A    between atoms: C5_8  and  N2_9 
REMARK       I    between atoms: N2_9  and  C7_11 
REMARK    5  A    between atoms: C7_11  and  C8_13 
REMARK    6  A    between atoms: C8_13  and  N3_15 
REMARK       I    between atoms: N3_15  and  C10_17 
REMARK    7  A    between atoms: C10_17  and  C11_19 
REMARK    8  A    between atoms: C11_19  and  C12_20 
REMARK    9  A    between atoms: C11_19  and  C18_26 
ROOT
HETATM    1  N3  UNL     1      49.049 -30.622 -94.740  1.00  0.00    -0.348 N 
ATOM      2  H3  UNL     1      48.043 -30.530 -94.890  1.00  0.00     0.163 HD
HETATM    3  C10 UNL     1      49.952 -30.059 -95.682  1.00  0.00     0.223 C 
HETATM    4  O2  UNL     1      51.202 -30.198 -95.450  1.00  0.00    -0.273 OA
ENDROOT
BRANCH   1   5
HETATM    5  C8  UNL     1      49.536 -31.325 -93.568  1.00  0.00     0.172 C 
HETATM    6  C9  UNL     1      50.035 -32.699 -93.955  1.00  0.00     0.042 C 
BRANCH   5   7
HETATM    7  C7  UNL     1      48.440 -31.395 -92.584  1.00  0.00     0.241 C 
HETATM    8  N2  UNL     1      48.703 -31.793 -91.249  1.00  0.00    -0.353 N 
HETATM    9  C6  UNL     1      50.027 -32.130 -90.812  1.00  0.00     0.152 C 
HETATM   10  O1  UNL     1      47.259 -31.096 -92.937  1.00  0.00    -0.271 OA
BRANCH   8  11
HETATM   11  C5  UNL     1      47.580 -31.853 -90.308  1.00  0.00     0.152 C 
BRANCH  11  12
HETATM   12  C4  UNL     1      47.845 -33.023 -89.388  1.00  0.00     0.252 C 
BRANCH  12  13
HETATM   13  N1  UNL     1      46.710 -33.137 -88.502  1.00  0.00    -0.070 N 
ATOM     14  H12 UNL     1      46.392 -32.215 -88.204  1.00  0.00     0.277 HD
ATOM     15  H11 UNL     1      46.995 -33.519 -87.600  1.00  0.00     0.277 HD
BRANCH  13  16
HETATM   16  C2  UNL     1      45.626 -33.893 -89.049  1.00  0.00     0.178 C 
HETATM   17  C1  UNL     1      44.333 -33.258 -88.562  1.00  0.00     0.039 C 
HETATM   18  C3  UNL     1      45.610 -35.336 -88.622  1.00  0.00     0.039 C 
ENDBRANCH  13  16
ENDBRANCH  12  13
ENDBRANCH  11  12
ENDBRANCH   8  11
ENDBRANCH   5   7
ENDBRANCH   1   5
BRANCH   3  19
HETATM   19  C11 UNL     1      49.472 -29.339 -96.888  1.00  0.00     0.086 C 
BRANCH  19  20
HETATM   20  C12 UNL     1      50.441 -29.447 -98.028  1.00  0.00    -0.001 C 
HETATM   21  C13 UNL     1      50.483 -30.888 -98.471  1.00  0.00     0.005 C 
HETATM   22  C14 UNL     1      49.306 -31.279 -99.306  1.00  0.00     0.000 C 
HETATM   23  C15 UNL     1      49.250 -30.378-100.508  1.00  0.00     0.000 C 
HETATM   24  C16 UNL     1      49.196 -28.918-100.149  1.00  0.00     0.000 C 
HETATM   25  C17 UNL     1      50.228 -28.511 -99.142  1.00  0.00     0.005 C 
ENDBRANCH  19  20
BRANCH  19  26
HETATM   26  C18 UNL     1      49.037 -27.976 -96.528  1.00  0.00    -0.001 C 
HETATM   27  C19 UNL     1      49.532 -27.433 -95.231  1.00  0.00     0.005 C 
HETATM   28  C20 UNL     1      49.169 -25.939 -95.239  1.00  0.00     0.000 C 
HETATM   29  C21 UNL     1      47.699 -25.747 -95.331  1.00  0.00     0.000 C 
HETATM   30  C22 UNL     1      47.021 -26.591 -96.369  1.00  0.00     0.000 C 
HETATM   31  C23 UNL     1      47.503 -28.015 -96.396  1.00  0.00     0.005 C 
ENDBRANCH  19  26
ENDBRANCH   3  19
TORSDOF 9
ENDMDL
MODEL 3
REMARK VINA RESULT: -7.982356596      1.224      1.557
REMARK  9 active torsions:
REMARK  status: ('A' for Active; 'I' for Inactive)
REMARK    1  A    between atoms: C2_2  and  N1_4 
REMARK    2  A    between atoms: N1_4  and  C4_7 
REMARK    3  A    between atoms: C4_7  and  C5_8 
REMARK    4  A    between atoms: C5_8  and  N2_9 
REMARK       I    between atoms: N2_9  and  C7_11 
REMARK    5  A    between atoms: C7_11  and  C8_13 
REMARK    6  A    between atoms: C8_13  and  N3_15 
REMARK       I    between atoms: N3_15  and  C10_17 
REMARK    7  A    between atoms: C10_17  and  C11_19 
REMARK    8  A    between atoms: C11_19  and  C12_20 
REMARK    9  A    between atoms: C11_19  and  C18_26 
ROOT
HETATM    1  N3  UNL     1      48.365 -30.086 -94.487  1.00  0.00    -0.348 N 
ATOM      2  H3  UNL     1      47.353 -29.949 -94.477  1.00  0.00     0.163 HD
HETATM    3  C10 UNL     1      49.168 -29.310 -95.367  1.00  0.00     0.223 C 
HETATM    4  O2  UNL     1      50.429 -29.515 -95.343  1.00  0.00    -0.273 OA
ENDROOT
BRANCH   1   5
HETATM    5  C8  UNL     1      48.963 -31.068 -93.602  1.00  0.00     0.172 C 
HETATM    6  C9  UNL     1      49.150 -32.379 -94.333  1.00  0.00     0.042 C 
BRANCH   5   7
HETATM    7  C7  UNL     1      48.094 -31.215 -92.421  1.00  0.00     0.241 C 
HETATM    8  N2  UNL     1      48.618 -31.725 -91.208  1.00  0.00    -0.353 N 
HETATM    9  C6  UNL     1      49.997 -32.102 -91.084  1.00  0.00     0.152 C 
HETATM   10  O1  UNL     1      46.871 -30.883 -92.496  1.00  0.00    -0.271 OA
BRANCH   8  11
HETATM   11  C5  UNL     1      47.713 -31.858 -90.061  1.00  0.00     0.152 C 
BRANCH  11  12
HETATM   12  C4  UNL     1      48.005 -33.200 -89.429  1.00  0.00     0.252 C 
BRANCH  12  13
HETATM   13  N1  UNL     1      46.947 -33.470 -88.484  1.00  0.00    -0.070 N 
ATOM     14  H12 UNL     1      46.692 -32.621 -87.978  1.00  0.00     0.277 HD
ATOM     15  H11 UNL     1      47.292 -34.035 -87.709  1.00  0.00     0.277 HD
BRANCH  13  16
HETATM   16  C2  UNL     1      45.790 -34.072 -89.072  1.00  0.00     0.178 C 
HETATM   17  C1  UNL     1      44.581 -33.258 -88.641  1.00  0.00     0.039 C 
HETATM   18  C3  UNL     1      45.556 -35.494 -88.639  1.00  0.00     0.039 C 
ENDBRANCH  13  16
ENDBRANCH  12  13
ENDBRANCH  11  12
ENDBRANCH   8  11
ENDBRANCH   5   7
ENDBRANCH   1   5
BRANCH   3  19
HETATM   19  C11 UNL     1      48.573 -28.303 -96.281  1.00  0.00     0.086 C 
BRANCH  19  20
HETATM   20  C12 UNL     1      47.261 -27.786 -95.768  1.00  0.00    -0.001 C 
HETATM   21  C13 UNL     1      47.542 -26.612 -94.864  1.00  0.00     0.005 C 
HETATM   22  C14 UNL     1      47.855 -25.357 -95.614  1.00  0.00     0.000 C 
HETATM   23  C15 UNL     1      46.698 -25.038 -96.519  1.00  0.00     0.000 C 
HETATM   24  C16 UNL     1      46.359 -26.160 -97.462  1.00  0.00     0.000 C 
HETATM   25  C17 UNL     1      46.244 -27.493 -96.788  1.00  0.00     0.005 C 
ENDBRANCH  19  20
BRANCH  19  26
HETATM   26  C18 UNL     1      48.579 -28.805 -97.668  1.00  0.00    -0.001 C 
HETATM   27  C19 UNL     1      48.335 -30.264 -97.856  1.00  0.00     0.005 C 
HETATM   28  C20 UNL     1      48.120 -30.460 -99.365  1.00  0.00     0.000 C 
HETATM   29  C21 UNL     1      49.325 -30.054-100.133  1.00  0.00     0.000 C 
HETATM   30  C22 UNL     1      49.916 -28.739 -99.721  1.00  0.00     0.000 C 
HETATM   31  C23 UNL     1      49.990 -28.552 -98.231  1.00  0.00     0.005 C 
ENDBRANCH  19  26
ENDBRANCH   3  19
TORSDOF 9
ENDMDL
MODEL 4
REMARK VINA RESULT: -7.824373821      1.445      3.951
REMARK  9 active torsions:
REMARK  status: ('A' for Active; 'I' for Inactive)
REMARK    1  A    between atoms: C2_2  and  N1_4 
REMARK    2  A    between atoms: N1_4  and  C4_7 
REMARK    3  A    between atoms: C4_7  and  C5_8 
REMARK    4  A    between atoms: C5_8  and  N2_9 
REMARK       I    between atoms: N2_9  and  C7_11 
REMARK    5  A    between atoms: C7_11  and  C8_13 
REMARK    6  A    between atoms: C8_13  and  N3_15 
REMARK       I    between atoms: N3_15  and  C10_17 
REMARK    7  A    between atoms: C10_17  and  C11_19 
REMARK    8  A    between atoms: C11_19  and  C12_20 
REMARK    9  A    between atoms: C11_19  and  C18_26 
ROOT
HETATM    1  N3  UNL     1      49.071 -30.675 -94.752  1.00  0.00    -0.348 N 
ATOM      2  H3  UNL     1      48.064 -30.609 -94.908  1.00  0.00     0.163 HD
HETATM    3  C10 UNL     1      49.965 -30.079 -95.682  1.00  0.00     0.223 C 
HETATM    4  O2  UNL     1      51.216 -30.186 -95.444  1.00  0.00    -0.273 OA
ENDROOT
BRANCH   1   5
HETATM    5  C8  UNL     1      49.569 -31.377 -93.584  1.00  0.00     0.172 C 
HETATM    6  C9  UNL     1      50.029 -32.765 -93.968  1.00  0.00     0.042 C 
BRANCH   5   7
HETATM    7  C7  UNL     1      48.495 -31.413 -92.575  1.00  0.00     0.241 C 
HETATM    8  N2  UNL     1      48.782 -31.793 -91.240  1.00  0.00    -0.353 N 
HETATM    9  C6  UNL     1      50.111 -32.141 -90.826  1.00  0.00     0.152 C 
HETATM   10  O1  UNL     1      47.311 -31.103 -92.907  1.00  0.00    -0.271 OA
BRANCH   8  11
HETATM   11  C5  UNL     1      47.680 -31.819 -90.272  1.00  0.00     0.152 C 
BRANCH  11  12
HETATM   12  C4  UNL     1      47.924 -33.004 -89.367  1.00  0.00     0.252 C 
BRANCH  12  13
HETATM   13  N1  UNL     1      47.842 -32.529 -88.005  1.00  0.00    -0.070 N 
ATOM     14  H12 UNL     1      46.870 -32.376 -87.736  1.00  0.00     0.277 HD
ATOM     15  H11 UNL     1      48.192 -31.573 -87.936  1.00  0.00     0.277 HD
BRANCH  13  16
HETATM   16  C2  UNL     1      48.500 -33.376 -87.060  1.00  0.00     0.178 C 
HETATM   17  C1  UNL     1      48.555 -32.629 -85.736  1.00  0.00     0.039 C 
HETATM   18  C3  UNL     1      49.913 -33.730 -87.437  1.00  0.00     0.039 C 
ENDBRANCH  13  16
ENDBRANCH  12  13
ENDBRANCH  11  12
ENDBRANCH   8  11
ENDBRANCH   5   7
ENDBRANCH   1   5
BRANCH   3  19
HETATM   19  C11 UNL     1      49.473 -29.359 -96.884  1.00  0.00     0.086 C 
BRANCH  19  20
HETATM   20  C12 UNL     1      50.441 -29.448 -98.026  1.00  0.00    -0.001 C 
HETATM   21  C13 UNL     1      50.495 -30.885 -98.481  1.00  0.00     0.005 C 
HETATM   22  C14 UNL     1      49.320 -31.280 -99.318  1.00  0.00     0.000 C 
HETATM   23  C15 UNL     1      49.253 -30.370-100.512  1.00  0.00     0.000 C 
HETATM   24  C16 UNL     1      49.187 -28.914-100.141  1.00  0.00     0.000 C 
HETATM   25  C17 UNL     1      50.217 -28.506 -99.132  1.00  0.00     0.005 C 
ENDBRANCH  19  20
BRANCH  19  26
HETATM   26  C18 UNL     1      49.020 -28.003 -96.516  1.00  0.00    -0.001 C 
HETATM   27  C19 UNL     1      49.526 -27.452 -95.227  1.00  0.00     0.005 C 
HETATM   28  C20 UNL     1      49.139 -25.965 -95.228  1.00  0.00     0.000 C 
HETATM   29  C21 UNL     1      47.665 -25.797 -95.297  1.00  0.00     0.000 C 
HETATM   30  C22 UNL     1      46.985 -26.652 -96.324  1.00  0.00     0.000 C 
HETATM   31  C23 UNL     1      47.490 -28.068 -96.360  1.00  0.00     0.005 C 
ENDBRANCH  19  26
ENDBRANCH   3  19
TORSDOF 9
ENDMDL
MODEL 5
REMARK VINA RESULT: -7.434554698      1.514      3.825
REMARK  9 active torsions:
REMARK  status: ('A' for Active; 'I' for Inactive)
REMARK    1  A    between atoms: C2_2  and  N1_4 
REMARK    2  A    between atoms: N1_4  and  C4_7 
REMARK    3  A    between atoms: C4_7  and  C5_8 
REMARK    4  A    between atoms: C5_8  and  N2_9 
REMARK       I    between atoms: N2_9  and  C7_11 
REMARK    5  A    between atoms: C7_11  and  C8_13 
REMARK    6  A    between atoms: C8_13  and  N3_15 
REMARK       I    between atoms: N3_15  and  C10_17 
REMARK    7  A    between atoms: C10_17  and  C11_19 
REMARK    8  A    between atoms: C11_19  and  C12_20 
REMARK    9  A    between atoms: C11_19  and  C18_26 
ROOT
HETATM    1  N3  UNL     1      48.941 -30.639 -94.359  1.00  0.00    -0.348 N 
ATOM      2  H3  UNL     1      47.931 -30.505 -94.416  1.00  0.00     0.163 HD
HETATM    3  C10 UNL     1      49.778 -30.086 -95.366  1.00  0.00     0.223 C 
HETATM    4  O2  UNL     1      51.037 -30.277 -95.251  1.00  0.00    -0.273 OA
ENDROOT
BRANCH   1   5
HETATM    5  C8  UNL     1      49.502 -31.390 -93.252  1.00  0.00     0.172 C 
HETATM    6  C9  UNL     1      49.968 -32.748 -93.728  1.00  0.00     0.042 C 
BRANCH   5   7
HETATM    7  C7  UNL     1      48.475 -31.498 -92.200  1.00  0.00     0.241 C 
HETATM    8  N2  UNL     1      48.822 -31.964 -90.907  1.00  0.00    -0.353 N 
HETATM    9  C6  UNL     1      50.169 -32.333 -90.578  1.00  0.00     0.152 C 
HETATM   10  O1  UNL     1      47.276 -31.172 -92.458  1.00  0.00    -0.271 OA
BRANCH   8  11
HETATM   11  C5  UNL     1      47.765 -32.059 -89.896  1.00  0.00     0.152 C 
BRANCH  11  12
HETATM   12  C4  UNL     1      47.892 -33.425 -89.260  1.00  0.00     0.252 C 
BRANCH  12  13
HETATM   13  N1  UNL     1      46.752 -33.603 -88.392  1.00  0.00    -0.070 N 
ATOM     14  H12 UNL     1      46.544 -32.740 -87.890  1.00  0.00     0.277 HD
ATOM     15  H11 UNL     1      46.989 -34.207 -87.605  1.00  0.00     0.277 HD
BRANCH  13  16
HETATM   16  C2  UNL     1      45.587 -34.088 -89.065  1.00  0.00     0.178 C 
HETATM   17  C1  UNL     1      44.402 -33.269 -88.577  1.00  0.00     0.039 C 
HETATM   18  C3  UNL     1      45.280 -35.535 -88.790  1.00  0.00     0.039 C 
ENDBRANCH  13  16
ENDBRANCH  12  13
ENDBRANCH  11  12
ENDBRANCH   8  11
ENDBRANCH   5   7
ENDBRANCH   1   5
BRANCH   3  19
HETATM   19  C11 UNL     1      49.222 -29.316 -96.507  1.00  0.00     0.086 C 
BRANCH  19  20
HETATM   20  C12 UNL     1      50.226 -29.139 -97.607  1.00  0.00    -0.001 C 
HETATM   21  C13 UNL     1      50.758 -30.501 -97.977  1.00  0.00     0.005 C 
HETATM   22  C14 UNL     1      49.814 -31.286 -98.832  1.00  0.00     0.000 C 
HETATM   23  C15 UNL     1      49.524 -30.496-100.077  1.00  0.00     0.000 C 
HETATM   24  C16 UNL     1      48.979 -29.124 -99.792  1.00  0.00     0.000 C 
HETATM   25  C17 UNL     1      49.772 -28.366 -98.771  1.00  0.00     0.005 C 
ENDBRANCH  19  20
BRANCH  19  26
HETATM   26  C18 UNL     1      48.563 -28.088 -96.021  1.00  0.00    -0.001 C 
HETATM   27  C19 UNL     1      47.578 -27.446 -96.937  1.00  0.00     0.005 C 
HETATM   28  C20 UNL     1      46.857 -26.382 -96.095  1.00  0.00     0.000 C 
HETATM   29  C21 UNL     1      47.812 -25.360 -95.595  1.00  0.00     0.000 C 
HETATM   30  C22 UNL     1      49.073 -25.917 -95.006  1.00  0.00     0.000 C 
HETATM   31  C23 UNL     1      49.670 -27.039 -95.810  1.00  0.00     0.005 C 
ENDBRANCH  19  26
ENDBRANCH   3  19
TORSDOF 9
ENDMDL
