MODEL 1
REMARK VINA RESULT: -7.670872045      0.000      0.000
REMARK  10 active torsions:
REMARK  status: ('A' for Active; 'I' for Inactive)
REMARK    1  A    between atoms: C2_2  and  C3_3 
REMARK    2  A    between atoms: C3_3  and  C4_4 
REMARK    3  A    between atoms: C4_4  and  C5_5 
REMARK    4  A    between atoms: C5_5  and  C6_6 
REMARK    5  A    between atoms: N1_9  and  C9_10 
REMARK    6  A    between atoms: C9_10  and  C10_11 
REMARK    7  A    between atoms: C10_11  and  N2_12 
REMARK    8  A    between atoms: N2_12  and  C11_14 
REMARK    9  A    between atoms: C11_14  and  N3_16 
REMARK   10  A    between atoms: N3_16  and  C12_18 
ROOT
HETATM    1  N2  UNL     1      50.553 -31.591 -98.808  1.00  0.00    -0.366 N 
ATOM      2  H2  UNL     1      51.468 -31.142 -98.760  1.00  0.00     0.161 HD
ENDROOT
BRANCH   1   3
HETATM    3  C10 UNL     1      49.595 -31.049 -99.731  1.00  0.00     0.141 C 
BRANCH   3   4
HETATM    4  C9  UNL     1      49.820 -29.587 -99.945  1.00  0.00     0.136 C 
BRANCH   4   5
HETATM    5  N1  UNL     1      48.779 -28.757 -99.466  1.00  0.00    -0.411 N 
HETATM    6  C8  UNL     1      48.886 -28.259 -98.139  1.00  0.00     0.117 C 
HETATM    7  C7  UNL     1      47.605 -28.536 -97.350  1.00  0.00     0.024 C 
HETATM    8  C6  UNL     1      46.433 -27.831 -98.033  1.00  0.00    -0.012 C 
HETATM    9  C23 UNL     1      46.571 -27.824 -99.536  1.00  0.00     0.024 C 
HETATM   10  C22 UNL     1      47.464 -28.996 -99.915  1.00  0.00     0.117 C 
BRANCH   8  11
HETATM   11  C5  UNL     1      46.425 -26.407 -97.526  1.00  0.00     0.005 C 
BRANCH  11  12
HETATM   12  C4  UNL     1      46.532 -26.432 -96.030  1.00  0.00     0.000 C 
BRANCH  12  13
HETATM   13  C3  UNL     1      47.545 -25.454 -95.510  1.00  0.00    -0.000 C 
BRANCH  13  14
HETATM   14  C2  UNL     1      48.577 -26.080 -94.599  1.00  0.00    -0.005 C 
HETATM   15  C1  UNL     1      49.926 -26.115 -95.270  1.00  0.00     0.005 C 
ENDBRANCH  13  14
ENDBRANCH  12  13
ENDBRANCH  11  12
ENDBRANCH   8  11
ENDBRANCH   4   5
ENDBRANCH   3   4
ENDBRANCH   1   3
BRANCH   1  16
HETATM   16  C11 UNL     1      50.325 -32.702 -97.959  1.00  0.00     0.168 C 
HETATM   17  S1  UNL     1      49.647 -34.034 -98.616  1.00  0.00    -0.041 SA
BRANCH  16  18
HETATM   18  N3  UNL     1      50.652 -32.604 -96.586  1.00  0.00    -0.358 N 
ATOM     19  H3  UNL     1      51.507 -33.083 -96.302  1.00  0.00     0.162 HD
BRANCH  18  20
HETATM   20  C12 UNL     1      49.955 -31.931 -95.551  1.00  0.00     0.033 C 
HETATM   21  C13 UNL     1      50.332 -30.491 -95.493  1.00  0.00     0.035 C 
HETATM   22  C14 UNL     1      49.687 -29.792 -94.290  1.00  0.00    -0.012 C 
HETATM   23  C15 UNL     1      49.989 -30.566 -93.049  1.00  0.00     0.009 C 
HETATM   24  C19 UNL     1      48.191 -29.773 -94.603  1.00  0.00     0.009 C 
HETATM   25  C16 UNL     1      49.359 -31.948 -93.138  1.00  0.00    -0.012 C 
HETATM   26  C17 UNL     1      47.883 -31.875 -93.423  1.00  0.00     0.009 C 
HETATM   27  C21 UNL     1      50.075 -32.671 -94.236  1.00  0.00     0.035 C 
HETATM   28  C18 UNL     1      47.731 -31.198 -94.771  1.00  0.00    -0.012 C 
HETATM   29  C20 UNL     1      48.441 -31.948 -95.854  1.00  0.00     0.035 C 
ENDBRANCH  18  20
ENDBRANCH  16  18
ENDBRANCH   1  16
TORSDOF 10
ENDMDL
MODEL 2
REMARK VINA RESULT: -7.628456673      0.110      1.421
REMARK  10 active torsions:
REMARK  status: ('A' for Active; 'I' for Inactive)
REMARK    1  A    between atoms: C2_2  and  C3_3 
REMARK    2  A    between atoms: C3_3  and  C4_4 
REMARK    3  A    between atoms: C4_4  and  C5_5 
REMARK    4  A    between atoms: C5_5  and  C6_6 
REMARK    5  A    between atoms: N1_9  and  C9_10 
REMARK    6  A    between atoms: C9_10  and  C10_11 
REMARK    7  A    between atoms: C10_11  and  N2_12 
REMARK    8  A    between atoms: N2_12  and  C11_14 
REMARK    9  A    between atoms: C11_14  and  N3_16 
REMARK   10  A    between atoms: N3_16  and  C12_18 
ROOT
HETATM    1  N2  UNL     1      50.485 -31.576 -98.747  1.00  0.00    -0.366 N 
ATOM      2  H2  UNL     1      51.383 -31.115 -98.598  1.00  0.00     0.161 HD
ENDROOT
BRANCH   1   3
HETATM    3  C10 UNL     1      49.604 -31.011 -99.730  1.00  0.00     0.141 C 
BRANCH   3   4
HETATM    4  C9  UNL     1      49.850 -29.546 -99.898  1.00  0.00     0.136 C 
BRANCH   4   5
HETATM    5  N1  UNL     1      48.807 -28.718 -99.422  1.00  0.00    -0.411 N 
HETATM    6  C8  UNL     1      48.884 -28.261 -98.079  1.00  0.00     0.117 C 
HETATM    7  C7  UNL     1      47.579 -28.545 -97.332  1.00  0.00     0.024 C 
HETATM    8  C6  UNL     1      46.435 -27.804 -98.024  1.00  0.00    -0.012 C 
HETATM    9  C23 UNL     1      46.612 -27.755 -99.522  1.00  0.00     0.024 C 
HETATM   10  C22 UNL     1      47.501 -28.926 -99.912  1.00  0.00     0.117 C 
BRANCH   8  11
HETATM   11  C5  UNL     1      46.430 -26.396 -97.475  1.00  0.00     0.005 C 
BRANCH  11  12
HETATM   12  C4  UNL     1      46.526 -26.466 -95.980  1.00  0.00     0.000 C 
BRANCH  12  13
HETATM   13  C3  UNL     1      47.510 -25.480 -95.421  1.00  0.00    -0.000 C 
BRANCH  13  14
HETATM   14  C2  UNL     1      48.584 -26.117 -94.566  1.00  0.00    -0.005 C 
HETATM   15  C1  UNL     1      49.922 -26.047 -95.256  1.00  0.00     0.005 C 
ENDBRANCH  13  14
ENDBRANCH  12  13
ENDBRANCH  11  12
ENDBRANCH   8  11
ENDBRANCH   4   5
ENDBRANCH   3   4
ENDBRANCH   1   3
BRANCH   1  16
HETATM   16  C11 UNL     1      50.203 -32.725 -97.968  1.00  0.00     0.168 C 
HETATM   17  S1  UNL     1      49.498 -33.995 -98.713  1.00  0.00    -0.041 SA
BRANCH  16  18
HETATM   18  N3  UNL     1      50.505 -32.716 -96.586  1.00  0.00    -0.358 N 
ATOM     19  H3  UNL     1      51.293 -33.299 -96.303  1.00  0.00     0.162 HD
BRANCH  18  20
HETATM   20  C12 UNL     1      49.862 -32.007 -95.540  1.00  0.00     0.033 C 
HETATM   21  C13 UNL     1      48.382 -32.027 -95.701  1.00  0.00     0.035 C 
HETATM   22  C14 UNL     1      47.692 -31.148 -94.652  1.00  0.00    -0.012 C 
HETATM   23  C15 UNL     1      48.302 -29.784 -94.673  1.00  0.00     0.009 C 
HETATM   24  C19 UNL     1      47.931 -31.861 -93.323  1.00  0.00     0.009 C 
HETATM   25  C16 UNL     1      49.767 -29.870 -94.273  1.00  0.00    -0.012 C 
HETATM   26  C17 UNL     1      49.947 -30.557 -92.947  1.00  0.00     0.009 C 
HETATM   27  C21 UNL     1      50.461 -30.628 -95.362  1.00  0.00     0.035 C 
HETATM   28  C18 UNL     1      49.420 -31.969 -93.112  1.00  0.00    -0.012 C 
HETATM   29  C20 UNL     1      50.140 -32.711 -94.193  1.00  0.00     0.035 C 
ENDBRANCH  18  20
ENDBRANCH  16  18
ENDBRANCH   1  16
TORSDOF 10
ENDMDL
MODEL 3
REMARK VINA RESULT: -7.540700644      2.381      4.826
REMARK  10 active torsions:
REMARK  status: ('A' for Active; 'I' for Inactive)
REMARK    1  A    between atoms: C2_2  and  C3_3 
REMARK    2  A    between atoms: C3_3  and  C4_4 
REMARK    3  A    between atoms: C4_4  and  C5_5 
REMARK    4  A    between atoms: C5_5  and  C6_6 
REMARK    5  A    between atoms: N1_9  and  C9_10 
REMARK    6  A    between atoms: C9_10  and  C10_11 
REMARK    7  A    between atoms: C10_11  and  N2_12 
REMARK    8  A    between atoms: N2_12  and  C11_14 
REMARK    9  A    between atoms: C11_14  and  N3_16 
REMARK   10  A    between atoms: N3_16  and  C12_18 
ROOT
HETATM    1  N2  UNL     1      47.638 -27.463 -95.330  1.00  0.00    -0.366 N 
ATOM      2  H2  UNL     1      47.106 -28.078 -94.714  1.00  0.00     0.161 HD
ENDROOT
BRANCH   1   3
HETATM    3  C10 UNL     1      46.909 -26.725 -96.323  1.00  0.00     0.141 C 
BRANCH   3   4
HETATM    4  C9  UNL     1      46.123 -27.639 -97.206  1.00  0.00     0.136 C 
BRANCH   4   5
HETATM    5  N1  UNL     1      46.907 -28.555 -97.946  1.00  0.00    -0.411 N 
HETATM    6  C8  UNL     1      48.078 -28.064 -98.582  1.00  0.00     0.117 C 
HETATM    7  C7  UNL     1      48.106 -28.465-100.058  1.00  0.00     0.024 C 
HETATM    8  C6  UNL     1      48.110 -29.990-100.162  1.00  0.00    -0.012 C 
HETATM    9  C23 UNL     1      47.284 -30.637 -99.077  1.00  0.00     0.024 C 
HETATM   10  C22 UNL     1      46.258 -29.613 -98.617  1.00  0.00     0.117 C 
BRANCH   8  11
HETATM   11  C5  UNL     1      49.548 -30.433-100.026  1.00  0.00     0.005 C 
BRANCH  11  12
HETATM   12  C4  UNL     1      49.633 -31.450 -98.926  1.00  0.00     0.000 C 
BRANCH  12  13
HETATM   13  C3  UNL     1      51.047 -31.861 -98.633  1.00  0.00    -0.000 C 
BRANCH  13  14
HETATM   14  C2  UNL     1      51.227 -33.358 -98.508  1.00  0.00    -0.005 C 
HETATM   15  C1  UNL     1      49.939 -34.075 -98.823  1.00  0.00     0.005 C 
ENDBRANCH  13  14
ENDBRANCH  12  13
ENDBRANCH  11  12
ENDBRANCH   8  11
ENDBRANCH   4   5
ENDBRANCH   3   4
ENDBRANCH   1   3
BRANCH   1  16
HETATM   16  C11 UNL     1      49.041 -27.403 -95.140  1.00  0.00     0.168 C 
HETATM   17  S1  UNL     1      49.695 -25.956 -94.760  1.00  0.00    -0.041 SA
BRANCH  16  18
HETATM   18  N3  UNL     1      49.816 -28.573 -95.321  1.00  0.00    -0.358 N 
ATOM     19  H3  UNL     1      50.695 -28.445 -95.822  1.00  0.00     0.162 HD
BRANCH  18  20
HETATM   20  C12 UNL     1      49.537 -29.898 -94.902  1.00  0.00     0.033 C 
HETATM   21  C13 UNL     1      48.445 -30.504 -95.712  1.00  0.00     0.035 C 
HETATM   22  C14 UNL     1      48.046 -31.883 -95.174  1.00  0.00    -0.012 C 
HETATM   23  C15 UNL     1      47.751 -31.776 -93.714  1.00  0.00     0.009 C 
HETATM   24  C19 UNL     1      49.254 -32.776 -95.450  1.00  0.00     0.009 C 
HETATM   25  C16 UNL     1      49.009 -31.363 -92.964  1.00  0.00    -0.012 C 
HETATM   26  C17 UNL     1      50.162 -32.287 -93.249  1.00  0.00     0.009 C 
HETATM   27  C21 UNL     1      49.327 -29.968 -93.404  1.00  0.00     0.035 C 
HETATM   28  C18 UNL     1      50.444 -32.187 -94.736  1.00  0.00    -0.012 C 
HETATM   29  C20 UNL     1      50.775 -30.788 -95.148  1.00  0.00     0.035 C 
ENDBRANCH  18  20
ENDBRANCH  16  18
ENDBRANCH   1  16
TORSDOF 10
ENDMDL
MODEL 4
REMARK VINA RESULT: -7.534195136      1.632      4.968
REMARK  10 active torsions:
REMARK  status: ('A' for Active; 'I' for Inactive)
REMARK    1  A    between atoms: C2_2  and  C3_3 
REMARK    2  A    between atoms: C3_3  and  C4_4 
REMARK    3  A    between atoms: C4_4  and  C5_5 
REMARK    4  A    between atoms: C5_5  and  C6_6 
REMARK    5  A    between atoms: N1_9  and  C9_10 
REMARK    6  A    between atoms: C9_10  and  C10_11 
REMARK    7  A    between atoms: C10_11  and  N2_12 
REMARK    8  A    between atoms: N2_12  and  C11_14 
REMARK    9  A    between atoms: C11_14  and  N3_16 
REMARK   10  A    between atoms: N3_16  and  C12_18 
ROOT
HETATM    1  N2  UNL     1      48.464 -28.740-100.458  1.00  0.00    -0.366 N 
ATOM      2  H2  UNL     1      48.714 -27.892-100.968  1.00  0.00     0.161 HD
ENDROOT
BRANCH   1   3
HETATM    3  C10 UNL     1      49.286 -29.901-100.656  1.00  0.00     0.141 C 
BRANCH   3   4
HETATM    4  C9  UNL     1      50.357 -29.986 -99.618  1.00  0.00     0.136 C 
BRANCH   4   5
HETATM    5  N1  UNL     1      49.997 -30.719 -98.462  1.00  0.00    -0.411 N 
HETATM    6  C8  UNL     1      50.965 -30.851 -97.431  1.00  0.00     0.117 C 
HETATM    7  C7  UNL     1      51.131 -32.316 -97.026  1.00  0.00     0.024 C 
HETATM    8  C6  UNL     1      49.797 -32.845 -96.499  1.00  0.00    -0.012 C 
HETATM    9  C23 UNL     1      48.620 -32.251 -97.233  1.00  0.00     0.024 C 
HETATM   10  C22 UNL     1      49.115 -31.810 -98.602  1.00  0.00     0.117 C 
BRANCH   8  11
HETATM   11  C5  UNL     1      49.721 -32.461 -95.039  1.00  0.00     0.005 C 
BRANCH  11  12
HETATM   12  C4  UNL     1      48.304 -32.091 -94.716  1.00  0.00     0.000 C 
BRANCH  12  13
HETATM   13  C3  UNL     1      48.121 -31.728 -93.271  1.00  0.00    -0.000 C 
BRANCH  13  14
HETATM   14  C2  UNL     1      49.415 -31.388 -92.565  1.00  0.00    -0.005 C 
HETATM   15  C1  UNL     1      49.346 -31.781 -91.112  1.00  0.00     0.005 C 
ENDBRANCH  13  14
ENDBRANCH  12  13
ENDBRANCH  11  12
ENDBRANCH   8  11
ENDBRANCH   4   5
ENDBRANCH   3   4
ENDBRANCH   1   3
BRANCH   1  16
HETATM   16  C11 UNL     1      47.331 -28.682 -99.610  1.00  0.00     0.168 C 
HETATM   17  S1  UNL     1      46.193 -29.841 -99.781  1.00  0.00    -0.041 SA
BRANCH  16  18
HETATM   18  N3  UNL     1      47.211 -27.617 -98.686  1.00  0.00    -0.358 N 
ATOM     19  H3  UNL     1      46.691 -26.804 -99.016  1.00  0.00     0.162 HD
BRANCH  18  20
HETATM   20  C12 UNL     1      47.714 -27.526 -97.364  1.00  0.00     0.033 C 
HETATM   21  C13 UNL     1      47.096 -26.390 -96.626  1.00  0.00     0.035 C 
HETATM   22  C14 UNL     1      47.737 -26.203 -95.246  1.00  0.00    -0.012 C 
HETATM   23  C15 UNL     1      49.220 -26.114 -95.399  1.00  0.00     0.009 C 
HETATM   24  C19 UNL     1      47.317 -27.437 -94.448  1.00  0.00     0.009 C 
HETATM   25  C16 UNL     1      49.760 -27.422 -95.955  1.00  0.00    -0.012 C 
HETATM   26  C17 UNL     1      49.340 -28.602 -95.122  1.00  0.00     0.009 C 
HETATM   27  C21 UNL     1      49.228 -27.543 -97.350  1.00  0.00     0.035 C 
HETATM   28  C18 UNL     1      47.825 -28.656 -95.173  1.00  0.00    -0.012 C 
HETATM   29  C20 UNL     1      47.319 -28.794 -96.574  1.00  0.00     0.035 C 
ENDBRANCH  18  20
ENDBRANCH  16  18
ENDBRANCH   1  16
TORSDOF 10
ENDMDL
MODEL 5
REMARK VINA RESULT: -7.475520205      2.684      6.265
REMARK  10 active torsions:
REMARK  status: ('A' for Active; 'I' for Inactive)
REMARK    1  A    between atoms: C2_2  and  C3_3 
REMARK    2  A    between atoms: C3_3  and  C4_4 
REMARK    3  A    between atoms: C4_4  and  C5_5 
REMARK    4  A    between atoms: C5_5  and  C6_6 
REMARK    5  A    between atoms: N1_9  and  C9_10 
REMARK    6  A    between atoms: C9_10  and  C10_11 
REMARK    7  A    between atoms: C10_11  and  N2_12 
REMARK    8  A    between atoms: N2_12  and  C11_14 
REMARK    9  A    between atoms: C11_14  and  N3_16 
REMARK   10  A    between atoms: N3_16  and  C12_18 
ROOT
HETATM    1  N2  UNL     1      48.991 -27.847 -97.088  1.00  0.00    -0.366 N 
ATOM      2  H2  UNL     1      49.665 -27.098 -97.246  1.00  0.00     0.161 HD
ENDROOT
BRANCH   1   3
HETATM    3  C10 UNL     1      48.670 -28.174 -95.726  1.00  0.00     0.141 C 
BRANCH   3   4
HETATM    4  C9  UNL     1      49.620 -29.187 -95.176  1.00  0.00     0.136 C 
BRANCH   4   5
HETATM    5  N1  UNL     1      49.128 -29.909 -94.063  1.00  0.00    -0.411 N 
HETATM    6  C8  UNL     1      50.067 -30.606 -93.256  1.00  0.00     0.117 C 
HETATM    7  C7  UNL     1      49.639 -32.061 -93.057  1.00  0.00     0.024 C 
HETATM    8  C6  UNL     1      48.285 -32.092 -92.350  1.00  0.00    -0.012 C 
HETATM    9  C23 UNL     1      47.393 -30.951 -92.775  1.00  0.00     0.024 C 
HETATM   10  C22 UNL     1      47.854 -30.506 -94.155  1.00  0.00     0.117 C 
BRANCH   8  11
HETATM   11  C5  UNL     1      48.563 -31.983 -90.868  1.00  0.00     0.005 C 
BRANCH  11  12
HETATM   12  C4  UNL     1      47.254 -31.948 -90.138  1.00  0.00     0.000 C 
BRANCH  12  13
HETATM   13  C3  UNL     1      47.158 -33.007 -89.078  1.00  0.00    -0.000 C 
BRANCH  13  14
HETATM   14  C2  UNL     1      45.965 -33.922 -89.245  1.00  0.00    -0.005 C 
HETATM   15  C1  UNL     1      44.723 -33.281 -88.679  1.00  0.00     0.005 C 
ENDBRANCH  13  14
ENDBRANCH  12  13
ENDBRANCH  11  12
ENDBRANCH   8  11
ENDBRANCH   4   5
ENDBRANCH   3   4
ENDBRANCH   1   3
BRANCH   1  16
HETATM   16  C11 UNL     1      48.443 -28.486 -98.227  1.00  0.00     0.168 C 
HETATM   17  S1  UNL     1      46.937 -28.057 -98.689  1.00  0.00    -0.041 SA
BRANCH  16  18
HETATM   18  N3  UNL     1      49.196 -29.483 -98.891  1.00  0.00    -0.358 N 
ATOM     19  H3  UNL     1      49.618 -29.200 -99.776  1.00  0.00     0.162 HD
BRANCH  18  20
HETATM   20  C12 UNL     1      49.443 -30.822 -98.496  1.00  0.00     0.033 C 
HETATM   21  C13 UNL     1      48.305 -31.372 -97.709  1.00  0.00     0.035 C 
HETATM   22  C14 UNL     1      48.625 -32.769 -97.162  1.00  0.00    -0.012 C 
HETATM   23  C15 UNL     1      49.926 -32.725 -96.429  1.00  0.00     0.009 C 
HETATM   24  C19 UNL     1      48.694 -33.667 -98.397  1.00  0.00     0.009 C 
HETATM   25  C16 UNL     1      51.047 -32.367 -97.392  1.00  0.00    -0.012 C 
HETATM   26  C17 UNL     1      51.088 -33.294 -98.576  1.00  0.00     0.009 C 
HETATM   27  C21 UNL     1      50.797 -30.958 -97.832  1.00  0.00     0.035 C 
HETATM   28  C18 UNL     1      49.769 -33.130 -99.306  1.00  0.00    -0.012 C 
HETATM   29  C20 UNL     1      49.549 -31.718 -99.749  1.00  0.00     0.035 C 
ENDBRANCH  18  20
ENDBRANCH  16  18
ENDBRANCH   1  16
TORSDOF 10
ENDMDL
