MODEL 1
REMARK VINA RESULT: -7.894101102      0.000      0.000
REMARK  10 active torsions:
REMARK  status: ('A' for Active; 'I' for Inactive)
REMARK    1  A    between atoms: N1_1  and  C1_5 
REMARK    2  A    between atoms: C1_5  and  C2_6 
REMARK    3  A    between atoms: C2_6  and  N2_7 
REMARK    4  A    between atoms: N2_7  and  C3_9 
REMARK    5  A    between atoms: C6_14  and  N4_15 
REMARK    6  A    between atoms: N4_15  and  C7_17 
REMARK    7  A    between atoms: C7_17  and  C8_18 
REMARK       I    between atoms: C8_18  and  N5_20 
REMARK    8  A    between atoms: N5_20  and  C9_22 
REMARK    9  A    between atoms: C9_22  and  C10_23 
REMARK   10  A    between atoms: C10_23  and  C11_24 
ROOT
HETATM    1  C3  UNL     1      -1.916 -37.322  77.606  1.00  0.00     0.679 A 
HETATM    2  N3  UNL     1      -2.709 -38.371  77.835  1.00  0.00    -0.202 N 
ATOM      3  H3  UNL     1      -2.374 -39.120  78.442  1.00  0.00     0.183 HD
HETATM    4  C4  UNL     1      -3.946 -38.476  77.284  1.00  0.00     0.110 A 
HETATM    5  C5  UNL     1      -4.356 -37.443  76.471  1.00  0.00     0.066 A 
HETATM    6  C6  UNL     1      -3.561 -36.347  76.216  1.00  0.00     0.118 A 
HETATM    7  N6  UNL     1      -2.345 -36.308  76.795  1.00  0.00    -0.177 N 
ATOM      8  H6  UNL     1      -1.734 -35.508  76.625  1.00  0.00     0.185 HD
ENDROOT
BRANCH   6   9
HETATM    9  N4  UNL     1      -3.973 -35.400  75.453  1.00  0.00    -0.367 N 
ATOM     10  H4  UNL     1      -4.366 -35.640  74.543  1.00  0.00     0.161 HD
BRANCH   9  11
HETATM   11  C7  UNL     1      -3.902 -34.017  75.832  1.00  0.00     0.224 C 
BRANCH  11  12
HETATM   12  C8  UNL     1      -4.926 -33.653  76.844  1.00  0.00     0.235 C 
HETATM   13  O1  UNL     1      -6.123 -33.454  76.523  1.00  0.00    -0.272 OA
HETATM   14  N5  UNL     1      -4.560 -33.523  78.205  1.00  0.00    -0.359 N 
ATOM     15  H5  UNL     1      -3.590 -33.683  78.476  1.00  0.00     0.162 HD
BRANCH  14  16
HETATM   16  C9  UNL     1      -5.526 -33.169  79.223  1.00  0.00     0.127 C 
BRANCH  16  17
HETATM   17  C10 UNL     1      -5.459 -34.113  80.382  1.00  0.00     0.058 C 
BRANCH  17  18
HETATM   18  C11 UNL     1      -4.696 -33.469  81.464  1.00  0.00    -0.057 A 
HETATM   19  C12 UNL     1      -3.474 -33.991  81.825  1.00  0.00     0.007 A 
HETATM   20  C13 UNL     1      -2.700 -33.455  82.818  1.00  0.00     0.001 A 
HETATM   21  C14 UNL     1      -3.144 -32.346  83.498  1.00  0.00     0.000 A 
HETATM   22  C15 UNL     1      -4.381 -31.790  83.157  1.00  0.00     0.001 A 
HETATM   23  C16 UNL     1      -5.146 -32.360  82.140  1.00  0.00     0.007 A 
ENDBRANCH  17  18
ENDBRANCH  16  17
ENDBRANCH  14  16
ENDBRANCH  11  12
ENDBRANCH   9  11
ENDBRANCH   6   9
BRANCH   1  24
HETATM   24  N2  UNL     1      -0.755 -37.202  78.111  1.00  0.00    -0.224 N 
ATOM     25  H2  UNL     1      -0.333 -38.033  78.526  1.00  0.00     0.177 HD
BRANCH  24  26
HETATM   26  C2  UNL     1      -0.007 -36.008  78.140  1.00  0.00     0.165 C 
BRANCH  26  27
HETATM   27  C1  UNL     1       1.318 -36.120  77.377  1.00  0.00     0.249 C 
BRANCH  27  28
HETATM   28  N1  UNL     1       2.258 -36.932  78.084  1.00  0.00    -0.078 N 
ATOM     29  H13 UNL     1       2.564 -36.484  78.948  1.00  0.00     0.274 HD
ATOM     30  H12 UNL     1       1.812 -37.757  78.485  1.00  0.00     0.274 HD
ATOM     31  H11 UNL     1       3.049 -37.185  77.493  1.00  0.00     0.274 HD
ENDBRANCH  27  28
ENDBRANCH  26  27
ENDBRANCH  24  26
ENDBRANCH   1  24
TORSDOF 10
ENDMDL
MODEL 2
REMARK VINA RESULT: -7.843771084      1.728      2.493
REMARK  10 active torsions:
REMARK  status: ('A' for Active; 'I' for Inactive)
REMARK    1  A    between atoms: N1_1  and  C1_5 
REMARK    2  A    between atoms: C1_5  and  C2_6 
REMARK    3  A    between atoms: C2_6  and  N2_7 
REMARK    4  A    between atoms: N2_7  and  C3_9 
REMARK    5  A    between atoms: C6_14  and  N4_15 
REMARK    6  A    between atoms: N4_15  and  C7_17 
REMARK    7  A    between atoms: C7_17  and  C8_18 
REMARK       I    between atoms: C8_18  and  N5_20 
REMARK    8  A    between atoms: N5_20  and  C9_22 
REMARK    9  A    between atoms: C9_22  and  C10_23 
REMARK   10  A    between atoms: C10_23  and  C11_24 
ROOT
HETATM    1  C3  UNL     1      -0.618 -38.030  76.998  1.00  0.00     0.679 A 
HETATM    2  N3  UNL     1      -0.669 -39.299  77.407  1.00  0.00    -0.202 N 
ATOM      3  H3  UNL     1       0.204 -39.790  77.606  1.00  0.00     0.183 HD
HETATM    4  C4  UNL     1      -1.845 -39.960  77.569  1.00  0.00     0.110 A 
HETATM    5  C5  UNL     1      -2.996 -39.259  77.290  1.00  0.00     0.066 A 
HETATM    6  C6  UNL     1      -2.976 -37.949  76.865  1.00  0.00     0.118 A 
HETATM    7  N6  UNL     1      -1.775 -37.354  76.726  1.00  0.00    -0.177 N 
ATOM      8  H6  UNL     1      -1.729 -36.384  76.414  1.00  0.00     0.185 HD
ENDROOT
BRANCH   6   9
HETATM    9  N4  UNL     1      -4.069 -37.323  76.614  1.00  0.00    -0.367 N 
ATOM     10  H4  UNL     1      -4.935 -37.658  77.038  1.00  0.00     0.161 HD
BRANCH   9  11
HETATM   11  C7  UNL     1      -4.120 -36.171  75.758  1.00  0.00     0.224 C 
BRANCH  11  12
HETATM   12  C8  UNL     1      -4.514 -34.940  76.489  1.00  0.00     0.235 C 
HETATM   13  O1  UNL     1      -5.087 -33.987  75.907  1.00  0.00    -0.272 OA
HETATM   14  N5  UNL     1      -4.244 -34.822  77.874  1.00  0.00    -0.359 N 
ATOM     15  H5  UNL     1      -3.778 -35.590  78.356  1.00  0.00     0.162 HD
BRANCH  14  16
HETATM   16  C9  UNL     1      -4.610 -33.640  78.623  1.00  0.00     0.127 C 
BRANCH  16  17
HETATM   17  C10 UNL     1      -4.824 -33.962  80.068  1.00  0.00     0.058 C 
BRANCH  17  18
HETATM   18  C11 UNL     1      -5.756 -32.970  80.634  1.00  0.00    -0.057 A 
HETATM   19  C12 UNL     1      -6.730 -32.430  79.826  1.00  0.00     0.007 A 
HETATM   20  C13 UNL     1      -7.636 -31.504  80.269  1.00  0.00     0.001 A 
HETATM   21  C14 UNL     1      -7.587 -31.082  81.576  1.00  0.00     0.000 A 
HETATM   22  C15 UNL     1      -6.610 -31.611  82.425  1.00  0.00     0.001 A 
HETATM   23  C16 UNL     1      -5.701 -32.553  81.942  1.00  0.00     0.007 A 
ENDBRANCH  17  18
ENDBRANCH  16  17
ENDBRANCH  14  16
ENDBRANCH  11  12
ENDBRANCH   9  11
ENDBRANCH   6   9
BRANCH   1  24
HETATM   24  N2  UNL     1       0.471 -37.391  76.840  1.00  0.00    -0.224 N 
ATOM     25  H2  UNL     1       1.142 -37.763  76.168  1.00  0.00     0.177 HD
BRANCH  24  26
HETATM   26  C2  UNL     1       0.819 -36.210  77.524  1.00  0.00     0.165 C 
BRANCH  26  27
HETATM   27  C1  UNL     1       1.569 -35.210  76.636  1.00  0.00     0.249 C 
BRANCH  27  28
HETATM   28  N1  UNL     1       1.525 -35.600  75.261  1.00  0.00    -0.078 N 
ATOM     29  H13 UNL     1       1.452 -34.792  74.645  1.00  0.00     0.274 HD
ATOM     30  H12 UNL     1       2.427 -35.957  74.945  1.00  0.00     0.274 HD
ATOM     31  H11 UNL     1       0.777 -36.271  75.089  1.00  0.00     0.274 HD
ENDBRANCH  27  28
ENDBRANCH  26  27
ENDBRANCH  24  26
ENDBRANCH   1  24
TORSDOF 10
ENDMDL
MODEL 3
REMARK VINA RESULT: -7.829478732      0.646      1.182
REMARK  10 active torsions:
REMARK  status: ('A' for Active; 'I' for Inactive)
REMARK    1  A    between atoms: N1_1  and  C1_5 
REMARK    2  A    between atoms: C1_5  and  C2_6 
REMARK    3  A    between atoms: C2_6  and  N2_7 
REMARK    4  A    between atoms: N2_7  and  C3_9 
REMARK    5  A    between atoms: C6_14  and  N4_15 
REMARK    6  A    between atoms: N4_15  and  C7_17 
REMARK    7  A    between atoms: C7_17  and  C8_18 
REMARK       I    between atoms: C8_18  and  N5_20 
REMARK    8  A    between atoms: N5_20  and  C9_22 
REMARK    9  A    between atoms: C9_22  and  C10_23 
REMARK   10  A    between atoms: C10_23  and  C11_24 
ROOT
HETATM    1  C3  UNL     1      -1.653 -37.287  77.448  1.00  0.00     0.679 A 
HETATM    2  N3  UNL     1      -2.353 -38.378  77.767  1.00  0.00    -0.202 N 
ATOM      3  H3  UNL     1      -1.912 -39.097  78.340  1.00  0.00     0.183 HD
HETATM    4  C4  UNL     1      -3.634 -38.561  77.352  1.00  0.00     0.110 A 
HETATM    5  C5  UNL     1      -4.188 -37.565  76.581  1.00  0.00     0.066 A 
HETATM    6  C6  UNL     1      -3.492 -36.429  76.235  1.00  0.00     0.118 A 
HETATM    7  N6  UNL     1      -2.226 -36.310  76.679  1.00  0.00    -0.177 N 
ATOM      8  H6  UNL     1      -1.684 -35.479  76.439  1.00  0.00     0.185 HD
ENDROOT
BRANCH   6   9
HETATM    9  N4  UNL     1      -4.038 -35.518  75.513  1.00  0.00    -0.367 N 
ATOM     10  H4  UNL     1      -4.561 -35.798  74.683  1.00  0.00     0.161 HD
BRANCH   9  11
HETATM   11  C7  UNL     1      -3.942 -34.120  75.830  1.00  0.00     0.224 C 
BRANCH  11  12
HETATM   12  C8  UNL     1      -4.922 -33.705  76.864  1.00  0.00     0.235 C 
HETATM   13  O1  UNL     1      -6.123 -33.480  76.578  1.00  0.00    -0.272 OA
HETATM   14  N5  UNL     1      -4.509 -33.552  78.210  1.00  0.00    -0.359 N 
ATOM     15  H5  UNL     1      -3.535 -33.731  78.454  1.00  0.00     0.162 HD
BRANCH  14  16
HETATM   16  C9  UNL     1      -5.431 -33.148  79.249  1.00  0.00     0.127 C 
BRANCH  16  17
HETATM   17  C10 UNL     1      -5.407 -34.108  80.396  1.00  0.00     0.058 C 
BRANCH  17  18
HETATM   18  C11 UNL     1      -4.583 -33.529  81.471  1.00  0.00    -0.057 A 
HETATM   19  C12 UNL     1      -5.031 -32.405  82.127  1.00  0.00     0.007 A 
HETATM   20  C13 UNL     1      -4.330 -31.803  83.136  1.00  0.00     0.001 A 
HETATM   21  C14 UNL     1      -3.121 -32.329  83.527  1.00  0.00     0.000 A 
HETATM   22  C15 UNL     1      -2.636 -33.470  82.882  1.00  0.00     0.001 A 
HETATM   23  C16 UNL     1      -3.376 -34.061  81.857  1.00  0.00     0.007 A 
ENDBRANCH  17  18
ENDBRANCH  16  17
ENDBRANCH  14  16
ENDBRANCH  11  12
ENDBRANCH   9  11
ENDBRANCH   6   9
BRANCH   1  24
HETATM   24  N2  UNL     1      -0.454 -37.093  77.824  1.00  0.00    -0.224 N 
ATOM     25  H2  UNL     1       0.099 -37.911  78.077  1.00  0.00     0.177 HD
BRANCH  24  26
HETATM   26  C2  UNL     1       0.167 -35.832  77.918  1.00  0.00     0.165 C 
BRANCH  26  27
HETATM   27  C1  UNL     1       1.441 -35.734  77.071  1.00  0.00     0.249 C 
BRANCH  27  28
HETATM   28  N1  UNL     1       1.138 -35.733  75.674  1.00  0.00    -0.078 N 
ATOM     29  H13 UNL     1       1.976 -35.863  75.109  1.00  0.00     0.274 HD
ATOM     30  H12 UNL     1       0.632 -36.576  75.401  1.00  0.00     0.274 HD
ATOM     31  H11 UNL     1       0.632 -34.890  75.404  1.00  0.00     0.274 HD
ENDBRANCH  27  28
ENDBRANCH  26  27
ENDBRANCH  24  26
ENDBRANCH   1  24
TORSDOF 10
ENDMDL
MODEL 4
REMARK VINA RESULT: -7.744648784      1.757      3.438
REMARK  10 active torsions:
REMARK  status: ('A' for Active; 'I' for Inactive)
REMARK    1  A    between atoms: N1_1  and  C1_5 
REMARK    2  A    between atoms: C1_5  and  C2_6 
REMARK    3  A    between atoms: C2_6  and  N2_7 
REMARK    4  A    between atoms: N2_7  and  C3_9 
REMARK    5  A    between atoms: C6_14  and  N4_15 
REMARK    6  A    between atoms: N4_15  and  C7_17 
REMARK    7  A    between atoms: C7_17  and  C8_18 
REMARK       I    between atoms: C8_18  and  N5_20 
REMARK    8  A    between atoms: N5_20  and  C9_22 
REMARK    9  A    between atoms: C9_22  and  C10_23 
REMARK   10  A    between atoms: C10_23  and  C11_24 
ROOT
HETATM    1  C3  UNL     1      -0.808 -36.877  77.666  1.00  0.00     0.679 A 
HETATM    2  N3  UNL     1       0.489 -36.581  77.774  1.00  0.00    -0.202 N 
ATOM      3  H3  UNL     1       1.114 -37.256  78.216  1.00  0.00     0.183 HD
HETATM    4  C4  UNL     1       1.005 -35.411  77.314  1.00  0.00     0.110 A 
HETATM    5  C5  UNL     1       0.125 -34.531  76.726  1.00  0.00     0.066 A 
HETATM    6  C6  UNL     1      -1.219 -34.807  76.600  1.00  0.00     0.118 A 
HETATM    7  N6  UNL     1      -1.663 -35.986  77.078  1.00  0.00    -0.177 N 
ATOM      8  H6  UNL     1      -2.654 -36.219  76.999  1.00  0.00     0.185 HD
ENDROOT
BRANCH   6   9
HETATM    9  N4  UNL     1      -2.013 -33.964  76.046  1.00  0.00    -0.367 N 
ATOM     10  H4  UNL     1      -1.721 -32.990  75.973  1.00  0.00     0.161 HD
BRANCH   9  11
HETATM   11  C7  UNL     1      -3.298 -34.341  75.525  1.00  0.00     0.224 C 
BRANCH  11  12
HETATM   12  C8  UNL     1      -4.418 -33.755  76.303  1.00  0.00     0.235 C 
HETATM   13  O1  UNL     1      -5.438 -33.293  75.737  1.00  0.00    -0.272 OA
HETATM   14  N5  UNL     1      -4.350 -33.708  77.717  1.00  0.00    -0.359 N 
ATOM     15  H5  UNL     1      -3.525 -34.081  78.186  1.00  0.00     0.162 HD
BRANCH  14  16
HETATM   16  C9  UNL     1      -5.419 -33.145  78.512  1.00  0.00     0.127 C 
BRANCH  16  17
HETATM   17  C10 UNL     1      -5.203 -33.408  79.969  1.00  0.00     0.058 C 
BRANCH  17  18
HETATM   18  C11 UNL     1      -6.164 -32.596  80.737  1.00  0.00    -0.057 A 
HETATM   19  C12 UNL     1      -6.027 -32.511  82.103  1.00  0.00     0.007 A 
HETATM   20  C13 UNL     1      -6.874 -31.780  82.892  1.00  0.00     0.001 A 
HETATM   21  C14 UNL     1      -7.913 -31.092  82.312  1.00  0.00     0.000 A 
HETATM   22  C15 UNL     1      -8.081 -31.156  80.926  1.00  0.00     0.001 A 
HETATM   23  C16 UNL     1      -7.200 -31.910  80.150  1.00  0.00     0.007 A 
ENDBRANCH  17  18
ENDBRANCH  16  17
ENDBRANCH  14  16
ENDBRANCH  11  12
ENDBRANCH   9  11
ENDBRANCH   6   9
BRANCH   1  24
HETATM   24  N2  UNL     1      -1.313 -37.965  78.088  1.00  0.00    -0.224 N 
ATOM     25  H2  UNL     1      -0.770 -38.507  78.760  1.00  0.00     0.177 HD
BRANCH  24  26
HETATM   26  C2  UNL     1      -2.565 -38.479  77.696  1.00  0.00     0.165 C 
BRANCH  26  27
HETATM   27  C1  UNL     1      -2.452 -39.822  76.966  1.00  0.00     0.249 C 
BRANCH  27  28
HETATM   28  N1  UNL     1      -3.527 -40.697  77.318  1.00  0.00    -0.078 N 
ATOM     29  H13 UNL     1      -4.269 -40.199  77.809  1.00  0.00     0.274 HD
ATOM     30  H12 UNL     1      -4.053 -40.992  76.496  1.00  0.00     0.274 HD
ATOM     31  H11 UNL     1      -3.194 -41.496  77.855  1.00  0.00     0.274 HD
ENDBRANCH  27  28
ENDBRANCH  26  27
ENDBRANCH  24  26
ENDBRANCH   1  24
TORSDOF 10
ENDMDL
MODEL 5
REMARK VINA RESULT: -7.696263870      1.851      3.962
REMARK  10 active torsions:
REMARK  status: ('A' for Active; 'I' for Inactive)
REMARK    1  A    between atoms: N1_1  and  C1_5 
REMARK    2  A    between atoms: C1_5  and  C2_6 
REMARK    3  A    between atoms: C2_6  and  N2_7 
REMARK    4  A    between atoms: N2_7  and  C3_9 
REMARK    5  A    between atoms: C6_14  and  N4_15 
REMARK    6  A    between atoms: N4_15  and  C7_17 
REMARK    7  A    between atoms: C7_17  and  C8_18 
REMARK       I    between atoms: C8_18  and  N5_20 
REMARK    8  A    between atoms: N5_20  and  C9_22 
REMARK    9  A    between atoms: C9_22  and  C10_23 
REMARK   10  A    between atoms: C10_23  and  C11_24 
ROOT
HETATM    1  C3  UNL     1      -3.276 -37.567  76.367  1.00  0.00     0.679 A 
HETATM    2  N3  UNL     1      -3.598 -38.862  76.406  1.00  0.00    -0.202 N 
ATOM      3  H3  UNL     1      -4.544 -39.143  76.144  1.00  0.00     0.183 HD
HETATM    4  C4  UNL     1      -2.709 -39.817  76.782  1.00  0.00     0.110 A 
HETATM    5  C5  UNL     1      -1.446 -39.392  77.126  1.00  0.00     0.066 A 
HETATM    6  C6  UNL     1      -1.083 -38.064  77.096  1.00  0.00     0.118 A 
HETATM    7  N6  UNL     1      -2.014 -37.168  76.713  1.00  0.00    -0.177 N 
ATOM      8  H6  UNL     1      -1.775 -36.177  76.681  1.00  0.00     0.185 HD
ENDROOT
BRANCH   6   9
HETATM    9  N4  UNL     1       0.104 -37.699  77.423  1.00  0.00    -0.367 N 
ATOM     10  H4  UNL     1       0.765 -38.409  77.742  1.00  0.00     0.161 HD
BRANCH   9  11
HETATM   11  C7  UNL     1       0.539 -36.332  77.358  1.00  0.00     0.224 C 
BRANCH  11  12
HETATM   12  C8  UNL     1      -0.215 -35.453  78.287  1.00  0.00     0.235 C 
HETATM   13  O1  UNL     1      -0.839 -34.445  77.876  1.00  0.00    -0.272 OA
HETATM   14  N5  UNL     1      -0.241 -35.745  79.673  1.00  0.00    -0.359 N 
ATOM     15  H5  UNL     1       0.263 -36.561  80.018  1.00  0.00     0.162 HD
BRANCH  14  16
HETATM   16  C9  UNL     1      -0.962 -34.914  80.612  1.00  0.00     0.127 C 
BRANCH  16  17
HETATM   17  C10 UNL     1      -2.173 -35.618  81.136  1.00  0.00     0.058 C 
BRANCH  17  18
HETATM   18  C11 UNL     1      -3.293 -34.660  81.165  1.00  0.00    -0.057 A 
HETATM   19  C12 UNL     1      -4.074 -34.509  80.042  1.00  0.00     0.007 A 
HETATM   20  C13 UNL     1      -5.132 -33.643  79.983  1.00  0.00     0.001 A 
HETATM   21  C14 UNL     1      -5.445 -32.881  81.084  1.00  0.00     0.000 A 
HETATM   22  C15 UNL     1      -4.672 -33.010  82.241  1.00  0.00     0.001 A 
HETATM   23  C16 UNL     1      -3.600 -33.902  82.270  1.00  0.00     0.007 A 
ENDBRANCH  17  18
ENDBRANCH  16  17
ENDBRANCH  14  16
ENDBRANCH  11  12
ENDBRANCH   9  11
ENDBRANCH   6   9
BRANCH   1  24
HETATM   24  N2  UNL     1      -4.091 -36.656  76.018  1.00  0.00    -0.224 N 
ATOM     25  H2  UNL     1      -4.747 -36.872  75.267  1.00  0.00     0.177 HD
BRANCH  24  26
HETATM   26  C2  UNL     1      -4.155 -35.369  76.588  1.00  0.00     0.165 C 
BRANCH  26  27
HETATM   27  C1  UNL     1      -3.991 -34.252  75.552  1.00  0.00     0.249 C 
BRANCH  27  28
HETATM   28  N1  UNL     1      -2.615 -34.042  75.226  1.00  0.00    -0.078 N 
ATOM     29  H13 UNL     1      -2.116 -33.581  75.987  1.00  0.00     0.274 HD
ATOM     30  H12 UNL     1      -2.097 -34.920  75.209  1.00  0.00     0.274 HD
ATOM     31  H11 UNL     1      -2.515 -33.532  74.350  1.00  0.00     0.274 HD
ENDBRANCH  27  28
ENDBRANCH  26  27
ENDBRANCH  24  26
ENDBRANCH   1  24
TORSDOF 10
ENDMDL
