MODEL 1
REMARK VINA RESULT: -6.311618923      0.000      0.000
REMARK  2 active torsions:
REMARK  status: ('A' for Active; 'I' for Inactive)
REMARK    1  A    between atoms: C3_3  and  C4_4 
REMARK    2  A    between atoms: C4_4  and  N1_5 
ROOT
HETATM    1  C1  UNL     1      -5.989 -30.149 -15.546  1.00  0.00     0.012 C 
HETATM    2  C2  UNL     1      -6.933 -29.716 -14.939  1.00  0.00    -0.115 C 
HETATM    3  C3  UNL     1      -8.068 -29.233 -14.220  1.00  0.00     0.133 C 
ENDROOT
BRANCH   3   4
HETATM    4  C4  UNL     1      -8.307 -27.725 -14.322  1.00  0.00     0.144 C 
HETATM    5  C8  UNL     1      -7.197 -27.249 -15.228  1.00  0.00     0.051 C 
HETATM    6  C9  UNL     1      -6.289 -26.221 -14.565  1.00  0.00     0.034 C 
HETATM    7  C10 UNL     1      -5.544 -27.051 -13.498  1.00  0.00     0.015 C 
HETATM    8  C15 UNL     1      -7.047 -25.255 -13.734  1.00  0.00    -0.007 C 
HETATM    9  C11 UNL     1      -6.563 -27.524 -12.535  1.00  0.00    -0.005 C 
HETATM   10  C12 UNL     1      -6.782 -26.351 -11.561  1.00  0.00     0.020 C 
HETATM   11  C16 UNL     1      -8.015 -27.278 -12.920  1.00  0.00     0.041 C 
HETATM   12  C13 UNL     1      -7.794 -25.865 -12.633  1.00  0.00     0.001 C 
HETATM   13  C14 UNL     1      -8.801 -25.041 -11.914  1.00  0.00     0.022 C 
HETATM   14  N2  UNL     1      -7.021 -24.033 -13.982  1.00  0.00    -0.405 N 
ATOM     15  H22 UNL     1      -6.501 -23.608 -14.749  1.00  0.00     0.155 HD
ATOM     16  H21 UNL     1      -7.543 -23.369 -13.410  1.00  0.00     0.155 HD
BRANCH   4  17
HETATM   17  N1  UNL     1      -9.607 -27.422 -14.795  1.00  0.00    -0.068 N 
HETATM   18  C5  UNL     1     -10.050 -28.616 -15.554  1.00  0.00     0.272 C 
HETATM   19  C6  UNL     1      -9.730 -26.340 -15.739  1.00  0.00     0.272 C 
HETATM   20  C7  UNL     1     -10.629 -27.178 -13.834  1.00  0.00     0.272 C 
ENDBRANCH   4  17
ENDBRANCH   3   4
TORSDOF 2
ENDMDL
MODEL 2
REMARK VINA RESULT: -5.918749635      1.384      4.028
REMARK  2 active torsions:
REMARK  status: ('A' for Active; 'I' for Inactive)
REMARK    1  A    between atoms: C3_3  and  C4_4 
REMARK    2  A    between atoms: C4_4  and  N1_5 
ROOT
HETATM    1  C1  UNL     1      -5.870 -29.959 -14.772  1.00  0.00     0.012 C 
HETATM    2  C2  UNL     1      -6.411 -28.888 -14.855  1.00  0.00    -0.115 C 
HETATM    3  C3  UNL     1      -7.024 -27.602 -14.960  1.00  0.00     0.133 C 
ENDROOT
BRANCH   3   4
HETATM    4  C4  UNL     1      -8.328 -27.438 -14.177  1.00  0.00     0.144 C 
HETATM    5  C8  UNL     1      -8.601 -28.825 -13.645  1.00  0.00     0.051 C 
HETATM    6  C9  UNL     1      -9.931 -29.393 -14.124  1.00  0.00     0.034 C 
HETATM    7  C10 UNL     1      -9.686 -29.632 -15.629  1.00  0.00     0.015 C 
HETATM    8  C15 UNL     1     -11.004 -28.370 -14.142  1.00  0.00    -0.007 C 
HETATM    9  C11 UNL     1      -9.451 -28.305 -16.241  1.00  0.00    -0.005 C 
HETATM   10  C12 UNL     1     -10.852 -27.718 -16.497  1.00  0.00     0.020 C 
HETATM   11  C16 UNL     1      -9.305 -27.138 -15.275  1.00  0.00     0.041 C 
HETATM   12  C13 UNL     1     -10.738 -27.235 -15.027  1.00  0.00     0.001 C 
HETATM   13  C14 UNL     1     -11.601 -26.029 -14.915  1.00  0.00     0.022 C 
HETATM   14  N2  UNL     1     -12.034 -28.505 -13.451  1.00  0.00    -0.405 N 
ATOM     15  H22 UNL     1     -12.220 -29.296 -12.836  1.00  0.00     0.155 HD
ATOM     16  H21 UNL     1     -12.772 -27.802 -13.464  1.00  0.00     0.155 HD
BRANCH   4  17
HETATM   17  N1  UNL     1      -8.224 -26.446 -13.171  1.00  0.00    -0.068 N 
HETATM   18  C5  UNL     1      -7.621 -25.263 -13.830  1.00  0.00     0.272 C 
HETATM   19  C6  UNL     1      -7.343 -26.719 -12.063  1.00  0.00     0.272 C 
HETATM   20  C7  UNL     1      -9.425 -25.979 -12.567  1.00  0.00     0.272 C 
ENDBRANCH   4  17
ENDBRANCH   3   4
TORSDOF 2
ENDMDL
MODEL 3
REMARK VINA RESULT: -5.827887911      1.400      3.455
REMARK  2 active torsions:
REMARK  status: ('A' for Active; 'I' for Inactive)
REMARK    1  A    between atoms: C3_3  and  C4_4 
REMARK    2  A    between atoms: C4_4  and  N1_5 
ROOT
HETATM    1  C1  UNL     1     -11.658 -26.340 -15.723  1.00  0.00     0.012 C 
HETATM    2  C2  UNL     1     -10.488 -26.600 -15.813  1.00  0.00    -0.115 C 
HETATM    3  C3  UNL     1      -9.101 -26.914 -15.954  1.00  0.00     0.133 C 
ENDROOT
BRANCH   3   4
HETATM    4  C4  UNL     1      -8.430 -27.465 -14.694  1.00  0.00     0.144 C 
HETATM    5  C8  UNL     1      -9.200 -26.818 -13.568  1.00  0.00     0.051 C 
HETATM    6  C9  UNL     1      -8.322 -25.967 -12.659  1.00  0.00     0.034 C 
HETATM    7  C10 UNL     1      -7.941 -24.773 -13.561  1.00  0.00     0.015 C 
HETATM    8  C15 UNL     1      -7.003 -26.596 -12.404  1.00  0.00    -0.007 C 
HETATM    9  C11 UNL     1      -7.139 -25.318 -14.678  1.00  0.00    -0.005 C 
HETATM   10  C12 UNL     1      -5.705 -25.442 -14.130  1.00  0.00     0.020 C 
HETATM   11  C16 UNL     1      -7.070 -26.835 -14.777  1.00  0.00     0.041 C 
HETATM   12  C13 UNL     1      -6.200 -26.817 -13.607  1.00  0.00     0.001 C 
HETATM   13  C14 UNL     1      -4.996 -27.685 -13.509  1.00  0.00     0.022 C 
HETATM   14  N2  UNL     1      -6.644 -26.892 -11.247  1.00  0.00    -0.405 N 
ATOM     15  H22 UNL     1      -7.203 -26.737 -10.409  1.00  0.00     0.155 HD
ATOM     16  H21 UNL     1      -5.737 -27.324 -11.072  1.00  0.00     0.155 HD
BRANCH   4  17
HETATM   17  N1  UNL     1      -8.440 -28.881 -14.660  1.00  0.00    -0.068 N 
HETATM   18  C5  UNL     1      -9.466 -29.302 -15.645  1.00  0.00     0.272 C 
HETATM   19  C6  UNL     1      -8.854 -29.509 -13.431  1.00  0.00     0.272 C 
HETATM   20  C7  UNL     1      -7.249 -29.567 -15.030  1.00  0.00     0.272 C 
ENDBRANCH   4  17
ENDBRANCH   3   4
TORSDOF 2
ENDMDL
MODEL 4
REMARK VINA RESULT: -5.587667007      1.680      4.447
REMARK  2 active torsions:
REMARK  status: ('A' for Active; 'I' for Inactive)
REMARK    1  A    between atoms: C3_3  and  C4_4 
REMARK    2  A    between atoms: C4_4  and  N1_5 
ROOT
HETATM    1  C1  UNL     1      -6.696 -24.264 -14.255  1.00  0.00     0.012 C 
HETATM    2  C2  UNL     1      -7.099 -25.243 -14.826  1.00  0.00    -0.115 C 
HETATM    3  C3  UNL     1      -7.574 -26.389 -15.534  1.00  0.00     0.133 C 
ENDROOT
BRANCH   3   4
HETATM    4  C4  UNL     1      -8.457 -27.335 -14.718  1.00  0.00     0.144 C 
HETATM    5  C8  UNL     1      -8.689 -28.500 -15.651  1.00  0.00     0.051 C 
HETATM    6  C9  UNL     1     -10.164 -28.728 -15.961  1.00  0.00     0.034 C 
HETATM    7  C10 UNL     1     -10.533 -27.502 -16.823  1.00  0.00     0.015 C 
HETATM    8  C15 UNL     1     -11.023 -28.538 -14.767  1.00  0.00    -0.007 C 
HETATM    9  C11 UNL     1     -10.374 -26.309 -15.963  1.00  0.00    -0.005 C 
HETATM   10  C12 UNL     1     -11.680 -26.211 -15.152  1.00  0.00     0.020 C 
HETATM   11  C16 UNL     1      -9.726 -26.543 -14.605  1.00  0.00     0.041 C 
HETATM   12  C13 UNL     1     -10.962 -27.195 -14.190  1.00  0.00     0.001 C 
HETATM   13  C14 UNL     1     -11.556 -26.972 -12.844  1.00  0.00     0.022 C 
HETATM   14  N2  UNL     1     -11.728 -29.469 -14.327  1.00  0.00    -0.405 N 
ATOM     15  H22 UNL     1     -11.771 -30.404 -14.729  1.00  0.00     0.155 HD
ATOM     16  H21 UNL     1     -12.319 -29.338 -13.506  1.00  0.00     0.155 HD
BRANCH   4  17
HETATM   17  N1  UNL     1      -7.857 -27.695 -13.487  1.00  0.00    -0.068 N 
HETATM   18  C5  UNL     1      -6.400 -27.768 -13.753  1.00  0.00     0.272 C 
HETATM   19  C6  UNL     1      -8.181 -28.992 -12.948  1.00  0.00     0.272 C 
HETATM   20  C7  UNL     1      -8.002 -26.803 -12.386  1.00  0.00     0.272 C 
ENDBRANCH   4  17
ENDBRANCH   3   4
TORSDOF 2
ENDMDL
MODEL 5
REMARK VINA RESULT: -5.559690469      1.729      3.737
REMARK  2 active torsions:
REMARK  status: ('A' for Active; 'I' for Inactive)
REMARK    1  A    between atoms: C3_3  and  C4_4 
REMARK    2  A    between atoms: C4_4  and  N1_5 
ROOT
HETATM    1  C1  UNL     1     -12.545 -27.536 -15.713  1.00  0.00     0.012 C 
HETATM    2  C2  UNL     1     -11.405 -27.873 -15.893  1.00  0.00    -0.115 C 
HETATM    3  C3  UNL     1     -10.060 -28.287 -16.137  1.00  0.00     0.133 C 
ENDROOT
BRANCH   3   4
HETATM    4  C4  UNL     1      -9.218 -28.530 -14.882  1.00  0.00     0.144 C 
HETATM    5  C8  UNL     1      -9.957 -27.771 -13.805  1.00  0.00     0.051 C 
HETATM    6  C9  UNL     1      -9.108 -26.686 -13.155  1.00  0.00     0.034 C 
HETATM    7  C10 UNL     1      -8.953 -25.642 -14.282  1.00  0.00     0.015 C 
HETATM    8  C15 UNL     1      -7.707 -27.122 -12.941  1.00  0.00    -0.007 C 
HETATM    9  C11 UNL     1      -8.195 -26.296 -15.371  1.00  0.00    -0.005 C 
HETATM   10  C12 UNL     1      -6.713 -26.173 -14.968  1.00  0.00     0.020 C 
HETATM   11  C16 UNL     1      -7.956 -27.791 -15.218  1.00  0.00     0.041 C 
HETATM   12  C13 UNL     1      -6.993 -27.474 -14.169  1.00  0.00     0.001 C 
HETATM   13  C14 UNL     1      -5.691 -28.184 -14.056  1.00  0.00     0.022 C 
HETATM   14  N2  UNL     1      -7.214 -27.165 -11.797  1.00  0.00    -0.405 N 
ATOM     15  H22 UNL     1      -7.711 -26.919 -10.941  1.00  0.00     0.155 HD
ATOM     16  H21 UNL     1      -6.250 -27.465 -11.650  1.00  0.00     0.155 HD
BRANCH   4  17
HETATM   17  N1  UNL     1      -9.058 -29.910 -14.608  1.00  0.00    -0.068 N 
HETATM   18  C5  UNL     1     -10.407 -30.509 -14.743  1.00  0.00     0.272 C 
HETATM   19  C6  UNL     1      -8.644 -30.274 -13.276  1.00  0.00     0.272 C 
HETATM   20  C7  UNL     1      -8.212 -30.669 -15.467  1.00  0.00     0.272 C 
ENDBRANCH   4  17
ENDBRANCH   3   4
TORSDOF 2
ENDMDL
