MODEL 1
REMARK VINA RESULT: -6.503327357      0.000      0.000
REMARK  4 active torsions:
REMARK  status: ('A' for Active; 'I' for Inactive)
REMARK    1  A    between atoms: N1_1  and  S1_4 
REMARK    2  A    between atoms: S1_4  and  N2_7 
REMARK    3  A    between atoms: N3_14  and  C6_15 
REMARK    4  A    between atoms: C6_15  and  C7_16 
ROOT
HETATM    1  N2  UNL     1     -11.598  20.828  62.072  1.00  0.00    -0.272 N 
HETATM    2  C1  UNL     1     -12.552  20.012  62.673  1.00  0.00     0.088 C 
HETATM    3  C2  UNL     1     -12.267  19.601  64.094  1.00  0.00     0.120 C 
HETATM    4  S2  UNL     1     -10.698  20.373  64.575  1.00  0.00    -0.152 SA
HETATM    5  C3  UNL     1     -10.797  22.114  64.005  1.00  0.00     0.029 C 
HETATM    6  C4  UNL     1     -11.723  22.862  64.962  1.00  0.00     0.052 C 
HETATM    7  C5  UNL     1     -11.007  23.040  66.263  1.00  0.00     0.274 C 
HETATM    8  N3  UNL     1      -9.895  23.962  66.135  1.00  0.00     0.088 N 
HETATM    9  C10 UNL     1      -9.487  24.081  64.737  1.00  0.00     0.274 C 
HETATM   10  C11 UNL     1      -9.413  22.718  64.119  1.00  0.00     0.052 C 
HETATM   11  C12 UNL     1     -11.367  22.114  62.632  1.00  0.00     0.162 C 
ENDROOT
BRANCH   1  12
HETATM   12  S1  UNL     1     -11.027  20.484  60.547  1.00  0.00     0.318 S 
HETATM   13  O1  UNL     1     -10.524  21.709  59.800  1.00  0.00    -0.183 OA
HETATM   14  O2  UNL     1      -9.870  19.543  60.613  1.00  0.00    -0.183 OA
BRANCH  12  15
HETATM   15  N1  UNL     1     -12.285  19.812  59.579  1.00  0.00    -0.311 N 
ATOM     16  H12 UNL     1     -12.166  19.342  58.681  1.00  0.00     0.170 HD
ATOM     17  H11 UNL     1     -13.155  19.980  60.083  1.00  0.00     0.170 HD
ENDBRANCH  12  15
ENDBRANCH   1  12
BRANCH   8  18
HETATM   18  C6  UNL     1     -10.326  25.317  66.537  1.00  0.00     0.277 C 
BRANCH  18  19
HETATM   19  C7  UNL     1     -11.493  25.243  67.497  1.00  0.00     0.014 A 
HETATM   20  C8  UNL     1     -11.642  26.210  68.607  1.00  0.00     0.007 A 
HETATM   21  C9  UNL     1     -12.417  26.456  67.353  1.00  0.00     0.007 A 
ENDBRANCH  18  19
ENDBRANCH   8  18
TORSDOF 4
ENDMDL
MODEL 2
REMARK VINA RESULT: -6.372024048      3.810      6.594
REMARK  4 active torsions:
REMARK  status: ('A' for Active; 'I' for Inactive)
REMARK    1  A    between atoms: N1_1  and  S1_4 
REMARK    2  A    between atoms: S1_4  and  N2_7 
REMARK    3  A    between atoms: N3_14  and  C6_15 
REMARK    4  A    between atoms: C6_15  and  C7_16 
ROOT
HETATM    1  N2  UNL     1     -12.333  20.396  64.763  1.00  0.00    -0.272 N 
HETATM    2  C1  UNL     1     -12.139  21.559  65.503  1.00  0.00     0.088 C 
HETATM    3  C2  UNL     1     -10.909  22.361  65.161  1.00  0.00     0.120 C 
HETATM    4  S2  UNL     1     -10.063  21.500  63.807  1.00  0.00    -0.152 SA
HETATM    5  C3  UNL     1     -11.370  21.050  62.600  1.00  0.00     0.029 C 
HETATM    6  C4  UNL     1     -11.765  22.322  61.852  1.00  0.00     0.052 C 
HETATM    7  C5  UNL     1     -10.650  22.685  60.924  1.00  0.00     0.274 C 
HETATM    8  N3  UNL     1     -10.522  21.725  59.845  1.00  0.00     0.088 N 
HETATM    9  C10 UNL     1     -11.159  20.461  60.206  1.00  0.00     0.274 C 
HETATM   10  C11 UNL     1     -10.767  20.084  61.603  1.00  0.00     0.052 C 
HETATM   11  C12 UNL     1     -12.531  20.519  63.360  1.00  0.00     0.162 C 
ENDROOT
BRANCH   1  12
HETATM   12  S1  UNL     1     -12.702  18.961  65.521  1.00  0.00     0.318 S 
HETATM   13  O1  UNL     1     -11.726  18.595  66.628  1.00  0.00    -0.183 OA
HETATM   14  O2  UNL     1     -14.045  19.035  66.171  1.00  0.00    -0.183 OA
BRANCH  12  15
HETATM   15  N1  UNL     1     -12.661  17.662  64.390  1.00  0.00    -0.311 N 
ATOM     16  H12 UNL     1     -13.247  17.569  63.560  1.00  0.00     0.170 HD
ATOM     17  H11 UNL     1     -11.941  17.019  64.720  1.00  0.00     0.170 HD
ENDBRANCH  12  15
ENDBRANCH   1  12
BRANCH   8  18
HETATM   18  C6  UNL     1     -11.259  22.213  58.659  1.00  0.00     0.277 C 
BRANCH  18  19
HETATM   19  C7  UNL     1     -10.298  22.701  57.598  1.00  0.00     0.014 A 
HETATM   20  C8  UNL     1      -9.791  21.796  56.542  1.00  0.00     0.007 A 
HETATM   21  C9  UNL     1     -10.943  22.689  56.208  1.00  0.00     0.007 A 
ENDBRANCH  18  19
ENDBRANCH   8  18
TORSDOF 4
ENDMDL
MODEL 3
REMARK VINA RESULT: -6.361343042      3.782      6.619
REMARK  4 active torsions:
REMARK  status: ('A' for Active; 'I' for Inactive)
REMARK    1  A    between atoms: N1_1  and  S1_4 
REMARK    2  A    between atoms: S1_4  and  N2_7 
REMARK    3  A    between atoms: N3_14  and  C6_15 
REMARK    4  A    between atoms: C6_15  and  C7_16 
ROOT
HETATM    1  N2  UNL     1     -12.453  20.452  64.802  1.00  0.00    -0.272 N 
HETATM    2  C1  UNL     1     -12.204  21.602  65.545  1.00  0.00     0.088 C 
HETATM    3  C2  UNL     1     -10.925  22.332  65.222  1.00  0.00     0.120 C 
HETATM    4  S2  UNL     1     -10.109  21.424  63.881  1.00  0.00    -0.152 SA
HETATM    5  C3  UNL     1     -11.422  21.050  62.655  1.00  0.00     0.029 C 
HETATM    6  C4  UNL     1     -11.732  22.341  61.901  1.00  0.00     0.052 C 
HETATM    7  C5  UNL     1     -10.584  22.640  60.991  1.00  0.00     0.274 C 
HETATM    8  N3  UNL     1     -10.495  21.674  59.913  1.00  0.00     0.088 N 
HETATM    9  C10 UNL     1     -11.208  20.448  60.263  1.00  0.00     0.274 C 
HETATM   10  C11 UNL     1     -10.859  20.050  61.666  1.00  0.00     0.052 C 
HETATM   11  C12 UNL     1     -12.622  20.585  63.397  1.00  0.00     0.162 C 
ENDROOT
BRANCH   1  12
HETATM   12  S1  UNL     1     -12.915  19.041  65.554  1.00  0.00     0.318 S 
HETATM   13  O1  UNL     1     -14.415  18.945  65.786  1.00  0.00    -0.183 OA
HETATM   14  O2  UNL     1     -12.555  17.854  64.722  1.00  0.00    -0.183 OA
BRANCH  12  15
HETATM   15  N1  UNL     1     -12.177  18.924  67.106  1.00  0.00    -0.311 N 
ATOM     16  H12 UNL     1     -12.625  18.592  67.961  1.00  0.00     0.170 HD
ATOM     17  H11 UNL     1     -11.218  19.252  66.993  1.00  0.00     0.170 HD
ENDBRANCH  12  15
ENDBRANCH   1  12
BRANCH   8  18
HETATM   18  C6  UNL     1     -11.184  22.202  58.716  1.00  0.00     0.277 C 
BRANCH  18  19
HETATM   19  C7  UNL     1     -10.182  22.603  57.656  1.00  0.00     0.014 A 
HETATM   20  C8  UNL     1      -9.756  21.657  56.601  1.00  0.00     0.007 A 
HETATM   21  C9  UNL     1     -10.823  22.648  56.266  1.00  0.00     0.007 A 
ENDBRANCH  18  19
ENDBRANCH   8  18
TORSDOF 4
ENDMDL
MODEL 4
REMARK VINA RESULT: -6.238412064      0.855      1.020
REMARK  4 active torsions:
REMARK  status: ('A' for Active; 'I' for Inactive)
REMARK    1  A    between atoms: N1_1  and  S1_4 
REMARK    2  A    between atoms: S1_4  and  N2_7 
REMARK    3  A    between atoms: N3_14  and  C6_15 
REMARK    4  A    between atoms: C6_15  and  C7_16 
ROOT
HETATM    1  N2  UNL     1     -11.652  20.866  62.044  1.00  0.00    -0.272 N 
HETATM    2  C1  UNL     1     -12.580  20.033  62.662  1.00  0.00     0.088 C 
HETATM    3  C2  UNL     1     -12.251  19.610  64.071  1.00  0.00     0.120 C 
HETATM    4  S2  UNL     1     -10.678  20.394  64.516  1.00  0.00    -0.152 SA
HETATM    5  C3  UNL     1     -10.812  22.140  63.968  1.00  0.00     0.029 C 
HETATM    6  C4  UNL     1     -11.719  22.868  64.959  1.00  0.00     0.052 C 
HETATM    7  C5  UNL     1     -10.969  23.040  66.241  1.00  0.00     0.274 C 
HETATM    8  N3  UNL     1      -9.870  23.975  66.092  1.00  0.00     0.088 N 
HETATM    9  C10 UNL     1      -9.502  24.114  64.685  1.00  0.00     0.274 C 
HETATM   10  C11 UNL     1      -9.431  22.757  64.050  1.00  0.00     0.052 C 
HETATM   11  C12 UNL     1     -11.419  22.149  62.612  1.00  0.00     0.162 C 
ENDROOT
BRANCH   1  12
HETATM   12  S1  UNL     1     -11.121  20.544  60.500  1.00  0.00     0.318 S 
HETATM   13  O1  UNL     1      -9.969  19.551  60.453  1.00  0.00    -0.183 OA
HETATM   14  O2  UNL     1     -12.212  19.941  59.678  1.00  0.00    -0.183 OA
BRANCH  12  15
HETATM   15  N1  UNL     1     -10.545  21.987  59.755  1.00  0.00    -0.311 N 
ATOM     16  H12 UNL     1      -9.792  22.051  59.070  1.00  0.00     0.170 HD
ATOM     17  H11 UNL     1     -11.105  22.749  60.137  1.00  0.00     0.170 HD
ENDBRANCH  12  15
ENDBRANCH   1  12
BRANCH   8  18
HETATM   18  C6  UNL     1     -10.305  25.321  66.521  1.00  0.00     0.277 C 
BRANCH  18  19
HETATM   19  C7  UNL     1     -11.433  25.223  67.524  1.00  0.00     0.014 A 
HETATM   20  C8  UNL     1     -11.602  26.230  68.595  1.00  0.00     0.007 A 
HETATM   21  C9  UNL     1     -12.431  26.374  67.360  1.00  0.00     0.007 A 
ENDBRANCH  18  19
ENDBRANCH   8  18
TORSDOF 4
ENDMDL
MODEL 5
REMARK VINA RESULT: -6.006402396      3.768      7.115
REMARK  4 active torsions:
REMARK  status: ('A' for Active; 'I' for Inactive)
REMARK    1  A    between atoms: N1_1  and  S1_4 
REMARK    2  A    between atoms: S1_4  and  N2_7 
REMARK    3  A    between atoms: N3_14  and  C6_15 
REMARK    4  A    between atoms: C6_15  and  C7_16 
ROOT
HETATM    1  N2  UNL     1      -9.858  22.510  63.719  1.00  0.00    -0.272 N 
HETATM    2  C1  UNL     1     -10.356  21.574  64.621  1.00  0.00     0.088 C 
HETATM    3  C2  UNL     1     -11.718  21.011  64.303  1.00  0.00     0.120 C 
HETATM    4  S2  UNL     1     -12.266  21.771  62.750  1.00  0.00    -0.152 SA
HETATM    5  C3  UNL     1     -10.827  21.695  61.615  1.00  0.00     0.029 C 
HETATM    6  C4  UNL     1     -10.696  20.253  61.130  1.00  0.00     0.052 C 
HETATM    7  C5  UNL     1     -11.813  19.977  60.175  1.00  0.00     0.274 C 
HETATM    8  N3  UNL     1     -11.657  20.727  58.943  1.00  0.00     0.088 N 
HETATM    9  C10 UNL     1     -10.765  21.866  59.147  1.00  0.00     0.274 C 
HETATM   10  C11 UNL     1     -11.135  22.570  60.418  1.00  0.00     0.052 C 
HETATM   11  C12 UNL     1      -9.618  22.092  62.382  1.00  0.00     0.162 C 
ENDROOT
BRANCH   1  12
HETATM   12  S1  UNL     1      -9.209  23.945  64.259  1.00  0.00     0.318 S 
HETATM   13  O1  UNL     1      -7.749  23.829  64.668  1.00  0.00    -0.183 OA
HETATM   14  O2  UNL     1      -9.251  24.984  63.187  1.00  0.00    -0.183 OA
BRANCH  12  15
HETATM   15  N1  UNL     1     -10.059  24.496  65.653  1.00  0.00    -0.311 N 
ATOM     16  H12 UNL     1     -11.043  24.763  65.691  1.00  0.00     0.170 HD
ATOM     17  H11 UNL     1      -9.383  24.499  66.417  1.00  0.00     0.170 HD
ENDBRANCH  12  15
ENDBRANCH   1  12
BRANCH   8  18
HETATM   18  C6  UNL     1     -10.989  19.881  57.931  1.00  0.00     0.277 C 
BRANCH  18  19
HETATM   19  C7  UNL     1      -9.497  20.128  57.928  1.00  0.00     0.014 A 
HETATM   20  C8  UNL     1      -8.537  19.054  58.264  1.00  0.00     0.007 A 
HETATM   21  C9  UNL     1      -8.798  19.335  56.820  1.00  0.00     0.007 A 
ENDBRANCH  18  19
ENDBRANCH   8  18
TORSDOF 4
ENDMDL
