MODEL 1
REMARK VINA RESULT: -6.552371269      0.000      0.000
REMARK  5 active torsions:
REMARK  status: ('A' for Active; 'I' for Inactive)
REMARK    1  A    between atoms: C2_2  and  N1_3 
REMARK    2  A    between atoms: N1_3  and  N2_4 
REMARK       I    between atoms: N1_3  and  C10_21 
REMARK    3  A    between atoms: N2_4  and  C3_6 
REMARK    4  A    between atoms: C3_6  and  N3_8 
REMARK    5  A    between atoms: N3_8  and  N4_10 
ROOT
HETATM    1  N3  UNL     1      -4.063   2.986  11.737  1.00  0.00    -0.275 N 
ATOM      2  H3  UNL     1      -3.951   2.732  10.756  1.00  0.00     0.189 HD
ENDROOT
BRANCH   1   3
HETATM    3  C3  UNL     1      -4.083   1.923  12.698  1.00  0.00     0.205 C 
HETATM    4  S1  UNL     1      -4.305   0.423  12.063  1.00  0.00    -0.038 SA
BRANCH   3   5
HETATM    5  N2  UNL     1      -3.923   2.232  14.045  1.00  0.00    -0.270 N 
ATOM      6  H2  UNL     1      -2.965   2.442  14.327  1.00  0.00     0.189 HD
BRANCH   5   7
HETATM    7  N1  UNL     1      -4.845   2.298  15.046  1.00  0.00    -0.260 N 
HETATM    8  C10 UNL     1      -4.667   1.516  16.249  1.00  0.00     0.234 C 
HETATM    9  C11 UNL     1      -5.616   1.604  17.344  1.00  0.00     0.119 C 
HETATM   10  O1  UNL     1      -3.643   0.743  16.300  1.00  0.00    -0.272 OA
BRANCH   7  11
HETATM   11  C2  UNL     1      -5.998   3.147  15.031  1.00  0.00     0.148 C 
HETATM   12  C1  UNL     1      -5.551   4.575  15.275  1.00  0.00     0.028 C 
ENDBRANCH   7  11
ENDBRANCH   5   7
ENDBRANCH   3   5
ENDBRANCH   1   3
BRANCH   1  13
HETATM   13  N4  UNL     1      -4.184   4.309  12.034  1.00  0.00    -0.299 N 
HETATM   14  C4  UNL     1      -3.331   5.220  12.169  1.00  0.00     0.092 C 
HETATM   15  C5  UNL     1      -1.884   4.965  12.008  1.00  0.00     0.176 C 
HETATM   16  C9  UNL     1      -3.793   6.608  12.481  1.00  0.00     0.286 C 
HETATM   17  N5  UNL     1      -1.274   6.144  11.444  1.00  0.00    -0.411 N 
HETATM   18  C6  UNL     1      -0.371   6.831  12.309  1.00  0.00     0.143 C 
HETATM   19  C7  UNL     1      -2.119   6.977  10.667  1.00  0.00     0.123 C 
HETATM   20  C8  UNL     1      -3.288   7.568  11.423  1.00  0.00     0.105 C 
HETATM   21  F1  UNL     1      -3.371   6.933  13.750  1.00  0.00    -0.199 F 
HETATM   22  F2  UNL     1      -5.165   6.643  12.473  1.00  0.00    -0.199 F 
ATOM     23  H4  UNL     1      -5.146   4.617  12.173  1.00  0.00     0.186 HD
ENDBRANCH   1  13
TORSDOF 5
ENDMDL
MODEL 2
REMARK VINA RESULT: -6.487100967      1.686      2.018
REMARK  5 active torsions:
REMARK  status: ('A' for Active; 'I' for Inactive)
REMARK    1  A    between atoms: C2_2  and  N1_3 
REMARK    2  A    between atoms: N1_3  and  N2_4 
REMARK       I    between atoms: N1_3  and  C10_21 
REMARK    3  A    between atoms: N2_4  and  C3_6 
REMARK    4  A    between atoms: C3_6  and  N3_8 
REMARK    5  A    between atoms: N3_8  and  N4_10 
ROOT
HETATM    1  N3  UNL     1      -3.871   3.249  11.853  1.00  0.00    -0.275 N 
ATOM      2  H3  UNL     1      -3.317   3.064  11.016  1.00  0.00     0.189 HD
ENDROOT
BRANCH   1   3
HETATM    3  C3  UNL     1      -4.022   2.181  12.796  1.00  0.00     0.205 C 
HETATM    4  S1  UNL     1      -4.311   0.707  12.130  1.00  0.00    -0.038 SA
BRANCH   3   5
HETATM    5  N2  UNL     1      -3.922   2.466  14.154  1.00  0.00    -0.270 N 
ATOM      6  H2  UNL     1      -2.999   2.773  14.462  1.00  0.00     0.189 HD
BRANCH   5   7
HETATM    7  N1  UNL     1      -4.863   2.397  15.138  1.00  0.00    -0.260 N 
HETATM    8  C10 UNL     1      -4.665   1.523  16.271  1.00  0.00     0.234 C 
HETATM    9  C11 UNL     1      -5.636   1.467  17.349  1.00  0.00     0.119 C 
HETATM   10  O1  UNL     1      -3.605   0.799  16.276  1.00  0.00    -0.272 OA
BRANCH   7  11
HETATM   11  C2  UNL     1      -6.056   3.187  15.172  1.00  0.00     0.148 C 
HETATM   12  C1  UNL     1      -5.677   4.628  15.447  1.00  0.00     0.028 C 
ENDBRANCH   7  11
ENDBRANCH   5   7
ENDBRANCH   3   5
ENDBRANCH   1   3
BRANCH   1  13
HETATM   13  N4  UNL     1      -4.410   4.492  11.987  1.00  0.00    -0.299 N 
HETATM   14  C4  UNL     1      -4.371   5.507  11.251  1.00  0.00     0.092 C 
HETATM   15  C5  UNL     1      -3.643   5.512   9.964  1.00  0.00     0.176 C 
HETATM   16  C9  UNL     1      -5.101   6.742  11.676  1.00  0.00     0.286 C 
HETATM   17  N5  UNL     1      -4.351   6.365   9.043  1.00  0.00    -0.411 N 
HETATM   18  C6  UNL     1      -3.661   7.556   8.667  1.00  0.00     0.143 C 
HETATM   19  C7  UNL     1      -5.742   6.520   9.274  1.00  0.00     0.123 C 
HETATM   20  C8  UNL     1      -6.093   7.148  10.604  1.00  0.00     0.105 C 
HETATM   21  F1  UNL     1      -4.175   7.722  11.953  1.00  0.00    -0.199 F 
HETATM   22  F2  UNL     1      -5.797   6.484  12.830  1.00  0.00    -0.199 F 
ATOM     23  H4  UNL     1      -4.945   4.621  12.846  1.00  0.00     0.186 HD
ENDBRANCH   1  13
TORSDOF 5
ENDMDL
MODEL 3
REMARK VINA RESULT: -6.380867486      2.059      2.533
REMARK  5 active torsions:
REMARK  status: ('A' for Active; 'I' for Inactive)
REMARK    1  A    between atoms: C2_2  and  N1_3 
REMARK    2  A    between atoms: N1_3  and  N2_4 
REMARK       I    between atoms: N1_3  and  C10_21 
REMARK    3  A    between atoms: N2_4  and  C3_6 
REMARK    4  A    between atoms: C3_6  and  N3_8 
REMARK    5  A    between atoms: N3_8  and  N4_10 
ROOT
HETATM    1  N3  UNL     1      -4.444   2.781  11.655  1.00  0.00    -0.275 N 
ATOM      2  H3  UNL     1      -5.355   3.239  11.650  1.00  0.00     0.189 HD
ENDROOT
BRANCH   1   3
HETATM    3  C3  UNL     1      -4.223   1.756  12.632  1.00  0.00     0.205 C 
HETATM    4  S1  UNL     1      -4.278   0.221  12.046  1.00  0.00    -0.038 SA
BRANCH   3   5
HETATM    5  N2  UNL     1      -3.992   2.126  13.952  1.00  0.00    -0.270 N 
ATOM      6  H2  UNL     1      -3.018   2.329  14.178  1.00  0.00     0.189 HD
BRANCH   5   7
HETATM    7  N1  UNL     1      -4.864   2.261  14.992  1.00  0.00    -0.260 N 
HETATM    8  C10 UNL     1      -4.661   1.509  16.210  1.00  0.00     0.234 C 
HETATM    9  C11 UNL     1      -5.554   1.669  17.343  1.00  0.00     0.119 C 
HETATM   10  O1  UNL     1      -3.668   0.695  16.239  1.00  0.00    -0.272 OA
BRANCH   7  11
HETATM   11  C2  UNL     1      -5.980   3.156  15.002  1.00  0.00     0.148 C 
HETATM   12  C1  UNL     1      -5.461   4.579  14.942  1.00  0.00     0.028 C 
ENDBRANCH   7  11
ENDBRANCH   5   7
ENDBRANCH   3   5
ENDBRANCH   1   3
BRANCH   1  13
HETATM   13  N4  UNL     1      -3.530   3.191  10.733  1.00  0.00    -0.299 N 
HETATM   14  C4  UNL     1      -2.567   3.992  10.806  1.00  0.00     0.092 C 
HETATM   15  C5  UNL     1      -2.234   4.702  12.058  1.00  0.00     0.176 C 
HETATM   16  C9  UNL     1      -1.716   4.217   9.596  1.00  0.00     0.286 C 
HETATM   17  N5  UNL     1      -0.803   4.871  12.121  1.00  0.00    -0.411 N 
HETATM   18  C6  UNL     1      -0.346   6.219  12.027  1.00  0.00     0.143 C 
HETATM   19  C7  UNL     1      -0.028   3.919  11.410  1.00  0.00     0.123 C 
HETATM   20  C8  UNL     1      -0.269   3.899   9.917  1.00  0.00     0.105 C 
HETATM   21  F1  UNL     1      -1.901   5.512   9.168  1.00  0.00    -0.199 F 
HETATM   22  F2  UNL     1      -2.126   3.380   8.589  1.00  0.00    -0.199 F 
ATOM     23  H4  UNL     1      -3.651   2.769   9.812  1.00  0.00     0.186 HD
ENDBRANCH   1  13
TORSDOF 5
ENDMDL
MODEL 4
REMARK VINA RESULT: -6.366781926      1.617      2.011
REMARK  5 active torsions:
REMARK  status: ('A' for Active; 'I' for Inactive)
REMARK    1  A    between atoms: C2_2  and  N1_3 
REMARK    2  A    between atoms: N1_3  and  N2_4 
REMARK       I    between atoms: N1_3  and  C10_21 
REMARK    3  A    between atoms: N2_4  and  C3_6 
REMARK    4  A    between atoms: C3_6  and  N3_8 
REMARK    5  A    between atoms: N3_8  and  N4_10 
ROOT
HETATM    1  N3  UNL     1      -2.598   2.288  12.141  1.00  0.00    -0.275 N 
ATOM      2  H3  UNL     1      -1.927   1.761  11.582  1.00  0.00     0.189 HD
ENDROOT
BRANCH   1   3
HETATM    3  C3  UNL     1      -3.802   1.618  12.536  1.00  0.00     0.205 C 
HETATM    4  S1  UNL     1      -4.846   1.294  11.308  1.00  0.00    -0.038 SA
BRANCH   3   5
HETATM    5  N2  UNL     1      -3.990   1.310  13.879  1.00  0.00    -0.270 N 
ATOM      6  H2  UNL     1      -3.426   0.533  14.225  1.00  0.00     0.189 HD
BRANCH   5   7
HETATM    7  N1  UNL     1      -4.809   1.883  14.806  1.00  0.00    -0.260 N 
HETATM    8  C10 UNL     1      -4.785   1.426  16.176  1.00  0.00     0.234 C 
HETATM    9  C11 UNL     1      -5.619   2.051  17.187  1.00  0.00     0.119 C 
HETATM   10  O1  UNL     1      -4.003   0.447  16.455  1.00  0.00    -0.272 OA
BRANCH   7  11
HETATM   11  C2  UNL     1      -5.693   2.977  14.538  1.00  0.00     0.148 C 
HETATM   12  C1  UNL     1      -4.939   4.273  14.753  1.00  0.00     0.028 C 
ENDBRANCH   7  11
ENDBRANCH   5   7
ENDBRANCH   3   5
ENDBRANCH   1   3
BRANCH   1  13
HETATM   13  N4  UNL     1      -2.281   3.573  12.455  1.00  0.00    -0.299 N 
HETATM   14  C4  UNL     1      -2.507   4.660  11.870  1.00  0.00     0.092 C 
HETATM   15  C5  UNL     1      -3.243   4.719  10.590  1.00  0.00     0.176 C 
HETATM   16  C9  UNL     1      -2.038   5.935  12.497  1.00  0.00     0.286 C 
HETATM   17  N5  UNL     1      -4.009   5.941  10.560  1.00  0.00    -0.411 N 
HETATM   18  C6  UNL     1      -3.589   6.897   9.588  1.00  0.00     0.143 C 
HETATM   19  C7  UNL     1      -4.378   6.481  11.819  1.00  0.00     0.123 C 
HETATM   20  C8  UNL     1      -3.213   6.871  12.701  1.00  0.00     0.105 C 
HETATM   21  F1  UNL     1      -1.051   6.474  11.703  1.00  0.00    -0.199 F 
HETATM   22  F2  UNL     1      -1.487   5.663  13.723  1.00  0.00    -0.199 F 
ATOM     23  H4  UNL     1      -1.764   3.672  13.329  1.00  0.00     0.186 HD
ENDBRANCH   1  13
TORSDOF 5
ENDMDL
MODEL 5
REMARK VINA RESULT: -6.360425067      1.440      1.701
REMARK  5 active torsions:
REMARK  status: ('A' for Active; 'I' for Inactive)
REMARK    1  A    between atoms: C2_2  and  N1_3 
REMARK    2  A    between atoms: N1_3  and  N2_4 
REMARK       I    between atoms: N1_3  and  C10_21 
REMARK    3  A    between atoms: N2_4  and  C3_6 
REMARK    4  A    between atoms: C3_6  and  N3_8 
REMARK    5  A    between atoms: N3_8  and  N4_10 
ROOT
HETATM    1  N3  UNL     1      -4.032   3.020  11.749  1.00  0.00    -0.275 N 
ATOM      2  H3  UNL     1      -4.572   2.950  10.886  1.00  0.00     0.189 HD
ENDROOT
BRANCH   1   3
HETATM    3  C3  UNL     1      -4.087   1.913  12.657  1.00  0.00     0.205 C 
HETATM    4  S1  UNL     1      -4.384   0.457  11.954  1.00  0.00    -0.038 SA
BRANCH   3   5
HETATM    5  N2  UNL     1      -3.897   2.148  14.015  1.00  0.00    -0.270 N 
ATOM      6  H2  UNL     1      -2.922   2.222  14.306  1.00  0.00     0.189 HD
BRANCH   5   7
HETATM    7  N1  UNL     1      -4.809   2.296  15.017  1.00  0.00    -0.260 N 
HETATM    8  C10 UNL     1      -4.650   1.568  16.255  1.00  0.00     0.234 C 
HETATM    9  C11 UNL     1      -5.588   1.743  17.350  1.00  0.00     0.119 C 
HETATM   10  O1  UNL     1      -3.653   0.763  16.339  1.00  0.00    -0.272 OA
BRANCH   7  11
HETATM   11  C2  UNL     1      -5.932   3.183  14.965  1.00  0.00     0.148 C 
HETATM   12  C1  UNL     1      -5.423   4.610  14.972  1.00  0.00     0.028 C 
ENDBRANCH   7  11
ENDBRANCH   5   7
ENDBRANCH   3   5
ENDBRANCH   1   3
BRANCH   1  13
HETATM   13  N4  UNL     1      -3.313   4.159  11.949  1.00  0.00    -0.299 N 
HETATM   14  C4  UNL     1      -2.102   4.430  11.765  1.00  0.00     0.092 C 
HETATM   15  C5  UNL     1      -1.149   3.430  11.238  1.00  0.00     0.176 C 
HETATM   16  C9  UNL     1      -1.612   5.811  12.067  1.00  0.00     0.286 C 
HETATM   17  N5  UNL     1      -0.172   4.114  10.428  1.00  0.00    -0.411 N 
HETATM   18  C6  UNL     1       1.156   4.114  10.949  1.00  0.00     0.143 C 
HETATM   19  C7  UNL     1      -0.590   5.336   9.840  1.00  0.00     0.123 C 
HETATM   20  C8  UNL     1      -0.974   6.412  10.830  1.00  0.00     0.105 C 
HETATM   21  F1  UNL     1      -0.752   5.744  13.139  1.00  0.00    -0.199 F 
HETATM   22  F2  UNL     1      -2.674   6.601  12.430  1.00  0.00    -0.199 F 
ATOM     23  H4  UNL     1      -3.862   4.936  12.316  1.00  0.00     0.186 HD
ENDBRANCH   1  13
TORSDOF 5
ENDMDL
