MODEL 1
REMARK VINA RESULT: -5.987290630      0.000      0.000
REMARK  6 active torsions:
REMARK  status: ('A' for Active; 'I' for Inactive)
REMARK    1  A    between atoms: C3_4  and  C4_5 
REMARK    2  A    between atoms: C4_5  and  C5_7 
REMARK    3  A    between atoms: C6_9  and  C7_10 
REMARK    4  A    between atoms: C7_10  and  O1_11 
REMARK    5  A    between atoms: C8_13  and  O2_14 
REMARK    6  A    between atoms: C9_16  and  O3_17 
ROOT
HETATM    1  N1  UNL     1      -2.933   2.878   9.391  1.00  0.00    -0.182 NA
HETATM    2  C1  UNL     1      -3.388   3.234  10.396  1.00  0.00     0.152 C 
HETATM    3  C2  UNL     1      -3.965   3.656  11.617  1.00  0.00     0.014 C 
HETATM    4  C3  UNL     1      -4.476   4.017  12.648  1.00  0.00    -0.073 C 
ENDROOT
BRANCH   4   5
HETATM    5  C4  UNL     1      -5.122   4.447  13.912  1.00  0.00     0.154 C 
HETATM    6 BR1  UNL     1      -6.503   5.723  13.594  1.00  0.00    -0.076 Br
BRANCH   5   7
HETATM    7  C5  UNL     1      -5.578   3.209  14.606  1.00  0.00     0.105 C 
HETATM    8  S1  UNL     1      -6.123   3.537  16.315  1.00  0.00    -0.150 SA
HETATM    9  C6  UNL     1      -5.533   1.958  17.051  1.00  0.00     0.102 C 
HETATM   10  C8  UNL     1      -5.118   1.204  15.808  1.00  0.00     0.164 C 
HETATM   11  C9  UNL     1      -4.489   2.213  14.873  1.00  0.00     0.164 C 
BRANCH   9  12
HETATM   12  C7  UNL     1      -6.758   1.284  17.618  1.00  0.00     0.181 C 
BRANCH  12  13
HETATM   13  O1  UNL     1      -7.092   0.191  16.842  1.00  0.00    -0.400 OA
ATOM     14  H1  UNL     1      -7.871  -0.226  17.192  1.00  0.00     0.209 HD
ENDBRANCH  12  13
ENDBRANCH   9  12
BRANCH  10  15
HETATM   15  O2  UNL     1      -4.128   0.252  16.093  1.00  0.00    -0.392 OA
ATOM     16  H2  UNL     1      -3.896  -0.250  15.320  1.00  0.00     0.210 HD
ENDBRANCH  10  15
BRANCH  11  17
HETATM   17  O3  UNL     1      -3.390   2.741  15.520  1.00  0.00    -0.392 OA
ATOM     18  H3  UNL     1      -2.557   2.475  15.150  1.00  0.00     0.210 HD
ENDBRANCH  11  17
ENDBRANCH   5   7
ENDBRANCH   4   5
TORSDOF 6
ENDMDL
MODEL 2
REMARK VINA RESULT: -5.899550129      3.918      5.931
REMARK  6 active torsions:
REMARK  status: ('A' for Active; 'I' for Inactive)
REMARK    1  A    between atoms: C3_4  and  C4_5 
REMARK    2  A    between atoms: C4_5  and  C5_7 
REMARK    3  A    between atoms: C6_9  and  C7_10 
REMARK    4  A    between atoms: C7_10  and  O1_11 
REMARK    5  A    between atoms: C8_13  and  O2_14 
REMARK    6  A    between atoms: C9_16  and  O3_17 
ROOT
HETATM    1  N1  UNL     1      -5.739  -0.156  17.376  1.00  0.00    -0.182 NA
HETATM    2  C1  UNL     1      -5.581   0.705  16.616  1.00  0.00     0.152 C 
HETATM    3  C2  UNL     1      -5.402   1.745  15.673  1.00  0.00     0.014 C 
HETATM    4  C3  UNL     1      -5.254   2.618  14.855  1.00  0.00    -0.073 C 
ENDROOT
BRANCH   4   5
HETATM    5  C4  UNL     1      -5.089   3.682  13.836  1.00  0.00     0.154 C 
HETATM    6 BR1  UNL     1      -4.916   5.402  14.641  1.00  0.00    -0.076 Br
BRANCH   5   7
HETATM    7  C5  UNL     1      -3.935   3.286  12.980  1.00  0.00     0.105 C 
HETATM    8  S1  UNL     1      -2.690   4.611  12.844  1.00  0.00    -0.150 SA
HETATM    9  C6  UNL     1      -2.190   4.277  11.105  1.00  0.00     0.102 C 
HETATM   10  C8  UNL     1      -2.932   2.987  10.839  1.00  0.00     0.164 C 
HETATM   11  C9  UNL     1      -4.273   3.104  11.531  1.00  0.00     0.164 C 
BRANCH   9  12
HETATM   12  C7  UNL     1      -0.715   3.965  11.153  1.00  0.00     0.181 C 
BRANCH  12  13
HETATM   13  O1  UNL     1      -0.476   2.977  12.089  1.00  0.00    -0.400 OA
ATOM     14  H1  UNL     1      -0.657   2.125  11.711  1.00  0.00     0.209 HD
ENDBRANCH  12  13
ENDBRANCH   9  12
BRANCH  10  15
HETATM   15  O2  UNL     1      -3.200   2.823   9.472  1.00  0.00    -0.392 OA
ATOM     16  H2  UNL     1      -4.023   3.230   9.229  1.00  0.00     0.210 HD
ENDBRANCH  10  15
BRANCH  11  17
HETATM   17  O3  UNL     1      -4.932   4.178  10.968  1.00  0.00    -0.392 OA
ATOM     18  H3  UNL     1      -5.862   4.206  11.159  1.00  0.00     0.210 HD
ENDBRANCH  11  17
ENDBRANCH   5   7
ENDBRANCH   4   5
TORSDOF 6
ENDMDL
MODEL 3
REMARK VINA RESULT: -5.694598569      3.829      5.648
REMARK  6 active torsions:
REMARK  status: ('A' for Active; 'I' for Inactive)
REMARK    1  A    between atoms: C3_4  and  C4_5 
REMARK    2  A    between atoms: C4_5  and  C5_7 
REMARK    3  A    between atoms: C6_9  and  C7_10 
REMARK    4  A    between atoms: C7_10  and  O1_11 
REMARK    5  A    between atoms: C8_13  and  O2_14 
REMARK    6  A    between atoms: C9_16  and  O3_17 
ROOT
HETATM    1  N1  UNL     1      -6.262   2.507  19.207  1.00  0.00    -0.182 NA
HETATM    2  C1  UNL     1      -6.242   2.812  18.088  1.00  0.00     0.152 C 
HETATM    3  C2  UNL     1      -6.209   3.162  16.718  1.00  0.00     0.014 C 
HETATM    4  C3  UNL     1      -6.166   3.446  15.547  1.00  0.00    -0.073 C 
ENDROOT
BRANCH   4   5
HETATM    5  C4  UNL     1      -6.112   3.772  14.101  1.00  0.00     0.154 C 
HETATM    6 BR1  UNL     1      -6.401   5.632  13.792  1.00  0.00    -0.076 Br
BRANCH   5   7
HETATM    7  C5  UNL     1      -4.807   3.261  13.593  1.00  0.00     0.105 C 
HETATM    8  S1  UNL     1      -4.083   4.356  12.328  1.00  0.00    -0.150 SA
HETATM    9  C6  UNL     1      -3.317   3.039  11.296  1.00  0.00     0.102 C 
HETATM   10  C8  UNL     1      -3.541   1.827  12.172  1.00  0.00     0.164 C 
HETATM   11  C9  UNL     1      -4.907   1.990  12.803  1.00  0.00     0.164 C 
BRANCH   9  12
HETATM   12  C7  UNL     1      -1.838   3.336  11.281  1.00  0.00     0.181 C 
BRANCH  12  13
HETATM   13  O1  UNL     1      -1.138   2.250  11.772  1.00  0.00    -0.400 OA
ATOM     14  H1  UNL     1      -1.136   2.271  12.721  1.00  0.00     0.209 HD
ENDBRANCH  12  13
ENDBRANCH   9  12
BRANCH  10  15
HETATM   15  O2  UNL     1      -3.590   0.649  11.412  1.00  0.00    -0.392 OA
ATOM     16  H2  UNL     1      -4.332   0.109  11.657  1.00  0.00     0.210 HD
ENDBRANCH  10  15
BRANCH  11  17
HETATM   17  O3  UNL     1      -5.829   2.036  11.777  1.00  0.00    -0.392 OA
ATOM     18  H3  UNL     1      -6.228   1.198  11.577  1.00  0.00     0.210 HD
ENDBRANCH  11  17
ENDBRANCH   5   7
ENDBRANCH   4   5
TORSDOF 6
ENDMDL
MODEL 4
REMARK VINA RESULT: -5.451084518      2.384      2.506
REMARK  6 active torsions:
REMARK  status: ('A' for Active; 'I' for Inactive)
REMARK    1  A    between atoms: C3_4  and  C4_5 
REMARK    2  A    between atoms: C4_5  and  C5_7 
REMARK    3  A    between atoms: C6_9  and  C7_10 
REMARK    4  A    between atoms: C7_10  and  O1_11 
REMARK    5  A    between atoms: C8_13  and  O2_14 
REMARK    6  A    between atoms: C9_16  and  O3_17 
ROOT
HETATM    1  N1  UNL     1      -5.020  -0.803   9.496  1.00  0.00    -0.182 NA
HETATM    2  C1  UNL     1      -4.829  -0.111  10.407  1.00  0.00     0.152 C 
HETATM    3  C2  UNL     1      -4.585   0.748  11.504  1.00  0.00     0.014 C 
HETATM    4  C3  UNL     1      -4.362   1.489  12.429  1.00  0.00    -0.073 C 
ENDROOT
BRANCH   4   5
HETATM    5  C4  UNL     1      -4.081   2.416  13.551  1.00  0.00     0.154 C 
HETATM    6 BR1  UNL     1      -4.015   4.229  12.962  1.00  0.00    -0.076 Br
BRANCH   5   7
HETATM    7  C5  UNL     1      -5.106   2.148  14.599  1.00  0.00     0.105 C 
HETATM    8  S1  UNL     1      -5.320   3.561  15.732  1.00  0.00    -0.150 SA
HETATM    9  C6  UNL     1      -5.650   2.584  17.256  1.00  0.00     0.102 C 
HETATM   10  C8  UNL     1      -5.757   1.190  16.681  1.00  0.00     0.164 C 
HETATM   11  C9  UNL     1      -4.719   1.087  15.585  1.00  0.00     0.164 C 
BRANCH   9  12
HETATM   12  C7  UNL     1      -7.022   3.002  17.725  1.00  0.00     0.181 C 
BRANCH  12  13
HETATM   13  O1  UNL     1      -7.149   4.375  17.633  1.00  0.00    -0.400 OA
ATOM     14  H1  UNL     1      -8.066   4.618  17.691  1.00  0.00     0.209 HD
ENDBRANCH  12  13
ENDBRANCH   9  12
BRANCH  10  15
HETATM   15  O2  UNL     1      -5.429   0.215  17.636  1.00  0.00    -0.392 OA
ATOM     16  H2  UNL     1      -4.706  -0.326  17.343  1.00  0.00     0.210 HD
ENDBRANCH  10  15
BRANCH  11  17
HETATM   17  O3  UNL     1      -3.485   1.286  16.171  1.00  0.00    -0.392 OA
ATOM     18  H3  UNL     1      -2.845   0.615  15.964  1.00  0.00     0.210 HD
ENDBRANCH  11  17
ENDBRANCH   5   7
ENDBRANCH   4   5
TORSDOF 6
ENDMDL
MODEL 5
REMARK VINA RESULT: -5.349215351      3.858      4.577
REMARK  6 active torsions:
REMARK  status: ('A' for Active; 'I' for Inactive)
REMARK    1  A    between atoms: C3_4  and  C4_5 
REMARK    2  A    between atoms: C4_5  and  C5_7 
REMARK    3  A    between atoms: C6_9  and  C7_10 
REMARK    4  A    between atoms: C7_10  and  O1_11 
REMARK    5  A    between atoms: C8_13  and  O2_14 
REMARK    6  A    between atoms: C9_16  and  O3_17 
ROOT
HETATM    1  N1  UNL     1      -7.062   8.870   9.701  1.00  0.00    -0.182 NA
HETATM    2  C1  UNL     1      -6.570   8.155  10.470  1.00  0.00     0.152 C 
HETATM    3  C2  UNL     1      -5.973   7.265  11.393  1.00  0.00     0.014 C 
HETATM    4  C3  UNL     1      -5.477   6.490  12.173  1.00  0.00    -0.073 C 
ENDROOT
BRANCH   4   5
HETATM    5  C4  UNL     1      -4.868   5.521  13.116  1.00  0.00     0.154 C 
HETATM    6 BR1  UNL     1      -6.004   5.190  14.611  1.00  0.00    -0.076 Br
BRANCH   5   7
HETATM    7  C5  UNL     1      -4.525   4.306  12.323  1.00  0.00     0.105 C 
HETATM    8  S1  UNL     1      -5.284   2.797  13.012  1.00  0.00    -0.150 SA
HETATM    9  C6  UNL     1      -3.910   1.644  12.602  1.00  0.00     0.102 C 
HETATM   10  C8  UNL     1      -3.031   2.538  11.759  1.00  0.00     0.164 C 
HETATM   11  C9  UNL     1      -3.079   3.916  12.385  1.00  0.00     0.164 C 
BRANCH   9  12
HETATM   12  C7  UNL     1      -4.510   0.594  11.699  1.00  0.00     0.181 C 
BRANCH  12  13
HETATM   13  O1  UNL     1      -4.432   1.009  10.383  1.00  0.00    -0.400 OA
ATOM     14  H1  UNL     1      -5.297   1.001   9.991  1.00  0.00     0.209 HD
ENDBRANCH  12  13
ENDBRANCH   9  12
BRANCH  10  15
HETATM   15  O2  UNL     1      -1.690   2.127  11.802  1.00  0.00    -0.392 OA
ATOM     16  H2  UNL     1      -1.394   2.004  12.696  1.00  0.00     0.210 HD
ENDBRANCH  10  15
BRANCH  11  17
HETATM   17  O3  UNL     1      -2.582   3.800  13.667  1.00  0.00    -0.392 OA
ATOM     18  H3  UNL     1      -1.633   3.785  13.715  1.00  0.00     0.210 HD
ENDBRANCH  11  17
ENDBRANCH   5   7
ENDBRANCH   4   5
TORSDOF 6
ENDMDL
