MODEL 1
REMARK VINA RESULT: -6.659898813      0.000      0.000
REMARK  7 active torsions:
REMARK  status: ('A' for Active; 'I' for Inactive)
REMARK    1  A    between atoms: N1_2  and  C2_3 
REMARK    2  A    between atoms: N1_2  and  N2_7 
REMARK    3  A    between atoms: C2_3  and  C3_4 
REMARK    4  A    between atoms: C9_18  and  O2_19 
REMARK    5  A    between atoms: C9_18  and  C10_21 
REMARK    6  A    between atoms: C11_22  and  C12_23 
REMARK    7  A    between atoms: C12_23  and  O3_24 
ROOT
HETATM    1  N2  UNL     1      -3.101   3.838  13.952  1.00  0.00    -0.288 N 
ATOM      2  H2  UNL     1      -2.803   3.293  13.142  1.00  0.00     0.188 HD
HETATM    3  C4  UNL     1      -3.897   3.277  14.762  1.00  0.00     0.144 C 
HETATM    4  N3  UNL     1      -4.402   3.916  15.945  1.00  0.00    -0.342 N 
ATOM      5  H3  UNL     1      -4.036   4.778  16.349  1.00  0.00     0.164 HD
HETATM    6  C5  UNL     1      -5.508   3.150  16.477  1.00  0.00     0.158 A 
HETATM    7  C6  UNL     1      -6.573   3.872  17.202  1.00  0.00     0.089 A 
HETATM    8  C7  UNL     1      -6.158   2.943  18.344  1.00  0.00     0.176 A 
HETATM    9  O1  UNL     1      -5.188   2.325  17.550  1.00  0.00    -0.359 OA
HETATM   10  C8  UNL     1      -5.922   2.330  15.274  1.00  0.00     0.192 C 
HETATM   11 CL1  UNL     1      -6.598   3.358  13.994  1.00  0.00    -0.115 Cl
HETATM   12  C9  UNL     1      -4.516   1.937  14.778  1.00  0.00     0.202 C 
ENDROOT
BRANCH   1  13
HETATM   13  N1  UNL     1      -2.600   5.115  14.065  1.00  0.00    -0.326 N 
HETATM   14  C1  UNL     1      -1.176   5.321  13.793  1.00  0.00     0.171 C 
BRANCH  13  15
HETATM   15  C2  UNL     1      -3.355   6.284  14.426  1.00  0.00     0.213 C 
BRANCH  15  16
HETATM   16  C3  UNL     1      -2.454   7.527  14.411  1.00  0.00     0.372 C 
HETATM   17  F1  UNL     1      -2.685   8.244  15.556  1.00  0.00    -0.213 F 
HETATM   18  F2  UNL     1      -2.670   8.269  13.276  1.00  0.00    -0.213 F 
ENDBRANCH  15  16
ENDBRANCH  13  15
ENDBRANCH   1  13
BRANCH  12  19
HETATM   19  O2  UNL     1      -3.916   1.095  15.692  1.00  0.00    -0.369 OA
ATOM     20  H2  UNL     1      -4.397   0.284  15.803  1.00  0.00     0.212 HD
ENDBRANCH  12  19
BRANCH  12  21
HETATM   21  C10 UNL     1      -4.527   1.419  13.430  1.00  0.00    -0.056 C 
HETATM   22  C11 UNL     1      -4.555   0.994  12.300  1.00  0.00    -0.077 C 
BRANCH  22  23
HETATM   23  C12 UNL     1      -4.613   0.485  10.913  1.00  0.00     0.257 C 
BRANCH  23  24
HETATM   24  O3  UNL     1      -4.475   1.506  10.006  1.00  0.00    -0.389 OA
ATOM     25  H3  UNL     1      -4.490   2.352  10.437  1.00  0.00     0.210 HD
ENDBRANCH  23  24
ENDBRANCH  22  23
ENDBRANCH  12  21
TORSDOF 7
ENDMDL
MODEL 2
REMARK VINA RESULT: -6.485807750      3.649      5.319
REMARK  7 active torsions:
REMARK  status: ('A' for Active; 'I' for Inactive)
REMARK    1  A    between atoms: N1_2  and  C2_3 
REMARK    2  A    between atoms: N1_2  and  N2_7 
REMARK    3  A    between atoms: C2_3  and  C3_4 
REMARK    4  A    between atoms: C9_18  and  O2_19 
REMARK    5  A    between atoms: C9_18  and  C10_21 
REMARK    6  A    between atoms: C11_22  and  C12_23 
REMARK    7  A    between atoms: C12_23  and  O3_24 
ROOT
HETATM    1  N2  UNL     1      -4.903   1.762  14.298  1.00  0.00    -0.288 N 
ATOM      2  H2  UNL     1      -5.069   0.755  14.309  1.00  0.00     0.188 HD
HETATM    3  C4  UNL     1      -4.715   2.303  13.168  1.00  0.00     0.144 C 
HETATM    4  N3  UNL     1      -4.470   3.707  12.993  1.00  0.00    -0.342 N 
ATOM      5  H3  UNL     1      -4.612   4.421  13.707  1.00  0.00     0.164 HD
HETATM    6  C5  UNL     1      -3.991   3.953  11.650  1.00  0.00     0.158 A 
HETATM    7  C6  UNL     1      -3.070   5.088  11.434  1.00  0.00     0.089 A 
HETATM    8  C7  UNL     1      -4.177   5.554  10.486  1.00  0.00     0.176 A 
HETATM    9  O1  UNL     1      -4.952   4.425  10.762  1.00  0.00    -0.359 OA
HETATM   10  C8  UNL     1      -3.506   2.580  11.238  1.00  0.00     0.192 C 
HETATM   11 CL1  UNL     1      -2.091   2.083  12.188  1.00  0.00    -0.115 Cl
HETATM   12  C9  UNL     1      -4.681   1.752  11.797  1.00  0.00     0.202 C 
ENDROOT
BRANCH   1  13
HETATM   13  N1  UNL     1      -4.905   2.409  15.512  1.00  0.00    -0.326 N 
HETATM   14  C1  UNL     1      -3.615   2.667  16.156  1.00  0.00     0.171 C 
BRANCH  13  15
HETATM   15  C2  UNL     1      -6.072   2.866  16.219  1.00  0.00     0.213 C 
BRANCH  15  16
HETATM   16  C3  UNL     1      -6.296   2.021  17.480  1.00  0.00     0.372 C 
HETATM   17  F1  UNL     1      -7.474   1.334  17.339  1.00  0.00    -0.213 F 
HETATM   18  F2  UNL     1      -6.284   2.811  18.603  1.00  0.00    -0.213 F 
ENDBRANCH  15  16
ENDBRANCH  13  15
ENDBRANCH   1  13
BRANCH  12  19
HETATM   19  O2  UNL     1      -5.833   2.037  11.092  1.00  0.00    -0.369 OA
ATOM     20  H2  UNL     1      -6.509   2.410  11.645  1.00  0.00     0.212 HD
ENDBRANCH  12  19
BRANCH  12  21
HETATM   21  C10 UNL     1      -4.381   0.342  11.875  1.00  0.00    -0.056 C 
HETATM   22  C11 UNL     1      -4.134  -0.839  11.919  1.00  0.00    -0.077 C 
BRANCH  22  23
HETATM   23  C12 UNL     1      -3.836  -2.287  11.947  1.00  0.00     0.257 C 
BRANCH  23  24
HETATM   24  O3  UNL     1      -4.953  -3.027  11.648  1.00  0.00    -0.389 OA
ATOM     25  H3  UNL     1      -5.735  -2.488  11.661  1.00  0.00     0.210 HD
ENDBRANCH  23  24
ENDBRANCH  22  23
ENDBRANCH  12  21
TORSDOF 7
ENDMDL
MODEL 3
REMARK VINA RESULT: -6.350320482      3.612      5.678
REMARK  7 active torsions:
REMARK  status: ('A' for Active; 'I' for Inactive)
REMARK    1  A    between atoms: N1_2  and  C2_3 
REMARK    2  A    between atoms: N1_2  and  N2_7 
REMARK    3  A    between atoms: C2_3  and  C3_4 
REMARK    4  A    between atoms: C9_18  and  O2_19 
REMARK    5  A    between atoms: C9_18  and  C10_21 
REMARK    6  A    between atoms: C11_22  and  C12_23 
REMARK    7  A    between atoms: C12_23  and  O3_24 
ROOT
HETATM    1  N2  UNL     1      -4.556   2.039  13.171  1.00  0.00    -0.288 N 
ATOM      2  H2  UNL     1      -4.986   1.360  13.799  1.00  0.00     0.188 HD
HETATM    3  C4  UNL     1      -4.067   3.083  13.699  1.00  0.00     0.144 C 
HETATM    4  N3  UNL     1      -3.430   4.126  12.947  1.00  0.00    -0.342 N 
ATOM      5  H3  UNL     1      -3.137   4.053  11.973  1.00  0.00     0.164 HD
HETATM    6  C5  UNL     1      -3.266   5.297  13.781  1.00  0.00     0.158 A 
HETATM    7  C6  UNL     1      -3.291   6.625  13.135  1.00  0.00     0.089 A 
HETATM    8  C7  UNL     1      -1.891   6.731  13.740  1.00  0.00     0.176 A 
HETATM    9  O1  UNL     1      -1.993   5.463  14.316  1.00  0.00    -0.359 OA
HETATM   10  C8  UNL     1      -4.280   5.040  14.876  1.00  0.00     0.192 C 
HETATM   11 CL1  UNL     1      -5.939   5.105  14.247  1.00  0.00    -0.115 Cl
HETATM   12  C9  UNL     1      -3.990   3.543  15.101  1.00  0.00     0.202 C 
ENDROOT
BRANCH   1  13
HETATM   13  N1  UNL     1      -4.559   1.740  11.829  1.00  0.00    -0.326 N 
HETATM   14  C1  UNL     1      -4.251   2.815  10.884  1.00  0.00     0.171 C 
BRANCH  13  15
HETATM   15  C2  UNL     1      -4.836   0.449  11.257  1.00  0.00     0.213 C 
BRANCH  15  16
HETATM   16  C3  UNL     1      -4.111  -0.650  12.045  1.00  0.00     0.372 C 
HETATM   17  F1  UNL     1      -4.408  -1.861  11.475  1.00  0.00    -0.213 F 
HETATM   18  F2  UNL     1      -4.453  -0.601  13.374  1.00  0.00    -0.213 F 
ENDBRANCH  15  16
ENDBRANCH  13  15
ENDBRANCH   1  13
BRANCH  12  19
HETATM   19  O2  UNL     1      -2.726   3.385  15.632  1.00  0.00    -0.369 OA
ATOM     20  H2  UNL     1      -2.403   4.183  16.034  1.00  0.00     0.212 HD
ENDBRANCH  12  19
BRANCH  12  21
HETATM   21  C10 UNL     1      -5.026   2.884  15.860  1.00  0.00    -0.056 C 
HETATM   22  C11 UNL     1      -5.885   2.313  16.488  1.00  0.00    -0.077 C 
BRANCH  22  23
HETATM   23  C12 UNL     1      -6.927   1.592  17.249  1.00  0.00     0.257 C 
BRANCH  23  24
HETATM   24  O3  UNL     1      -6.995   0.274  16.868  1.00  0.00    -0.389 OA
ATOM     25  H3  UNL     1      -7.618   0.154  16.161  1.00  0.00     0.210 HD
ENDBRANCH  23  24
ENDBRANCH  22  23
ENDBRANCH  12  21
TORSDOF 7
ENDMDL
MODEL 4
REMARK VINA RESULT: -6.332799462      0.687      1.092
REMARK  7 active torsions:
REMARK  status: ('A' for Active; 'I' for Inactive)
REMARK    1  A    between atoms: N1_2  and  C2_3 
REMARK    2  A    between atoms: N1_2  and  N2_7 
REMARK    3  A    between atoms: C2_3  and  C3_4 
REMARK    4  A    between atoms: C9_18  and  O2_19 
REMARK    5  A    between atoms: C9_18  and  C10_21 
REMARK    6  A    between atoms: C11_22  and  C12_23 
REMARK    7  A    between atoms: C12_23  and  O3_24 
ROOT
HETATM    1  N2  UNL     1      -3.339   4.130  13.773  1.00  0.00    -0.288 N 
ATOM      2  H2  UNL     1      -3.004   3.577  12.983  1.00  0.00     0.188 HD
HETATM    3  C4  UNL     1      -4.040   3.530  14.641  1.00  0.00     0.144 C 
HETATM    4  N3  UNL     1      -4.580   4.174  15.805  1.00  0.00    -0.342 N 
ATOM      5  H3  UNL     1      -4.305   5.094  16.148  1.00  0.00     0.164 HD
HETATM    6  C5  UNL     1      -5.574   3.319  16.417  1.00  0.00     0.158 A 
HETATM    7  C6  UNL     1      -6.694   3.955  17.140  1.00  0.00     0.089 A 
HETATM    8  C7  UNL     1      -6.139   3.148  18.315  1.00  0.00     0.176 A 
HETATM    9  O1  UNL     1      -5.128   2.600  17.521  1.00  0.00    -0.359 OA
HETATM   10  C8  UNL     1      -5.926   2.389  15.276  1.00  0.00     0.192 C 
HETATM   11 CL1  UNL     1      -6.754   3.257  13.967  1.00  0.00    -0.115 Cl
HETATM   12  C9  UNL     1      -4.499   2.130  14.751  1.00  0.00     0.202 C 
ENDROOT
BRANCH   1  13
HETATM   13  N1  UNL     1      -2.986   5.460  13.798  1.00  0.00    -0.326 N 
HETATM   14  C1  UNL     1      -3.896   6.424  13.176  1.00  0.00     0.171 C 
BRANCH  13  15
HETATM   15  C2  UNL     1      -1.792   6.001  14.390  1.00  0.00     0.213 C 
BRANCH  15  16
HETATM   16  C3  UNL     1      -1.844   7.535  14.388  1.00  0.00     0.372 C 
HETATM   17  F1  UNL     1      -0.587   8.012  14.122  1.00  0.00    -0.213 F 
HETATM   18  F2  UNL     1      -2.340   8.005  15.580  1.00  0.00    -0.213 F 
ENDBRANCH  15  16
ENDBRANCH  13  15
ENDBRANCH   1  13
BRANCH  12  19
HETATM   19  O2  UNL     1      -3.778   1.417  15.687  1.00  0.00    -0.369 OA
ATOM     20  H2  UNL     1      -4.245   1.329  16.509  1.00  0.00     0.212 HD
ENDBRANCH  12  19
BRANCH  12  21
HETATM   21  C10 UNL     1      -4.489   1.538  13.435  1.00  0.00    -0.056 C 
HETATM   22  C11 UNL     1      -4.502   1.047  12.331  1.00  0.00    -0.077 C 
BRANCH  22  23
HETATM   23  C12 UNL     1      -4.542   0.455  10.977  1.00  0.00     0.257 C 
BRANCH  23  24
HETATM   24  O3  UNL     1      -4.492   1.428  10.010  1.00  0.00    -0.389 OA
ATOM     25  H3  UNL     1      -5.246   1.377   9.434  1.00  0.00     0.210 HD
ENDBRANCH  23  24
ENDBRANCH  22  23
ENDBRANCH  12  21
TORSDOF 7
ENDMDL
MODEL 5
REMARK VINA RESULT: -6.222447464      3.759      6.317
REMARK  7 active torsions:
REMARK  status: ('A' for Active; 'I' for Inactive)
REMARK    1  A    between atoms: N1_2  and  C2_3 
REMARK    2  A    between atoms: N1_2  and  N2_7 
REMARK    3  A    between atoms: C2_3  and  C3_4 
REMARK    4  A    between atoms: C9_18  and  O2_19 
REMARK    5  A    between atoms: C9_18  and  C10_21 
REMARK    6  A    between atoms: C11_22  and  C12_23 
REMARK    7  A    between atoms: C12_23  and  O3_24 
ROOT
HETATM    1  N2  UNL     1      -3.438   4.475  15.151  1.00  0.00    -0.288 N 
ATOM      2  H2  UNL     1      -3.026   5.086  15.857  1.00  0.00     0.188 HD
HETATM    3  C4  UNL     1      -3.023   4.608  13.961  1.00  0.00     0.144 C 
HETATM    4  N3  UNL     1      -3.506   3.822  12.861  1.00  0.00    -0.342 N 
ATOM      5  H3  UNL     1      -4.065   2.974  12.946  1.00  0.00     0.164 HD
HETATM    6  C5  UNL     1      -3.078   4.416  11.613  1.00  0.00     0.158 A 
HETATM    7  C6  UNL     1      -3.940   4.246  10.426  1.00  0.00     0.089 A 
HETATM    8  C7  UNL     1      -2.688   3.582   9.851  1.00  0.00     0.176 A 
HETATM    9  O1  UNL     1      -1.969   3.814  11.027  1.00  0.00    -0.359 OA
HETATM   10  C8  UNL     1      -2.758   5.833  12.040  1.00  0.00     0.192 C 
HETATM   11 CL1  UNL     1      -4.225   6.706  12.529  1.00  0.00    -0.115 Cl
HETATM   12  C9  UNL     1      -2.021   5.509  13.354  1.00  0.00     0.202 C 
ENDROOT
BRANCH   1  13
HETATM   13  N1  UNL     1      -4.393   3.581  15.577  1.00  0.00    -0.326 N 
HETATM   14  C1  UNL     1      -3.952   2.246  15.985  1.00  0.00     0.171 C 
BRANCH  13  15
HETATM   15  C2  UNL     1      -5.806   3.839  15.664  1.00  0.00     0.213 C 
BRANCH  15  16
HETATM   16  C3  UNL     1      -6.362   3.317  16.995  1.00  0.00     0.372 C 
HETATM   17  F1  UNL     1      -7.243   2.301  16.729  1.00  0.00    -0.213 F 
HETATM   18  F2  UNL     1      -6.941   4.335  17.712  1.00  0.00    -0.213 F 
ENDBRANCH  15  16
ENDBRANCH  13  15
ENDBRANCH   1  13
BRANCH  12  19
HETATM   19  O2  UNL     1      -0.835   4.859  13.078  1.00  0.00    -0.369 OA
ATOM     20  H2  UNL     1      -0.976   3.996  12.707  1.00  0.00     0.212 HD
ENDBRANCH  12  19
BRANCH  12  21
HETATM   21  C10 UNL     1      -1.867   6.665  14.205  1.00  0.00    -0.056 C 
HETATM   22  C11 UNL     1      -1.726   7.642  14.901  1.00  0.00    -0.077 C 
BRANCH  22  23
HETATM   23  C12 UNL     1      -1.541   8.849  15.734  1.00  0.00     0.257 C 
BRANCH  23  24
HETATM   24  O3  UNL     1      -1.659   9.992  14.981  1.00  0.00    -0.389 OA
ATOM     25  H3  UNL     1      -0.846  10.484  14.977  1.00  0.00     0.210 HD
ENDBRANCH  23  24
ENDBRANCH  22  23
ENDBRANCH  12  21
TORSDOF 7
ENDMDL
