MODEL 1
REMARK VINA RESULT: -7.101757924      0.000      0.000
REMARK  7 active torsions:
REMARK  status: ('A' for Active; 'I' for Inactive)
REMARK    1  A    between atoms: O1_1  and  C1_3 
REMARK    2  A    between atoms: C1_3  and  C2_4 
REMARK    3  A    between atoms: C6_9  and  O3_10 
REMARK    4  A    between atoms: C6_9  and  C7_12 
REMARK    5  A    between atoms: C8_13  and  C9_14 
REMARK    6  A    between atoms: C9_14  and  C10_15 
REMARK    7  A    between atoms: C12_19  and  O5_20 
ROOT
HETATM    1  C2  UNL     1      -3.507   5.102  12.389  1.00  0.00     0.145 C 
HETATM    2  O2  UNL     1      -4.792   5.266  12.821  1.00  0.00    -0.354 OA
HETATM    3  C3  UNL     1      -5.080   4.698  14.039  1.00  0.00     0.131 A 
HETATM    4  C4  UNL     1      -6.286   5.099  14.796  1.00  0.00     0.048 A 
HETATM    5  C5  UNL     1      -4.865   5.358  15.324  1.00  0.00     0.048 A 
HETATM    6  C6  UNL     1      -4.732   3.231  13.926  1.00  0.00     0.263 C 
HETATM    7  O4  UNL     1      -3.391   3.113  13.773  1.00  0.00    -0.331 OA
HETATM    8  C11 UNL     1      -2.763   3.957  12.929  1.00  0.00     0.197 C 
HETATM    9  C12 UNL     1      -2.256   3.142  11.732  1.00  0.00     0.187 C 
HETATM   10  C13 UNL     1      -3.124   3.525  10.585  1.00  0.00     0.238 C 
HETATM   11  F2  UNL     1      -2.363   3.474   9.408  1.00  0.00    -0.243 F 
HETATM   12  C14 UNL     1      -3.494   4.944  10.865  1.00  0.00     0.245 C 
HETATM   13  F3  UNL     1      -2.567   5.772  10.281  1.00  0.00    -0.243 F 
ENDROOT
BRANCH   6  14
HETATM   14  O3  UNL     1      -5.479   2.684  12.888  1.00  0.00    -0.353 OA
ATOM     15  H3  UNL     1      -5.019   1.920  12.560  1.00  0.00     0.214 HD
ENDBRANCH   6  14
BRANCH   6  16
HETATM   16  C7  UNL     1      -5.161   2.565  15.158  1.00  0.00    -0.035 C 
HETATM   17  C8  UNL     1      -5.537   2.020  16.182  1.00  0.00    -0.099 C 
BRANCH  17  18
HETATM   18  C9  UNL     1      -6.012   1.371  17.404  1.00  0.00     0.125 C 
BRANCH  18  19
HETATM   19  C10 UNL     1      -6.186   2.438  18.463  1.00  0.00     0.234 C 
HETATM   20  F1  UNL     1      -6.611   3.592  17.831  1.00  0.00    -0.255 F 
ENDBRANCH  18  19
ENDBRANCH  17  18
ENDBRANCH   6  16
BRANCH   1  21
HETATM   21  C1  UNL     1      -2.792   6.430  12.678  1.00  0.00     0.208 C 
BRANCH  21  22
HETATM   22  O1  UNL     1      -1.794   6.201  13.643  1.00  0.00    -0.398 OA
ATOM     23  H1  UNL     1      -1.946   6.782  14.379  1.00  0.00     0.209 HD
ENDBRANCH  21  22
ENDBRANCH   1  21
BRANCH   9  24
HETATM   24  O5  UNL     1      -2.317   1.776  12.027  1.00  0.00    -0.390 OA
ATOM     25  H5  UNL     1      -1.445   1.442  12.197  1.00  0.00     0.210 HD
ENDBRANCH   9  24
TORSDOF 7
ENDMDL
MODEL 2
REMARK VINA RESULT: -6.813243011      1.741      2.044
REMARK  7 active torsions:
REMARK  status: ('A' for Active; 'I' for Inactive)
REMARK    1  A    between atoms: O1_1  and  C1_3 
REMARK    2  A    between atoms: C1_3  and  C2_4 
REMARK    3  A    between atoms: C6_9  and  O3_10 
REMARK    4  A    between atoms: C6_9  and  C7_12 
REMARK    5  A    between atoms: C8_13  and  C9_14 
REMARK    6  A    between atoms: C9_14  and  C10_15 
REMARK    7  A    between atoms: C12_19  and  O5_20 
ROOT
HETATM    1  C2  UNL     1      -3.859   3.523  12.157  1.00  0.00     0.145 C 
HETATM    2  O2  UNL     1      -4.755   4.501  12.483  1.00  0.00    -0.354 OA
HETATM    3  C3  UNL     1      -5.011   4.639  13.825  1.00  0.00     0.131 A 
HETATM    4  C4  UNL     1      -5.650   5.866  14.352  1.00  0.00     0.048 A 
HETATM    5  C5  UNL     1      -4.216   5.461  14.733  1.00  0.00     0.048 A 
HETATM    6  C6  UNL     1      -5.484   3.290  14.318  1.00  0.00     0.263 C 
HETATM    7  O4  UNL     1      -4.456   2.411  14.228  1.00  0.00    -0.331 OA
HETATM    8  C11 UNL     1      -3.695   2.423  13.115  1.00  0.00     0.197 C 
HETATM    9  C12 UNL     1      -3.946   1.116  12.353  1.00  0.00     0.187 C 
HETATM   10  C13 UNL     1      -4.732   1.495  11.148  1.00  0.00     0.238 C 
HETATM   11  F2  UNL     1      -4.383   0.639  10.094  1.00  0.00    -0.243 F 
HETATM   12  C14 UNL     1      -4.265   2.877  10.827  1.00  0.00     0.245 C 
HETATM   13  F3  UNL     1      -3.204   2.802   9.960  1.00  0.00    -0.243 F 
ENDROOT
BRANCH   6  14
HETATM   14  O3  UNL     1      -6.613   2.930  13.589  1.00  0.00    -0.353 OA
ATOM     15  H3  UNL     1      -7.017   2.184  14.015  1.00  0.00     0.214 HD
ENDBRANCH   6  14
BRANCH   6  16
HETATM   16  C7  UNL     1      -5.904   3.436  15.713  1.00  0.00    -0.035 C 
HETATM   17  C8  UNL     1      -6.245   3.540  16.879  1.00  0.00    -0.099 C 
BRANCH  17  18
HETATM   18  C9  UNL     1      -6.636   3.647  18.285  1.00  0.00     0.125 C 
BRANCH  18  19
HETATM   19  C10 UNL     1      -6.171   2.395  18.997  1.00  0.00     0.234 C 
HETATM   20  F1  UNL     1      -6.409   1.323  18.158  1.00  0.00    -0.255 F 
ENDBRANCH  18  19
ENDBRANCH  17  18
ENDBRANCH   6  16
BRANCH   1  21
HETATM   21  C1  UNL     1      -2.530   4.242  11.884  1.00  0.00     0.208 C 
BRANCH  21  22
HETATM   22  O1  UNL     1      -1.592   3.831  12.850  1.00  0.00    -0.398 OA
ATOM     23  H1  UNL     1      -0.720   3.983  12.507  1.00  0.00     0.209 HD
ENDBRANCH  21  22
ENDBRANCH   1  21
BRANCH   9  24
HETATM   24  O5  UNL     1      -4.619   0.207  13.176  1.00  0.00    -0.390 OA
ATOM     25  H5  UNL     1      -4.659  -0.643  12.755  1.00  0.00     0.210 HD
ENDBRANCH   9  24
TORSDOF 7
ENDMDL
MODEL 3
REMARK VINA RESULT: -6.662661786      1.920      6.056
REMARK  7 active torsions:
REMARK  status: ('A' for Active; 'I' for Inactive)
REMARK    1  A    between atoms: O1_1  and  C1_3 
REMARK    2  A    between atoms: C1_3  and  C2_4 
REMARK    3  A    between atoms: C6_9  and  O3_10 
REMARK    4  A    between atoms: C6_9  and  C7_12 
REMARK    5  A    between atoms: C8_13  and  C9_14 
REMARK    6  A    between atoms: C9_14  and  C10_15 
REMARK    7  A    between atoms: C12_19  and  O5_20 
ROOT
HETATM    1  C2  UNL     1      -5.011   2.328  14.841  1.00  0.00     0.145 C 
HETATM    2  O2  UNL     1      -5.455   1.881  13.629  1.00  0.00    -0.354 OA
HETATM    3  C3  UNL     1      -4.556   1.993  12.596  1.00  0.00     0.131 A 
HETATM    4  C4  UNL     1      -4.743   1.229  11.343  1.00  0.00     0.048 A 
HETATM    5  C5  UNL     1      -3.544   0.990  12.276  1.00  0.00     0.048 A 
HETATM    6  C6  UNL     1      -4.162   3.450  12.521  1.00  0.00     0.263 C 
HETATM    7  O4  UNL     1      -3.474   3.773  13.643  1.00  0.00    -0.331 OA
HETATM    8  C11 UNL     1      -3.933   3.324  14.829  1.00  0.00     0.197 C 
HETATM    9  C12 UNL     1      -4.423   4.532  15.638  1.00  0.00     0.187 C 
HETATM   10  C13 UNL     1      -5.908   4.431  15.656  1.00  0.00     0.238 C 
HETATM   11  F2  UNL     1      -6.380   4.945  16.872  1.00  0.00    -0.243 F 
HETATM   12  C14 UNL     1      -6.174   2.962  15.611  1.00  0.00     0.245 C 
HETATM   13  F3  UNL     1      -6.250   2.481  16.895  1.00  0.00    -0.243 F 
ENDROOT
BRANCH   6  14
HETATM   14  O3  UNL     1      -5.313   4.204  12.316  1.00  0.00    -0.353 OA
ATOM     15  H3  UNL     1      -5.054   5.068  12.016  1.00  0.00     0.214 HD
ENDBRANCH   6  14
BRANCH   6  16
HETATM   16  C7  UNL     1      -3.316   3.633  11.340  1.00  0.00    -0.035 C 
HETATM   17  C8  UNL     1      -2.601   3.801  10.365  1.00  0.00    -0.099 C 
BRANCH  17  18
HETATM   18  C9  UNL     1      -1.728   4.015   9.212  1.00  0.00     0.125 C 
BRANCH  18  19
HETATM   19  C10 UNL     1      -0.345   4.350   9.728  1.00  0.00     0.234 C 
HETATM   20  F1  UNL     1      -0.038   3.443  10.725  1.00  0.00    -0.255 F 
ENDBRANCH  18  19
ENDBRANCH  17  18
ENDBRANCH   6  16
BRANCH   1  21
HETATM   21  C1  UNL     1      -4.618   1.074  15.635  1.00  0.00     0.208 C 
BRANCH  21  22
HETATM   22  O1  UNL     1      -3.394   1.321  16.285  1.00  0.00    -0.398 OA
ATOM     23  H1  UNL     1      -2.714   0.825  15.846  1.00  0.00     0.209 HD
ENDBRANCH  21  22
ENDBRANCH   1  21
BRANCH   9  24
HETATM   24  O5  UNL     1      -3.967   5.716  15.048  1.00  0.00    -0.390 OA
ATOM     25  H5  UNL     1      -3.436   6.202  15.668  1.00  0.00     0.210 HD
ENDBRANCH   9  24
TORSDOF 7
ENDMDL
MODEL 4
REMARK VINA RESULT: -6.656925414      1.606      3.041
REMARK  7 active torsions:
REMARK  status: ('A' for Active; 'I' for Inactive)
REMARK    1  A    between atoms: O1_1  and  C1_3 
REMARK    2  A    between atoms: C1_3  and  C2_4 
REMARK    3  A    between atoms: C6_9  and  O3_10 
REMARK    4  A    between atoms: C6_9  and  C7_12 
REMARK    5  A    between atoms: C8_13  and  C9_14 
REMARK    6  A    between atoms: C9_14  and  C10_15 
REMARK    7  A    between atoms: C12_19  and  O5_20 
ROOT
HETATM    1  C2  UNL     1      -2.613   3.988  11.878  1.00  0.00     0.145 C 
HETATM    2  O2  UNL     1      -2.759   2.790  12.517  1.00  0.00    -0.354 OA
HETATM    3  C3  UNL     1      -3.821   2.713  13.386  1.00  0.00     0.131 A 
HETATM    4  C4  UNL     1      -4.322   1.402  13.855  1.00  0.00     0.048 A 
HETATM    5  C5  UNL     1      -5.178   2.346  12.993  1.00  0.00     0.048 A 
HETATM    6  C6  UNL     1      -3.648   3.837  14.382  1.00  0.00     0.263 C 
HETATM    7  O4  UNL     1      -3.790   5.018  13.732  1.00  0.00    -0.331 OA
HETATM    8  C11 UNL     1      -3.193   5.168  12.532  1.00  0.00     0.197 C 
HETATM    9  C12 UNL     1      -2.068   6.199  12.686  1.00  0.00     0.187 C 
HETATM   10  C13 UNL     1      -0.798   5.429  12.599  1.00  0.00     0.238 C 
HETATM   11  F2  UNL     1       0.178   6.234  11.994  1.00  0.00    -0.243 F 
HETATM   12  C14 UNL     1      -1.123   4.290  11.688  1.00  0.00     0.245 C 
HETATM   13  F3  UNL     1      -0.844   4.658  10.395  1.00  0.00    -0.243 F 
ENDROOT
BRANCH   6  14
HETATM   14  O3  UNL     1      -2.421   3.674  15.017  1.00  0.00    -0.353 OA
ATOM     15  H3  UNL     1      -2.344   4.338  15.692  1.00  0.00     0.214 HD
ENDBRANCH   6  14
BRANCH   6  16
HETATM   16  C7  UNL     1      -4.682   3.698  15.409  1.00  0.00    -0.035 C 
HETATM   17  C8  UNL     1      -5.548   3.563  16.258  1.00  0.00    -0.099 C 
BRANCH  17  18
HETATM   18  C9  UNL     1      -6.584   3.376  17.273  1.00  0.00     0.125 C 
BRANCH  18  19
HETATM   19  C10 UNL     1      -6.233   2.143  18.078  1.00  0.00     0.234 C 
HETATM   20  F1  UNL     1      -6.216   2.504  19.412  1.00  0.00    -0.255 F 
ENDBRANCH  18  19
ENDBRANCH  17  18
ENDBRANCH   6  16
BRANCH   1  21
HETATM   21  C1  UNL     1      -3.182   3.785  10.466  1.00  0.00     0.208 C 
BRANCH  21  22
HETATM   22  O1  UNL     1      -4.413   4.461  10.377  1.00  0.00    -0.398 OA
ATOM     23  H1  UNL     1      -4.366   5.080   9.658  1.00  0.00     0.209 HD
ENDBRANCH  21  22
ENDBRANCH   1  21
BRANCH   9  24
HETATM   24  O5  UNL     1      -2.209   6.879  13.900  1.00  0.00    -0.390 OA
ATOM     25  H5  UNL     1      -2.485   7.773  13.740  1.00  0.00     0.210 HD
ENDBRANCH   9  24
TORSDOF 7
ENDMDL
MODEL 5
REMARK VINA RESULT: -6.611196198      1.935      6.235
REMARK  7 active torsions:
REMARK  status: ('A' for Active; 'I' for Inactive)
REMARK    1  A    between atoms: O1_1  and  C1_3 
REMARK    2  A    between atoms: C1_3  and  C2_4 
REMARK    3  A    between atoms: C6_9  and  O3_10 
REMARK    4  A    between atoms: C6_9  and  C7_12 
REMARK    5  A    between atoms: C8_13  and  C9_14 
REMARK    6  A    between atoms: C9_14  and  C10_15 
REMARK    7  A    between atoms: C12_19  and  O5_20 
ROOT
HETATM    1  C2  UNL     1      -5.004   2.278  14.881  1.00  0.00     0.145 C 
HETATM    2  O2  UNL     1      -5.472   1.811  13.685  1.00  0.00    -0.354 OA
HETATM    3  C3  UNL     1      -4.607   1.939  12.625  1.00  0.00     0.131 A 
HETATM    4  C4  UNL     1      -4.812   1.161  11.383  1.00  0.00     0.048 A 
HETATM    5  C5  UNL     1      -3.579   0.961  12.281  1.00  0.00     0.048 A 
HETATM    6  C6  UNL     1      -4.254   3.406  12.529  1.00  0.00     0.263 C 
HETATM    7  O4  UNL     1      -3.542   3.754  13.628  1.00  0.00    -0.331 OA
HETATM    8  C11 UNL     1      -3.953   3.302  14.830  1.00  0.00     0.197 C 
HETATM    9  C12 UNL     1      -4.450   4.503  15.645  1.00  0.00     0.187 C 
HETATM   10  C13 UNL     1      -5.931   4.363  15.708  1.00  0.00     0.238 C 
HETATM   11  F2  UNL     1      -6.380   4.873  16.934  1.00  0.00    -0.243 F 
HETATM   12  C14 UNL     1      -6.160   2.887  15.681  1.00  0.00     0.245 C 
HETATM   13  F3  UNL     1      -6.184   2.414  16.970  1.00  0.00    -0.243 F 
ENDROOT
BRANCH   6  14
HETATM   14  O3  UNL     1      -5.430   4.128  12.354  1.00  0.00    -0.353 OA
ATOM     15  H3  UNL     1      -5.349   4.950  12.823  1.00  0.00     0.214 HD
ENDBRANCH   6  14
BRANCH   6  16
HETATM   16  C7  UNL     1      -3.449   3.602  11.321  1.00  0.00    -0.035 C 
HETATM   17  C8  UNL     1      -2.773   3.784  10.323  1.00  0.00    -0.099 C 
BRANCH  17  18
HETATM   18  C9  UNL     1      -1.951   4.022   9.137  1.00  0.00     0.125 C 
BRANCH  18  19
HETATM   19  C10 UNL     1      -2.634   5.079   8.297  1.00  0.00     0.234 C 
HETATM   20  F1  UNL     1      -2.922   4.518   7.067  1.00  0.00    -0.255 F 
ENDBRANCH  18  19
ENDBRANCH  17  18
ENDBRANCH   6  16
BRANCH   1  21
HETATM   21  C1  UNL     1      -4.554   1.041  15.671  1.00  0.00     0.208 C 
BRANCH  21  22
HETATM   22  O1  UNL     1      -3.339   1.339  16.316  1.00  0.00    -0.398 OA
ATOM     23  H1  UNL     1      -3.497   2.025  16.955  1.00  0.00     0.209 HD
ENDBRANCH  21  22
ENDBRANCH   1  21
BRANCH   9  24
HETATM   24  O5  UNL     1      -4.043   5.694  15.034  1.00  0.00    -0.390 OA
ATOM     25  H5  UNL     1      -3.616   6.254  15.671  1.00  0.00     0.210 HD
ENDBRANCH   9  24
TORSDOF 7
ENDMDL
