MODEL 1
REMARK VINA RESULT: -8.089612539      0.000      0.000
REMARK  17 active torsions:
REMARK  status: ('A' for Active; 'I' for Inactive)
REMARK    1  A    between atoms: N1_1  and  C1_4 
REMARK    2  A    between atoms: N3_8  and  C3_9 
REMARK    3  A    between atoms: C3_9  and  C4_10 
REMARK    4  A    between atoms: C3_9  and  C7_14 
REMARK    5  A    between atoms: C4_10  and  C5_11 
REMARK    6  A    between atoms: C5_11  and  C6_12 
REMARK    7  A    between atoms: C7_14  and  C8_15 
REMARK    8  A    between atoms: C8_15  and  C9_16 
REMARK    9  A    between atoms: C9_16  and  C10_17 
REMARK   10  A    between atoms: C10_17  and  O1_18 
REMARK   11  A    between atoms: C10_17  and  C11_20 
REMARK   12  A    between atoms: C12_23  and  N5_24 
REMARK   13  A    between atoms: C13_29  and  N7_30 
REMARK   14  A    between atoms: C14_33  and  C15_34 
REMARK   15  A    between atoms: C15_34  and  N8_35 
REMARK   16  A    between atoms: C15_34  and  N9_39 
REMARK   17  A    between atoms: C17_47  and  N12_48 
ROOT
HETATM    1  C9  UNL     1    -126.776  32.197 126.301  1.00  0.00     0.067 C 
ENDROOT
BRANCH   1   2
HETATM    2  C8  UNL     1    -127.674  32.705 127.491  1.00  0.00     0.013 C 
BRANCH   2   3
HETATM    3  C7  UNL     1    -128.274  31.547 128.176  1.00  0.00     0.058 C 
BRANCH   3   4
HETATM    4  C3  UNL     1    -129.775  31.624 128.281  1.00  0.00     0.031 C 
BRANCH   4   5
HETATM    5  N3  UNL     1    -130.627  30.977 127.338  1.00  0.00    -0.143 N 
HETATM    6  C2  UNL     1    -131.378  29.857 127.548  1.00  0.00     0.741 A 
HETATM    7  N2  UNL     1    -131.454  28.972 128.561  1.00  0.00    -0.019 N 
HETATM    8  N11 UNL     1    -132.161  29.606 126.466  1.00  0.00     0.092 N 
HETATM    9  C1  UNL     1    -132.255  27.905 128.514  1.00  0.00     0.705 A 
ATOM     10  H2  UNL     1    -130.880  29.123 129.392  1.00  0.00     0.203 HD
HETATM   11  N13 UNL     1    -133.027  27.682 127.421  1.00  0.00    -0.020 N 
HETATM   12  C17 UNL     1    -132.987  28.530 126.389  1.00  0.00     0.727 A 
ATOM     13  H13 UNL     1    -133.639  26.866 127.387  1.00  0.00     0.203 HD
HETATM   14  N10 UNL     1    -131.928  30.529 125.582  1.00  0.00    -0.259 N 
HETATM   15  C16 UNL     1    -130.989  31.375 126.106  1.00  0.00     0.225 A 
ATOM     16  H10 UNL     1    -132.366  30.609 124.664  1.00  0.00     0.189 HD
BRANCH   9  17
HETATM   17  N1  UNL     1    -132.315  27.057 129.509  1.00  0.00    -0.234 N 
ATOM     18  H12 UNL     1    -133.119  27.094 130.136  1.00  0.00     0.174 HD
ATOM     19  H11 UNL     1    -131.577  26.371 129.664  1.00  0.00     0.174 HD
ENDBRANCH   9  17
BRANCH  12  20
HETATM   20  N12 UNL     1    -133.713  28.330 125.347  1.00  0.00    -0.232 N 
ATOM     21 2H12 UNL     1    -133.486  28.780 124.460  1.00  0.00     0.174 HD
ATOM     22 1H12 UNL     1    -134.529  27.720 125.388  1.00  0.00     0.174 HD
ENDBRANCH  12  20
ENDBRANCH   4   5
BRANCH   4  23
HETATM   23  C4  UNL     1    -130.200  32.259 129.342  1.00  0.00     0.002 C 
BRANCH  23  24
HETATM   24  C5  UNL     1    -131.516  32.817 129.634  1.00  0.00     0.060 C 
BRANCH  24  25
HETATM   25  C6  UNL     1    -131.395  33.528 131.023  1.00  0.00     0.226 C 
HETATM   26  F1  UNL     1    -132.641  33.669 131.577  1.00  0.00    -0.255 F 
ENDBRANCH  24  25
ENDBRANCH  23  24
ENDBRANCH   4  23
ENDBRANCH   3   4
ENDBRANCH   2   3
ENDBRANCH   1   2
BRANCH   1  27
HETATM   27  C10 UNL     1    -127.448  32.569 125.065  1.00  0.00     0.071 C 
BRANCH  27  28
HETATM   28  O1  UNL     1    -128.191  33.634 125.175  1.00  0.00    -0.363 OA
ATOM     29  H1  UNL     1    -128.854  33.707 124.499  1.00  0.00     0.217 HD
ENDBRANCH  27  28
BRANCH  27  30
HETATM   30  C11 UNL     1    -127.451  31.989 123.751  1.00  0.00     0.092 A 
HETATM   31  N4  UNL     1    -127.157  30.644 123.637  1.00  0.00    -0.189 N 
HETATM   32  C12 UNL     1    -127.117  30.020 122.457  1.00  0.00     0.678 A 
ATOM     33  H4  UNL     1    -126.964  30.109 124.484  1.00  0.00     0.184 HD
HETATM   34  N6  UNL     1    -127.361  30.659 121.303  1.00  0.00    -0.177 N 
HETATM   35  C13 UNL     1    -127.650  31.958 121.378  1.00  0.00     0.127 A 
ATOM     36  H6  UNL     1    -127.328  30.172 120.407  1.00  0.00     0.186 HD
HETATM   37  C14 UNL     1    -127.706  32.667 122.587  1.00  0.00     0.072 A 
BRANCH  32  38
HETATM   38  N5  UNL     1    -126.835  28.750 122.407  1.00  0.00    -0.234 N 
ATOM     39  H52 UNL     1    -125.881  28.461 122.621  1.00  0.00     0.174 HD
ATOM     40  H51 UNL     1    -127.562  28.079 122.157  1.00  0.00     0.174 HD
ENDBRANCH  32  38
BRANCH  35  41
HETATM   41  N7  UNL     1    -127.886  32.585 120.266  1.00  0.00    -0.384 N 
ATOM     42  H72 UNL     1    -128.683  32.301 119.696  1.00  0.00     0.157 HD
ATOM     43  H71 UNL     1    -127.256  33.346 120.011  1.00  0.00     0.157 HD
ENDBRANCH  35  41
BRANCH  37  44
HETATM   44  C15 UNL     1    -128.050  34.078 122.432  1.00  0.00     0.417 C 
BRANCH  44  45
HETATM   45  N8  UNL     1    -128.403  34.232 120.979  1.00  0.00    -0.046 N 
ATOM     46  H83 UNL     1    -129.317  33.850 120.732  1.00  0.00     0.277 HD
ATOM     47  H82 UNL     1    -128.601  35.193 120.701  1.00  0.00     0.277 HD
ATOM     48  H81 UNL     1    -127.626  33.806 120.475  1.00  0.00     0.277 HD
ENDBRANCH  44  45
BRANCH  44  49
HETATM   49  N9  UNL     1    -126.761  34.806 122.515  1.00  0.00    -0.046 N 
ATOM     50  H93 UNL     1    -126.094  34.389 123.165  1.00  0.00     0.277 HD
ATOM     51  H92 UNL     1    -126.183  34.715 121.679  1.00  0.00     0.277 HD
ATOM     52  H91 UNL     1    -127.010  35.768 122.741  1.00  0.00     0.277 HD
ENDBRANCH  44  49
ENDBRANCH  37  44
ENDBRANCH  27  30
ENDBRANCH   1  27
TORSDOF 17
ENDMDL
MODEL 2
REMARK VINA RESULT: -8.065550850      1.051      2.532
REMARK  17 active torsions:
REMARK  status: ('A' for Active; 'I' for Inactive)
REMARK    1  A    between atoms: N1_1  and  C1_4 
REMARK    2  A    between atoms: N3_8  and  C3_9 
REMARK    3  A    between atoms: C3_9  and  C4_10 
REMARK    4  A    between atoms: C3_9  and  C7_14 
REMARK    5  A    between atoms: C4_10  and  C5_11 
REMARK    6  A    between atoms: C5_11  and  C6_12 
REMARK    7  A    between atoms: C7_14  and  C8_15 
REMARK    8  A    between atoms: C8_15  and  C9_16 
REMARK    9  A    between atoms: C9_16  and  C10_17 
REMARK   10  A    between atoms: C10_17  and  O1_18 
REMARK   11  A    between atoms: C10_17  and  C11_20 
REMARK   12  A    between atoms: C12_23  and  N5_24 
REMARK   13  A    between atoms: C13_29  and  N7_30 
REMARK   14  A    between atoms: C14_33  and  C15_34 
REMARK   15  A    between atoms: C15_34  and  N8_35 
REMARK   16  A    between atoms: C15_34  and  N9_39 
REMARK   17  A    between atoms: C17_47  and  N12_48 
ROOT
HETATM    1  C9  UNL     1    -127.889  32.872 127.036  1.00  0.00     0.067 C 
ENDROOT
BRANCH   1   2
HETATM    2  C8  UNL     1    -127.874  31.442 127.695  1.00  0.00     0.013 C 
BRANCH   2   3
HETATM    3  C7  UNL     1    -128.585  31.493 128.984  1.00  0.00     0.058 C 
BRANCH   3   4
HETATM    4  C3  UNL     1    -130.072  31.695 128.842  1.00  0.00     0.031 C 
BRANCH   4   5
HETATM    5  N3  UNL     1    -130.821  31.049 127.816  1.00  0.00    -0.143 N 
HETATM    6  C2  UNL     1    -131.508  29.874 127.919  1.00  0.00     0.741 A 
HETATM    7  N2  UNL     1    -131.586  28.932 128.879  1.00  0.00    -0.019 N 
HETATM    8  N11 UNL     1    -132.207  29.636 126.779  1.00  0.00     0.092 N 
HETATM    9  C1  UNL     1    -132.311  27.820 128.726  1.00  0.00     0.705 A 
ATOM     10  H2  UNL     1    -131.074  29.072 129.751  1.00  0.00     0.203 HD
HETATM   11  N13 UNL     1    -133.000  27.611 127.577  1.00  0.00    -0.020 N 
HETATM   12  C17 UNL     1    -132.954  28.516 126.595  1.00  0.00     0.727 A 
ATOM     13  H13 UNL     1    -133.553  26.761 127.463  1.00  0.00     0.203 HD
HETATM   14  N10 UNL     1    -131.983  30.619 125.960  1.00  0.00    -0.259 N 
HETATM   15  C16 UNL     1    -131.134  31.492 126.585  1.00  0.00     0.225 A 
ATOM     16  H10 UNL     1    -132.370  30.722 125.022  1.00  0.00     0.189 HD
BRANCH   9  17
HETATM   17  N1  UNL     1    -132.374  26.916 129.671  1.00  0.00    -0.234 N 
ATOM     18  H12 UNL     1    -133.241  26.821 130.199  1.00  0.00     0.174 HD
ATOM     19  H11 UNL     1    -131.577  26.316 129.882  1.00  0.00     0.174 HD
ENDBRANCH   9  17
BRANCH  12  20
HETATM   20  N12 UNL     1    -133.602  28.329 125.500  1.00  0.00    -0.232 N 
ATOM     21 2H12 UNL     1    -133.109  28.111 124.634  1.00  0.00     0.174 HD
ATOM     22 1H12 UNL     1    -134.619  28.396 125.477  1.00  0.00     0.174 HD
ENDBRANCH  12  20
ENDBRANCH   4   5
BRANCH   4  23
HETATM   23  C4  UNL     1    -130.597  32.436 129.781  1.00  0.00     0.002 C 
BRANCH  23  24
HETATM   24  C5  UNL     1    -131.881  33.130 129.817  1.00  0.00     0.060 C 
BRANCH  24  25
HETATM   25  C6  UNL     1    -131.937  33.882 131.189  1.00  0.00     0.226 C 
HETATM   26  F1  UNL     1    -133.110  34.585 131.280  1.00  0.00    -0.255 F 
ENDBRANCH  24  25
ENDBRANCH  23  24
ENDBRANCH   4  23
ENDBRANCH   3   4
ENDBRANCH   2   3
ENDBRANCH   1   2
BRANCH   1  27
HETATM   27  C10 UNL     1    -127.124  32.786 125.802  1.00  0.00     0.071 C 
BRANCH  27  28
HETATM   28  O1  UNL     1    -126.118  31.962 125.868  1.00  0.00    -0.363 OA
ATOM     29  H1  UNL     1    -125.385  32.210 125.317  1.00  0.00     0.217 HD
ENDBRANCH  27  28
BRANCH  27  30
HETATM   30  C11 UNL     1    -127.264  33.436 124.528  1.00  0.00     0.092 A 
HETATM   31  N4  UNL     1    -127.106  34.807 124.480  1.00  0.00    -0.189 N 
HETATM   32  C12 UNL     1    -127.235  35.501 123.347  1.00  0.00     0.678 A 
ATOM     33  H4  UNL     1    -126.882  35.307 125.340  1.00  0.00     0.184 HD
HETATM   34  N6  UNL     1    -127.526  34.911 122.178  1.00  0.00    -0.177 N 
HETATM   35  C13 UNL     1    -127.685  33.587 122.189  1.00  0.00     0.127 A 
ATOM     36  H6  UNL     1    -127.623  35.451 121.318  1.00  0.00     0.186 HD
HETATM   37  C14 UNL     1    -127.562  32.806 123.347  1.00  0.00     0.072 A 
BRANCH  32  38
HETATM   38  N5  UNL     1    -127.074  36.793 123.357  1.00  0.00    -0.234 N 
ATOM     39  H52 UNL     1    -126.955  37.254 124.259  1.00  0.00     0.174 HD
ATOM     40  H51 UNL     1    -127.072  37.311 122.478  1.00  0.00     0.174 HD
ENDBRANCH  32  38
BRANCH  35  41
HETATM   41  N7  UNL     1    -127.968  33.007 121.063  1.00  0.00    -0.384 N 
ATOM     42  H72 UNL     1    -128.048  33.575 120.218  1.00  0.00     0.157 HD
ATOM     43  H71 UNL     1    -128.098  31.996 121.073  1.00  0.00     0.157 HD
ENDBRANCH  35  41
BRANCH  37  44
HETATM   44  C15 UNL     1    -127.766  31.377 123.124  1.00  0.00     0.417 C 
BRANCH  44  45
HETATM   45  N8  UNL     1    -128.509  30.898 124.339  1.00  0.00    -0.046 N 
ATOM     46  H83 UNL     1    -128.014  31.058 125.217  1.00  0.00     0.277 HD
ATOM     47  H82 UNL     1    -129.332  31.457 124.568  1.00  0.00     0.277 HD
ATOM     48  H81 UNL     1    -128.714  29.917 124.151  1.00  0.00     0.277 HD
ENDBRANCH  44  45
BRANCH  44  49
HETATM   49  N9  UNL     1    -126.432  30.758 123.315  1.00  0.00    -0.046 N 
ATOM     50  H93 UNL     1    -125.684  31.433 123.472  1.00  0.00     0.277 HD
ATOM     51  H92 UNL     1    -126.332  30.262 124.200  1.00  0.00     0.277 HD
ATOM     52  H91 UNL     1    -126.290  30.169 122.494  1.00  0.00     0.277 HD
ENDBRANCH  44  49
ENDBRANCH  37  44
ENDBRANCH  27  30
ENDBRANCH   1  27
TORSDOF 17
ENDMDL
MODEL 3
REMARK VINA RESULT: -7.947385397      1.081      2.555
REMARK  17 active torsions:
REMARK  status: ('A' for Active; 'I' for Inactive)
REMARK    1  A    between atoms: N1_1  and  C1_4 
REMARK    2  A    between atoms: N3_8  and  C3_9 
REMARK    3  A    between atoms: C3_9  and  C4_10 
REMARK    4  A    between atoms: C3_9  and  C7_14 
REMARK    5  A    between atoms: C4_10  and  C5_11 
REMARK    6  A    between atoms: C5_11  and  C6_12 
REMARK    7  A    between atoms: C7_14  and  C8_15 
REMARK    8  A    between atoms: C8_15  and  C9_16 
REMARK    9  A    between atoms: C9_16  and  C10_17 
REMARK   10  A    between atoms: C10_17  and  O1_18 
REMARK   11  A    between atoms: C10_17  and  C11_20 
REMARK   12  A    between atoms: C12_23  and  N5_24 
REMARK   13  A    between atoms: C13_29  and  N7_30 
REMARK   14  A    between atoms: C14_33  and  C15_34 
REMARK   15  A    between atoms: C15_34  and  N8_35 
REMARK   16  A    between atoms: C15_34  and  N9_39 
REMARK   17  A    between atoms: C17_47  and  N12_48 
ROOT
HETATM    1  C9  UNL     1    -128.117  31.736 125.386  1.00  0.00     0.067 C 
ENDROOT
BRANCH   1   2
HETATM    2  C8  UNL     1    -128.030  32.556 126.727  1.00  0.00     0.013 C 
BRANCH   2   3
HETATM    3  C7  UNL     1    -128.438  31.696 127.851  1.00  0.00     0.058 C 
BRANCH   3   4
HETATM    4  C3  UNL     1    -129.927  31.683 128.086  1.00  0.00     0.031 C 
BRANCH   4   5
HETATM    5  N3  UNL     1    -130.815  30.971 127.228  1.00  0.00    -0.143 N 
HETATM    6  C2  UNL     1    -131.491  29.822 127.521  1.00  0.00     0.741 A 
HETATM    7  N2  UNL     1    -131.444  28.962 128.558  1.00  0.00    -0.019 N 
HETATM    8  N11 UNL     1    -132.342  29.505 126.510  1.00  0.00     0.092 N 
HETATM    9  C1  UNL     1    -132.192  27.856 128.597  1.00  0.00     0.705 A 
ATOM     10  H2  UNL     1    -130.816  29.162 129.337  1.00  0.00     0.203 HD
HETATM   11  N13 UNL     1    -133.034  27.567 127.575  1.00  0.00    -0.020 N 
HETATM   12  C17 UNL     1    -133.116  28.388 126.523  1.00  0.00     0.727 A 
ATOM     13  H13 UNL     1    -133.605  26.722 127.607  1.00  0.00     0.203 HD
HETATM   14  N10 UNL     1    -132.225  30.414 125.591  1.00  0.00    -0.259 N 
HETATM   15  C16 UNL     1    -131.291  31.318 126.019  1.00  0.00     0.225 A 
ATOM     16  H10 UNL     1    -132.736  30.448 124.708  1.00  0.00     0.189 HD
BRANCH   9  17
HETATM   17  N1  UNL     1    -132.132  27.033 129.614  1.00  0.00    -0.234 N 
ATOM     18  H12 UNL     1    -131.410  27.178 130.319  1.00  0.00     0.174 HD
ATOM     19  H11 UNL     1    -132.789  26.258 129.706  1.00  0.00     0.174 HD
ENDBRANCH   9  17
BRANCH  12  20
HETATM   20  N12 UNL     1    -133.910  28.126 125.546  1.00  0.00    -0.232 N 
ATOM     21 2H12 UNL     1    -134.819  28.584 125.477  1.00  0.00     0.174 HD
ATOM     22 1H12 UNL     1    -133.646  27.456 124.824  1.00  0.00     0.174 HD
ENDBRANCH  12  20
ENDBRANCH   4   5
BRANCH   4  23
HETATM   23  C4  UNL     1    -130.296  32.307 129.173  1.00  0.00     0.002 C 
BRANCH  23  24
HETATM   24  C5  UNL     1    -131.605  32.829 129.554  1.00  0.00     0.060 C 
BRANCH  24  25
HETATM   25  C6  UNL     1    -131.424  33.491 130.961  1.00  0.00     0.226 C 
HETATM   26  F1  UNL     1    -132.650  33.671 131.546  1.00  0.00    -0.255 F 
ENDBRANCH  24  25
ENDBRANCH  23  24
ENDBRANCH   4  23
ENDBRANCH   3   4
ENDBRANCH   2   3
ENDBRANCH   1   2
BRANCH   1  27
HETATM   27  C10 UNL     1    -127.255  32.398 124.420  1.00  0.00     0.071 C 
BRANCH  27  28
HETATM   28  O1  UNL     1    -126.083  31.841 124.296  1.00  0.00    -0.363 OA
ATOM     29  H1  UNL     1    -125.551  31.895 125.081  1.00  0.00     0.217 HD
ENDBRANCH  27  28
BRANCH  27  30
HETATM   30  C11 UNL     1    -127.445  33.547 123.578  1.00  0.00     0.092 A 
HETATM   31  N4  UNL     1    -127.146  34.789 124.102  1.00  0.00    -0.189 N 
HETATM   32  C12 UNL     1    -127.308  35.916 123.404  1.00  0.00     0.678 A 
ATOM     33  H4  UNL     1    -126.788  34.848 125.055  1.00  0.00     0.184 HD
HETATM   34  N6  UNL     1    -127.772  35.915 122.145  1.00  0.00    -0.177 N 
HETATM   35  C13 UNL     1    -128.070  34.732 121.609  1.00  0.00     0.127 A 
ATOM     36  H6  UNL     1    -127.891  36.783 121.621  1.00  0.00     0.186 HD
HETATM   37  C14 UNL     1    -127.921  33.516 122.293  1.00  0.00     0.072 A 
BRANCH  32  38
HETATM   38  N5  UNL     1    -127.009  37.061 123.946  1.00  0.00    -0.234 N 
ATOM     39  H52 UNL     1    -126.778  37.077 124.939  1.00  0.00     0.174 HD
ATOM     40  H51 UNL     1    -127.013  37.908 123.376  1.00  0.00     0.174 HD
ENDBRANCH  32  38
BRANCH  35  41
HETATM   41  N7  UNL     1    -128.520  34.721 120.392  1.00  0.00    -0.384 N 
ATOM     42  H72 UNL     1    -127.945  34.317 119.652  1.00  0.00     0.157 HD
ATOM     43  H71 UNL     1    -129.444  35.122 120.227  1.00  0.00     0.157 HD
ENDBRANCH  35  41
BRANCH  37  44
HETATM   44  C15 UNL     1    -128.298  32.343 121.507  1.00  0.00     0.417 C 
BRANCH  44  45
HETATM   45  N8  UNL     1    -127.221  31.331 121.784  1.00  0.00    -0.046 N 
ATOM     46  H83 UNL     1    -126.550  31.625 122.494  1.00  0.00     0.277 HD
ATOM     47  H82 UNL     1    -127.552  30.500 122.274  1.00  0.00     0.277 HD
ATOM     48  H81 UNL     1    -126.804  31.138 120.874  1.00  0.00     0.277 HD
ENDBRANCH  44  45
BRANCH  44  49
HETATM   49  N9  UNL     1    -128.020  32.712 120.098  1.00  0.00    -0.046 N 
ATOM     50  H93 UNL     1    -127.356  32.092 119.634  1.00  0.00     0.277 HD
ATOM     51  H92 UNL     1    -128.802  32.542 119.466  1.00  0.00     0.277 HD
ATOM     52  H91 UNL     1    -127.720  33.686 120.130  1.00  0.00     0.277 HD
ENDBRANCH  44  49
ENDBRANCH  37  44
ENDBRANCH  27  30
ENDBRANCH   1  27
TORSDOF 17
ENDMDL
MODEL 4
REMARK VINA RESULT: -7.799912218      2.370      3.667
REMARK  17 active torsions:
REMARK  status: ('A' for Active; 'I' for Inactive)
REMARK    1  A    between atoms: N1_1  and  C1_4 
REMARK    2  A    between atoms: N3_8  and  C3_9 
REMARK    3  A    between atoms: C3_9  and  C4_10 
REMARK    4  A    between atoms: C3_9  and  C7_14 
REMARK    5  A    between atoms: C4_10  and  C5_11 
REMARK    6  A    between atoms: C5_11  and  C6_12 
REMARK    7  A    between atoms: C7_14  and  C8_15 
REMARK    8  A    between atoms: C8_15  and  C9_16 
REMARK    9  A    between atoms: C9_16  and  C10_17 
REMARK   10  A    between atoms: C10_17  and  O1_18 
REMARK   11  A    between atoms: C10_17  and  C11_20 
REMARK   12  A    between atoms: C12_23  and  N5_24 
REMARK   13  A    between atoms: C13_29  and  N7_30 
REMARK   14  A    between atoms: C14_33  and  C15_34 
REMARK   15  A    between atoms: C15_34  and  N8_35 
REMARK   16  A    between atoms: C15_34  and  N9_39 
REMARK   17  A    between atoms: C17_47  and  N12_48 
ROOT
HETATM    1  C9  UNL     1    -128.362  31.340 124.477  1.00  0.00     0.067 C 
ENDROOT
BRANCH   1   2
HETATM    2  C8  UNL     1    -129.239  32.287 125.379  1.00  0.00     0.013 C 
BRANCH   2   3
HETATM    3  C7  UNL     1    -128.474  32.658 126.582  1.00  0.00     0.058 C 
BRANCH   3   4
HETATM    4  C3  UNL     1    -129.035  32.073 127.853  1.00  0.00     0.031 C 
BRANCH   4   5
HETATM    5  N3  UNL     1    -130.436  31.889 128.038  1.00  0.00    -0.143 N 
HETATM    6  C2  UNL     1    -131.117  30.706 128.014  1.00  0.00     0.741 A 
HETATM    7  N2  UNL     1    -130.768  29.447 127.686  1.00  0.00    -0.019 N 
HETATM    8  N11 UNL     1    -132.417  30.904 128.358  1.00  0.00     0.092 N 
HETATM    9  C1  UNL     1    -131.646  28.440 127.700  1.00  0.00     0.705 A 
ATOM     10  H2  UNL     1    -129.801  29.256 127.420  1.00  0.00     0.203 HD
HETATM   11  N13 UNL     1    -132.936  28.667 128.050  1.00  0.00    -0.020 N 
HETATM   12  C17 UNL     1    -133.332  29.900 128.382  1.00  0.00     0.727 A 
ATOM     13  H13 UNL     1    -133.604  27.897 128.060  1.00  0.00     0.203 HD
HETATM   14  N10 UNL     1    -132.578  32.170 128.598  1.00  0.00    -0.259 N 
HETATM   15  C16 UNL     1    -131.371  32.785 128.405  1.00  0.00     0.225 A 
ATOM     16  H10 UNL     1    -133.448  32.624 128.880  1.00  0.00     0.189 HD
BRANCH   9  17
HETATM   17  N1  UNL     1    -131.286  27.223 127.379  1.00  0.00    -0.234 N 
ATOM     18  H12 UNL     1    -130.635  27.093 126.605  1.00  0.00     0.174 HD
ATOM     19  H11 UNL     1    -131.646  26.415 127.886  1.00  0.00     0.174 HD
ENDBRANCH   9  17
BRANCH  12  20
HETATM   20  N12 UNL     1    -134.553  30.129 128.716  1.00  0.00    -0.232 N 
ATOM     21 2H12 UNL     1    -135.141  30.740 128.149  1.00  0.00     0.174 HD
ATOM     22 1H12 UNL     1    -134.954  29.705 129.552  1.00  0.00     0.174 HD
ENDBRANCH  12  20
ENDBRANCH   4   5
BRANCH   4  23
HETATM   23  C4  UNL     1    -128.123  31.689 128.707  1.00  0.00     0.002 C 
BRANCH  23  24
HETATM   24  C5  UNL     1    -126.840  32.298 129.043  1.00  0.00     0.060 C 
BRANCH  24  25
HETATM   25  C6  UNL     1    -125.746  31.456 128.306  1.00  0.00     0.226 C 
HETATM   26  F1  UNL     1    -125.287  32.151 127.217  1.00  0.00    -0.255 F 
ENDBRANCH  24  25
ENDBRANCH  23  24
ENDBRANCH   4  23
ENDBRANCH   3   4
ENDBRANCH   2   3
ENDBRANCH   1   2
BRANCH   1  27
HETATM   27  C10 UNL     1    -127.420  32.181 123.755  1.00  0.00     0.071 C 
BRANCH  27  28
HETATM   28  O1  UNL     1    -126.231  31.661 123.647  1.00  0.00    -0.363 OA
ATOM     29  H1  UNL     1    -125.597  32.240 123.240  1.00  0.00     0.217 HD
ENDBRANCH  27  28
BRANCH  27  30
HETATM   30  C11 UNL     1    -127.549  33.475 123.142  1.00  0.00     0.092 A 
HETATM   31  N4  UNL     1    -127.135  34.577 123.864  1.00  0.00    -0.189 N 
HETATM   32  C12 UNL     1    -127.231  35.820 123.387  1.00  0.00     0.678 A 
ATOM     33  H4  UNL     1    -126.741  34.436 124.795  1.00  0.00     0.184 HD
HETATM   34  N6  UNL     1    -127.738  36.081 122.172  1.00  0.00    -0.177 N 
HETATM   35  C13 UNL     1    -128.146  35.038 121.449  1.00  0.00     0.127 A 
ATOM     36  H6  UNL     1    -127.807  37.035 121.818  1.00  0.00     0.186 HD
HETATM   37  C14 UNL     1    -128.070  33.711 121.897  1.00  0.00     0.072 A 
BRANCH  32  38
HETATM   38  N5  UNL     1    -126.825  36.824 124.109  1.00  0.00    -0.234 N 
ATOM     39  H52 UNL     1    -125.927  37.250 123.877  1.00  0.00     0.174 HD
ATOM     40  H51 UNL     1    -127.401  37.159 124.882  1.00  0.00     0.174 HD
ENDBRANCH  32  38
BRANCH  35  41
HETATM   41  N7  UNL     1    -128.639  35.281 120.272  1.00  0.00    -0.384 N 
ATOM     42  H72 UNL     1    -128.297  34.749 119.471  1.00  0.00     0.157 HD
ATOM     43  H71 UNL     1    -129.357  36.002 120.201  1.00  0.00     0.157 HD
ENDBRANCH  35  41
BRANCH  37  44
HETATM   44  C15 UNL     1    -128.566  32.730 120.934  1.00  0.00     0.417 C 
BRANCH  44  45
HETATM   45  N8  UNL     1    -127.440  31.748 120.771  1.00  0.00    -0.046 N 
ATOM     46  H83 UNL     1    -126.537  32.181 120.576  1.00  0.00     0.277 HD
ATOM     47  H82 UNL     1    -127.163  31.288 121.639  1.00  0.00     0.277 HD
ATOM     48  H81 UNL     1    -127.757  31.105 120.045  1.00  0.00     0.277 HD
ENDBRANCH  44  45
BRANCH  44  49
HETATM   49  N9  UNL     1    -128.557  33.429 119.626  1.00  0.00    -0.046 N 
ATOM     50  H93 UNL     1    -128.798  34.418 119.686  1.00  0.00     0.277 HD
ATOM     51  H92 UNL     1    -127.623  33.559 119.235  1.00  0.00     0.277 HD
ATOM     52  H91 UNL     1    -129.182  32.888 119.029  1.00  0.00     0.277 HD
ENDBRANCH  44  49
ENDBRANCH  37  44
ENDBRANCH  27  30
ENDBRANCH   1  27
TORSDOF 17
ENDMDL
MODEL 5
REMARK VINA RESULT: -7.727027273      1.044      1.422
REMARK  17 active torsions:
REMARK  status: ('A' for Active; 'I' for Inactive)
REMARK    1  A    between atoms: N1_1  and  C1_4 
REMARK    2  A    between atoms: N3_8  and  C3_9 
REMARK    3  A    between atoms: C3_9  and  C4_10 
REMARK    4  A    between atoms: C3_9  and  C7_14 
REMARK    5  A    between atoms: C4_10  and  C5_11 
REMARK    6  A    between atoms: C5_11  and  C6_12 
REMARK    7  A    between atoms: C7_14  and  C8_15 
REMARK    8  A    between atoms: C8_15  and  C9_16 
REMARK    9  A    between atoms: C9_16  and  C10_17 
REMARK   10  A    between atoms: C10_17  and  O1_18 
REMARK   11  A    between atoms: C10_17  and  C11_20 
REMARK   12  A    between atoms: C12_23  and  N5_24 
REMARK   13  A    between atoms: C13_29  and  N7_30 
REMARK   14  A    between atoms: C14_33  and  C15_34 
REMARK   15  A    between atoms: C15_34  and  N8_35 
REMARK   16  A    between atoms: C15_34  and  N9_39 
REMARK   17  A    between atoms: C17_47  and  N12_48 
ROOT
HETATM    1  C9  UNL     1    -127.798  33.431 125.621  1.00  0.00     0.067 C 
ENDROOT
BRANCH   1   2
HETATM    2  C8  UNL     1    -127.675  31.869 125.768  1.00  0.00     0.013 C 
BRANCH   2   3
HETATM    3  C7  UNL     1    -127.940  31.490 127.167  1.00  0.00     0.058 C 
BRANCH   3   4
HETATM    4  C3  UNL     1    -129.388  31.631 127.562  1.00  0.00     0.031 C 
BRANCH   4   5
HETATM    5  N3  UNL     1    -130.427  30.959 126.855  1.00  0.00    -0.143 N 
HETATM    6  C2  UNL     1    -131.125  29.863 127.272  1.00  0.00     0.741 A 
HETATM    7  N2  UNL     1    -130.987  29.025 128.318  1.00  0.00    -0.019 N 
HETATM    8  N11 UNL     1    -132.124  29.579 126.396  1.00  0.00     0.092 N 
HETATM    9  C1  UNL     1    -131.789  27.970 128.493  1.00  0.00     0.705 A 
ATOM     10  H2  UNL     1    -130.247  29.201 128.999  1.00  0.00     0.203 HD
HETATM   11  N13 UNL     1    -132.779  27.714 127.603  1.00  0.00    -0.020 N 
HETATM   12  C17 UNL     1    -132.955  28.515 126.548  1.00  0.00     0.727 A 
ATOM     13  H13 UNL     1    -133.390  26.908 127.739  1.00  0.00     0.203 HD
HETATM   14  N10 UNL     1    -132.080  30.459 125.442  1.00  0.00    -0.259 N 
HETATM   15  C16 UNL     1    -131.043  31.310 125.712  1.00  0.00     0.225 A 
ATOM     16  H10 UNL     1    -132.704  30.506 124.636  1.00  0.00     0.189 HD
BRANCH   9  17
HETATM   17  N1  UNL     1    -131.640  27.167 129.517  1.00  0.00    -0.234 N 
ATOM     18  H12 UNL     1    -131.697  27.558 130.457  1.00  0.00     0.174 HD
ATOM     19  H11 UNL     1    -131.468  26.171 129.386  1.00  0.00     0.174 HD
ENDBRANCH   9  17
BRANCH  12  20
HETATM   20  N12 UNL     1    -133.890  28.283 125.697  1.00  0.00    -0.232 N 
ATOM     21 2H12 UNL     1    -134.675  27.677 125.937  1.00  0.00     0.174 HD
ATOM     22 1H12 UNL     1    -133.864  28.699 124.766  1.00  0.00     0.174 HD
ENDBRANCH  12  20
ENDBRANCH   4   5
BRANCH   4  23
HETATM   23  C4  UNL     1    -129.575  32.348 128.639  1.00  0.00     0.002 C 
BRANCH  23  24
HETATM   24  C5  UNL     1    -130.392  32.073 129.816  1.00  0.00     0.060 C 
BRANCH  24  25
HETATM   25  C6  UNL     1    -131.707  32.905 129.644  1.00  0.00     0.226 C 
HETATM   26  F1  UNL     1    -132.051  33.475 130.842  1.00  0.00    -0.255 F 
ENDBRANCH  24  25
ENDBRANCH  23  24
ENDBRANCH   4  23
ENDBRANCH   3   4
ENDBRANCH   2   3
ENDBRANCH   1   2
BRANCH   1  27
HETATM   27  C10 UNL     1    -127.251  33.786 124.320  1.00  0.00     0.071 C 
BRANCH  27  28
HETATM   28  O1  UNL     1    -126.310  34.685 124.377  1.00  0.00    -0.363 OA
ATOM     29  H1  UNL     1    -126.005  34.972 123.524  1.00  0.00     0.217 HD
ENDBRANCH  27  28
BRANCH  27  30
HETATM   30  C11 UNL     1    -127.550  33.337 122.988  1.00  0.00     0.092 A 
HETATM   31  N4  UNL     1    -127.347  32.003 122.695  1.00  0.00    -0.189 N 
HETATM   32  C12 UNL     1    -127.579  31.496 121.482  1.00  0.00     0.678 A 
ATOM     33  H4  UNL     1    -127.010  31.382 123.431  1.00  0.00     0.184 HD
HETATM   34  N6  UNL     1    -128.024  32.251 120.466  1.00  0.00    -0.177 N 
HETATM   35  C13 UNL     1    -128.231  33.544 120.716  1.00  0.00     0.127 A 
ATOM     36  H6  UNL     1    -128.197  31.853 119.543  1.00  0.00     0.186 HD
HETATM   37  C14 UNL     1    -128.006  34.132 121.969  1.00  0.00     0.072 A 
BRANCH  32  38
HETATM   38  N5  UNL     1    -127.372  30.230 121.259  1.00  0.00    -0.234 N 
ATOM     39  H52 UNL     1    -126.410  29.915 121.133  1.00  0.00     0.174 HD
ATOM     40  H51 UNL     1    -128.163  29.587 121.214  1.00  0.00     0.174 HD
ENDBRANCH  32  38
BRANCH  35  41
HETATM   41  N7  UNL     1    -128.661  34.282 119.739  1.00  0.00    -0.384 N 
ATOM     42  H72 UNL     1    -129.020  35.216 119.943  1.00  0.00     0.157 HD
ATOM     43  H71 UNL     1    -128.619  33.891 118.798  1.00  0.00     0.157 HD
ENDBRANCH  35  41
BRANCH  37  44
HETATM   44  C15 UNL     1    -128.309  35.560 122.018  1.00  0.00     0.417 C 
BRANCH  44  45
HETATM   45  N8  UNL     1    -126.970  36.241 121.968  1.00  0.00    -0.046 N 
ATOM     46  H83 UNL     1    -126.180  35.613 122.118  1.00  0.00     0.277 HD
ATOM     47  H82 UNL     1    -126.698  36.550 121.035  1.00  0.00     0.277 HD
ATOM     48  H81 UNL     1    -127.035  36.995 122.651  1.00  0.00     0.277 HD
ENDBRANCH  44  45
BRANCH  44  49
HETATM   49  N9  UNL     1    -128.736  35.821 123.413  1.00  0.00    -0.046 N 
ATOM     50  H93 UNL     1    -128.659  35.009 124.026  1.00  0.00     0.277 HD
ATOM     51  H92 UNL     1    -128.098  36.423 123.933  1.00  0.00     0.277 HD
ATOM     52  H91 UNL     1    -129.683  36.191 123.339  1.00  0.00     0.277 HD
ENDBRANCH  44  49
ENDBRANCH  37  44
ENDBRANCH  27  30
ENDBRANCH   1  27
TORSDOF 17
ENDMDL
