MODEL 1
REMARK VINA RESULT: -6.397943458      0.000      0.000
REMARK  15 active torsions:
REMARK  status: ('A' for Active; 'I' for Inactive)
REMARK    1  A    between atoms: N1_1  and  C1_4 
REMARK    2  A    between atoms: C4_14  and  S1_15 
REMARK    3  A    between atoms: S1_15  and  C5_16 
REMARK    4  A    between atoms: C5_16  and  C6_17 
REMARK    5  A    between atoms: C5_16  and  O1_22 
REMARK    6  A    between atoms: C6_17  and  N5_18 
REMARK    7  A    between atoms: O1_22  and  N6_23 
REMARK    8  A    between atoms: N7_26  and  C7_27 
REMARK    9  A    between atoms: C7_27  and  O2_28 
REMARK   10  A    between atoms: O2_28  and  C8_29 
REMARK   11  A    between atoms: C8_29  and  C9_30 
REMARK   12  A    between atoms: C8_29  and  C10_32 
REMARK   13  A    between atoms: C10_32  and  O3_33 
REMARK   14  A    between atoms: C10_32  and  C11_35 
REMARK   15  A    between atoms: C11_35  and  O4_36 
ROOT
HETATM    1  C1  UNL     1    -128.707  31.669 129.450  1.00  0.00     0.679 A 
HETATM    2  N2  UNL     1    -127.433  32.072 129.422  1.00  0.00    -0.175 N 
ATOM      3  H2  UNL     1    -126.920  32.124 130.302  1.00  0.00     0.186 HD
HETATM    4  C2  UNL     1    -126.797  32.412 128.291  1.00  0.00     0.145 A 
HETATM    5  N3  UNL     1    -125.574  32.792 128.298  1.00  0.00    -0.383 N 
ATOM      6  H31 UNL     1    -125.090  33.050 127.438  1.00  0.00     0.157 HD
ATOM      7  H32 UNL     1    -125.032  32.854 129.160  1.00  0.00     0.157 HD
HETATM    8  C3  UNL     1    -127.531  32.327 127.123  1.00  0.00     0.124 A 
HETATM    9  N4  UNL     1    -127.200  32.591 125.861  1.00  0.00    -0.330 N 
ATOM     10  H4  UNL     1    -126.292  32.916 125.530  1.00  0.00     0.168 HD
HETATM   11  C4  UNL     1    -128.311  32.344 125.085  1.00  0.00     0.153 A 
HETATM   12  N7  UNL     1    -129.327  31.930 125.856  1.00  0.00    -0.289 N 
HETATM   13  C12 UNL     1    -128.851  31.914 127.116  1.00  0.00     0.157 A 
HETATM   14  N8  UNL     1    -129.397  31.594 128.311  1.00  0.00    -0.174 N 
ATOM     15  H8  UNL     1    -130.369  31.284 128.342  1.00  0.00     0.186 HD
ENDROOT
BRANCH  11  16
HETATM   16  S1  UNL     1    -128.327  32.524 123.296  1.00  0.00    -0.057 SA
BRANCH  16  17
HETATM   17  C5  UNL     1    -127.320  31.247 122.500  1.00  0.00     0.246 C 
BRANCH  17  18
HETATM   18  C6  UNL     1    -127.340  29.932 123.207  1.00  0.00     0.275 C 
BRANCH  18  19
HETATM   19  N5  UNL     1    -126.622  28.901 122.486  1.00  0.00    -0.076 N 
ATOM     20  H53 UNL     1    -126.963  27.973 122.738  1.00  0.00     0.274 HD
ATOM     21  H52 UNL     1    -126.871  28.905 121.497  1.00  0.00     0.274 HD
ATOM     22  H51 UNL     1    -125.612  28.966 122.611  1.00  0.00     0.274 HD
ENDBRANCH  18  19
ENDBRANCH  17  18
BRANCH  17  23
HETATM   23  O1  UNL     1    -127.680  31.024 121.163  1.00  0.00    -0.269 OA
BRANCH  23  24
HETATM   24  N6  UNL     1    -127.672  32.175 120.439  1.00  0.00    -0.310 N 
ATOM     25  H62 UNL     1    -127.704  33.103 120.862  1.00  0.00     0.184 HD
ATOM     26  H61 UNL     1    -127.631  31.992 119.436  1.00  0.00     0.184 HD
ENDBRANCH  23  24
ENDBRANCH  17  23
ENDBRANCH  16  17
ENDBRANCH  11  16
BRANCH  12  27
HETATM   27  C7  UNL     1    -130.714  31.676 125.392  1.00  0.00     0.303 C 
BRANCH  27  28
HETATM   28  O2  UNL     1    -131.238  30.638 125.802  1.00  0.00    -0.363 OA
BRANCH  28  29
HETATM   29  C8  UNL     1    -131.766  29.583 126.218  1.00  0.00     0.164 C 
BRANCH  29  30
HETATM   30  C9  UNL     1    -130.744  28.565 126.859  1.00  0.00     0.120 C 
HETATM   31 BR1  UNL     1    -131.750  27.482 128.108  1.00  0.00    -0.094 Br
ENDBRANCH  29  30
BRANCH  29  32
HETATM   32  C10 UNL     1    -132.990  29.692 127.092  1.00  0.00     0.171 C 
BRANCH  32  33
HETATM   33  O3  UNL     1    -134.147  29.351 126.375  1.00  0.00    -0.391 OA
ATOM     34  H3  UNL     1    -134.196  28.412 126.236  1.00  0.00     0.210 HD
ENDBRANCH  32  33
BRANCH  32  35
HETATM   35  C11 UNL     1    -133.167  31.033 127.718  1.00  0.00     0.198 C 
BRANCH  35  36
HETATM   36  O4  UNL     1    -132.151  31.264 128.674  1.00  0.00    -0.398 OA
ATOM     37  H4  UNL     1    -132.494  31.154 129.552  1.00  0.00     0.209 HD
ENDBRANCH  35  36
ENDBRANCH  32  35
ENDBRANCH  29  32
ENDBRANCH  28  29
ENDBRANCH  27  28
ENDBRANCH  12  27
BRANCH   1  38
HETATM   38  N1  UNL     1    -129.256  31.354 130.582  1.00  0.00    -0.234 N 
ATOM     39  H12 UNL     1    -128.995  31.835 131.442  1.00  0.00     0.174 HD
ATOM     40  H11 UNL     1    -129.961  30.617 130.613  1.00  0.00     0.174 HD
ENDBRANCH   1  38
TORSDOF 15
ENDMDL
MODEL 2
REMARK VINA RESULT: -6.275655885      1.273      1.803
REMARK  15 active torsions:
REMARK  status: ('A' for Active; 'I' for Inactive)
REMARK    1  A    between atoms: N1_1  and  C1_4 
REMARK    2  A    between atoms: C4_14  and  S1_15 
REMARK    3  A    between atoms: S1_15  and  C5_16 
REMARK    4  A    between atoms: C5_16  and  C6_17 
REMARK    5  A    between atoms: C5_16  and  O1_22 
REMARK    6  A    between atoms: C6_17  and  N5_18 
REMARK    7  A    between atoms: O1_22  and  N6_23 
REMARK    8  A    between atoms: N7_26  and  C7_27 
REMARK    9  A    between atoms: C7_27  and  O2_28 
REMARK   10  A    between atoms: O2_28  and  C8_29 
REMARK   11  A    between atoms: C8_29  and  C9_30 
REMARK   12  A    between atoms: C8_29  and  C10_32 
REMARK   13  A    between atoms: C10_32  and  O3_33 
REMARK   14  A    between atoms: C10_32  and  C11_35 
REMARK   15  A    between atoms: C11_35  and  O4_36 
ROOT
HETATM    1  C1  UNL     1    -128.834  31.716 129.432  1.00  0.00     0.679 A 
HETATM    2  N2  UNL     1    -127.552  32.091 129.424  1.00  0.00    -0.175 N 
ATOM      3  H2  UNL     1    -127.080  32.233 130.317  1.00  0.00     0.186 HD
HETATM    4  C2  UNL     1    -126.854  32.290 128.295  1.00  0.00     0.145 A 
HETATM    5  N3  UNL     1    -125.625  32.646 128.321  1.00  0.00    -0.383 N 
ATOM      6  H31 UNL     1    -125.094  32.797 127.464  1.00  0.00     0.157 HD
ATOM      7  H32 UNL     1    -125.124  32.797 129.197  1.00  0.00     0.157 HD
HETATM    8  C3  UNL     1    -127.532  32.086 127.109  1.00  0.00     0.124 A 
HETATM    9  N4  UNL     1    -127.135  32.200 125.844  1.00  0.00    -0.330 N 
ATOM     10  H4  UNL     1    -126.204  32.470 125.524  1.00  0.00     0.168 HD
HETATM   11  C4  UNL     1    -128.212  31.886 125.045  1.00  0.00     0.153 A 
HETATM   12  N7  UNL     1    -129.274  31.579 125.805  1.00  0.00    -0.289 N 
HETATM   13  C12 UNL     1    -128.860  31.698 127.081  1.00  0.00     0.157 A 
HETATM   14  N8  UNL     1    -129.470  31.524 128.275  1.00  0.00    -0.174 N 
ATOM     15  H8  UNL     1    -130.449  31.237 128.292  1.00  0.00     0.186 HD
ENDROOT
BRANCH  11  16
HETATM   16  S1  UNL     1    -128.138  31.863 123.248  1.00  0.00    -0.057 SA
BRANCH  16  17
HETATM   17  C5  UNL     1    -128.425  33.511 122.558  1.00  0.00     0.246 C 
BRANCH  17  18
HETATM   18  C6  UNL     1    -127.310  34.474 122.804  1.00  0.00     0.275 C 
BRANCH  18  19
HETATM   19  N5  UNL     1    -127.559  35.776 122.223  1.00  0.00    -0.076 N 
ATOM     20  H53 UNL     1    -126.685  36.248 121.993  1.00  0.00     0.274 HD
ATOM     21  H52 UNL     1    -127.951  35.690 121.285  1.00  0.00     0.274 HD
ATOM     22  H51 UNL     1    -128.148  36.364 122.813  1.00  0.00     0.274 HD
ENDBRANCH  18  19
ENDBRANCH  17  18
BRANCH  17  23
HETATM   23  O1  UNL     1    -128.680  33.489 121.179  1.00  0.00    -0.269 OA
BRANCH  23  24
HETATM   24  N6  UNL     1    -127.965  32.518 120.550  1.00  0.00    -0.310 N 
ATOM     25  H62 UNL     1    -127.196  32.014 120.991  1.00  0.00     0.184 HD
ATOM     26  H61 UNL     1    -128.294  32.364 119.596  1.00  0.00     0.184 HD
ENDBRANCH  23  24
ENDBRANCH  17  23
ENDBRANCH  16  17
ENDBRANCH  11  16
BRANCH  12  27
HETATM   27  C7  UNL     1    -130.642  31.299 125.303  1.00  0.00     0.303 C 
BRANCH  27  28
HETATM   28  O2  UNL     1    -131.208  30.321 125.797  1.00  0.00    -0.363 OA
BRANCH  28  29
HETATM   29  C8  UNL     1    -131.784  29.331 126.299  1.00  0.00     0.164 C 
BRANCH  29  30
HETATM   30  C9  UNL     1    -130.819  28.361 127.087  1.00  0.00     0.120 C 
HETATM   31 BR1  UNL     1    -131.939  27.276 128.233  1.00  0.00    -0.094 Br
ENDBRANCH  29  30
BRANCH  29  32
HETATM   32  C10 UNL     1    -133.037  29.565 127.104  1.00  0.00     0.171 C 
BRANCH  32  33
HETATM   33  O3  UNL     1    -134.179  29.235 126.358  1.00  0.00    -0.391 OA
ATOM     34  H3  UNL     1    -134.959  29.615 126.747  1.00  0.00     0.210 HD
ENDBRANCH  32  33
BRANCH  32  35
HETATM   35  C11 UNL     1    -133.168  30.954 127.629  1.00  0.00     0.198 C 
BRANCH  35  36
HETATM   36  O4  UNL     1    -132.225  31.178 128.659  1.00  0.00    -0.398 OA
ATOM     37  H4  UNL     1    -131.371  30.857 128.398  1.00  0.00     0.209 HD
ENDBRANCH  35  36
ENDBRANCH  32  35
ENDBRANCH  29  32
ENDBRANCH  28  29
ENDBRANCH  27  28
ENDBRANCH  12  27
BRANCH   1  38
HETATM   38  N1  UNL     1    -129.445  31.540 130.563  1.00  0.00    -0.234 N 
ATOM     39  H12 UNL     1    -130.382  31.913 130.715  1.00  0.00     0.174 HD
ATOM     40  H11 UNL     1    -128.985  31.019 131.310  1.00  0.00     0.174 HD
ENDBRANCH   1  38
TORSDOF 15
ENDMDL
MODEL 3
REMARK VINA RESULT: -6.258335206      1.408      1.813
REMARK  15 active torsions:
REMARK  status: ('A' for Active; 'I' for Inactive)
REMARK    1  A    between atoms: N1_1  and  C1_4 
REMARK    2  A    between atoms: C4_14  and  S1_15 
REMARK    3  A    between atoms: S1_15  and  C5_16 
REMARK    4  A    between atoms: C5_16  and  C6_17 
REMARK    5  A    between atoms: C5_16  and  O1_22 
REMARK    6  A    between atoms: C6_17  and  N5_18 
REMARK    7  A    between atoms: O1_22  and  N6_23 
REMARK    8  A    between atoms: N7_26  and  C7_27 
REMARK    9  A    between atoms: C7_27  and  O2_28 
REMARK   10  A    between atoms: O2_28  and  C8_29 
REMARK   11  A    between atoms: C8_29  and  C9_30 
REMARK   12  A    between atoms: C8_29  and  C10_32 
REMARK   13  A    between atoms: C10_32  and  O3_33 
REMARK   14  A    between atoms: C10_32  and  C11_35 
REMARK   15  A    between atoms: C11_35  and  O4_36 
ROOT
HETATM    1  C1  UNL     1    -128.877  31.775 129.373  1.00  0.00     0.679 A 
HETATM    2  N2  UNL     1    -127.592  32.142 129.346  1.00  0.00    -0.175 N 
ATOM      3  H2  UNL     1    -127.122  32.333 130.231  1.00  0.00     0.186 HD
HETATM    4  C2  UNL     1    -126.890  32.272 128.209  1.00  0.00     0.145 A 
HETATM    5  N3  UNL     1    -125.659  32.622 128.218  1.00  0.00    -0.383 N 
ATOM      6  H31 UNL     1    -125.126  32.720 127.354  1.00  0.00     0.157 HD
ATOM      7  H32 UNL     1    -125.160  32.820 129.085  1.00  0.00     0.157 HD
HETATM    8  C3  UNL     1    -127.567  32.003 127.035  1.00  0.00     0.124 A 
HETATM    9  N4  UNL     1    -127.166  32.041 125.767  1.00  0.00    -0.330 N 
ATOM     10  H4  UNL     1    -126.234  32.287 125.435  1.00  0.00     0.168 HD
HETATM   11  C4  UNL     1    -128.243  31.688 124.984  1.00  0.00     0.153 A 
HETATM   12  N7  UNL     1    -129.309  31.431 125.758  1.00  0.00    -0.289 N 
HETATM   13  C12 UNL     1    -128.897  31.621 127.026  1.00  0.00     0.157 A 
HETATM   14  N8  UNL     1    -129.511  31.520 128.227  1.00  0.00    -0.174 N 
ATOM     15  H8  UNL     1    -130.492  31.240 128.258  1.00  0.00     0.186 HD
ENDROOT
BRANCH  11  16
HETATM   16  S1  UNL     1    -128.165  31.560 123.192  1.00  0.00    -0.057 SA
BRANCH  16  17
HETATM   17  C5  UNL     1    -127.469  33.061 122.458  1.00  0.00     0.246 C 
BRANCH  17  18
HETATM   18  C6  UNL     1    -128.463  33.885 121.707  1.00  0.00     0.275 C 
BRANCH  18  19
HETATM   19  N5  UNL     1    -128.614  33.461 120.331  1.00  0.00    -0.076 N 
ATOM     20  H53 UNL     1    -128.432  34.231 119.688  1.00  0.00     0.274 HD
ATOM     21  H52 UNL     1    -127.857  32.835 120.056  1.00  0.00     0.274 HD
ATOM     22  H51 UNL     1    -129.524  33.039 120.148  1.00  0.00     0.274 HD
ENDBRANCH  18  19
ENDBRANCH  17  18
BRANCH  17  23
HETATM   23  O1  UNL     1    -126.844  33.891 123.400  1.00  0.00    -0.269 OA
BRANCH  23  24
HETATM   24  N6  UNL     1    -126.621  35.138 122.905  1.00  0.00    -0.310 N 
ATOM     25  H62 UNL     1    -125.881  35.351 122.237  1.00  0.00     0.184 HD
ATOM     26  H61 UNL     1    -127.280  35.819 123.284  1.00  0.00     0.184 HD
ENDBRANCH  23  24
ENDBRANCH  17  23
ENDBRANCH  16  17
ENDBRANCH  11  16
BRANCH  12  27
HETATM   27  C7  UNL     1    -130.678  31.129 125.269  1.00  0.00     0.303 C 
BRANCH  27  28
HETATM   28  O2  UNL     1    -131.253  30.192 125.825  1.00  0.00    -0.363 OA
BRANCH  28  29
HETATM   29  C8  UNL     1    -131.837  29.238 126.386  1.00  0.00     0.164 C 
BRANCH  29  30
HETATM   30  C9  UNL     1    -130.882  28.321 127.245  1.00  0.00     0.120 C 
HETATM   31 BR1  UNL     1    -132.017  27.296 128.432  1.00  0.00    -0.094 Br
ENDBRANCH  29  30
BRANCH  29  32
HETATM   32  C10 UNL     1    -133.097  29.527 127.163  1.00  0.00     0.171 C 
BRANCH  32  33
HETATM   33  O3  UNL     1    -134.234  29.204 126.407  1.00  0.00    -0.391 OA
ATOM     34  H3  UNL     1    -134.087  29.373 125.484  1.00  0.00     0.210 HD
ENDBRANCH  32  33
BRANCH  32  35
HETATM   35  C11 UNL     1    -133.200  30.935 127.643  1.00  0.00     0.198 C 
BRANCH  35  36
HETATM   36  O4  UNL     1    -132.255  31.172 128.667  1.00  0.00    -0.398 OA
ATOM     37  H4  UNL     1    -132.437  31.999 129.098  1.00  0.00     0.209 HD
ENDBRANCH  35  36
ENDBRANCH  32  35
ENDBRANCH  29  32
ENDBRANCH  28  29
ENDBRANCH  27  28
ENDBRANCH  12  27
BRANCH   1  38
HETATM   38  N1  UNL     1    -129.491  31.668 130.510  1.00  0.00    -0.234 N 
ATOM     39  H12 UNL     1    -129.946  30.796 130.779  1.00  0.00     0.174 HD
ATOM     40  H11 UNL     1    -129.518  32.465 131.147  1.00  0.00     0.174 HD
ENDBRANCH   1  38
TORSDOF 15
ENDMDL
MODEL 4
REMARK VINA RESULT: -6.193136468      3.150      6.125
REMARK  15 active torsions:
REMARK  status: ('A' for Active; 'I' for Inactive)
REMARK    1  A    between atoms: N1_1  and  C1_4 
REMARK    2  A    between atoms: C4_14  and  S1_15 
REMARK    3  A    between atoms: S1_15  and  C5_16 
REMARK    4  A    between atoms: C5_16  and  C6_17 
REMARK    5  A    between atoms: C5_16  and  O1_22 
REMARK    6  A    between atoms: C6_17  and  N5_18 
REMARK    7  A    between atoms: O1_22  and  N6_23 
REMARK    8  A    between atoms: N7_26  and  C7_27 
REMARK    9  A    between atoms: C7_27  and  O2_28 
REMARK   10  A    between atoms: O2_28  and  C8_29 
REMARK   11  A    between atoms: C8_29  and  C9_30 
REMARK   12  A    between atoms: C8_29  and  C10_32 
REMARK   13  A    between atoms: C10_32  and  O3_33 
REMARK   14  A    between atoms: C10_32  and  C11_35 
REMARK   15  A    between atoms: C11_35  and  O4_36 
ROOT
HETATM    1  C1  UNL     1    -126.784  32.363 128.135  1.00  0.00     0.679 A 
HETATM    2  N2  UNL     1    -127.277  32.149 129.359  1.00  0.00    -0.175 N 
ATOM      3  H2  UNL     1    -126.683  32.347 130.164  1.00  0.00     0.186 HD
HETATM    4  C2  UNL     1    -128.518  31.687 129.579  1.00  0.00     0.145 A 
HETATM    5  N3  UNL     1    -128.961  31.495 130.764  1.00  0.00    -0.383 N 
ATOM      6  H31 UNL     1    -129.904  31.144 130.932  1.00  0.00     0.157 HD
ATOM      7  H32 UNL     1    -128.393  31.682 131.591  1.00  0.00     0.157 HD
HETATM    8  C3  UNL     1    -129.287  31.434 128.459  1.00  0.00     0.124 A 
HETATM    9  N4  UNL     1    -130.531  30.975 128.338  1.00  0.00    -0.330 N 
ATOM     10  H4  UNL     1    -131.159  30.724 129.101  1.00  0.00     0.168 HD
HETATM   11  C4  UNL     1    -130.813  30.902 126.992  1.00  0.00     0.153 A 
HETATM   12  N7  UNL     1    -129.753  31.311 126.278  1.00  0.00    -0.289 N 
HETATM   13  C12 UNL     1    -128.808  31.643 127.178  1.00  0.00     0.157 A 
HETATM   14  N8  UNL     1    -127.545  32.112 127.068  1.00  0.00    -0.174 N 
ATOM     15  H8  UNL     1    -127.160  32.279 126.138  1.00  0.00     0.186 HD
ENDROOT
BRANCH  11  16
HETATM   16  S1  UNL     1    -132.403  30.372 126.342  1.00  0.00    -0.057 SA
BRANCH  16  17
HETATM   17  C5  UNL     1    -133.119  29.054 127.355  1.00  0.00     0.246 C 
BRANCH  17  18
HETATM   18  C6  UNL     1    -132.319  27.793 127.364  1.00  0.00     0.275 C 
BRANCH  18  19
HETATM   19  N5  UNL     1    -132.759  26.861 128.380  1.00  0.00    -0.076 N 
ATOM     20  H53 UNL     1    -133.576  27.217 128.876  1.00  0.00     0.274 HD
ATOM     21  H52 UNL     1    -133.173  26.028 127.959  1.00  0.00     0.274 HD
ATOM     22  H51 UNL     1    -132.016  26.611 129.032  1.00  0.00     0.274 HD
ENDBRANCH  18  19
ENDBRANCH  17  18
BRANCH  17  23
HETATM   23  O1  UNL     1    -133.328  29.442 128.687  1.00  0.00    -0.269 OA
BRANCH  23  24
HETATM   24  N6  UNL     1    -134.440  30.214 128.820  1.00  0.00    -0.310 N 
ATOM     25  H62 UNL     1    -135.322  30.012 128.346  1.00  0.00     0.184 HD
ATOM     26  H61 UNL     1    -134.280  31.005 129.443  1.00  0.00     0.184 HD
ENDBRANCH  23  24
ENDBRANCH  17  23
ENDBRANCH  16  17
ENDBRANCH  11  16
BRANCH  12  27
HETATM   27  C7  UNL     1    -129.641  31.267 124.798  1.00  0.00     0.303 C 
BRANCH  27  28
HETATM   28  O2  UNL     1    -129.085  32.233 124.271  1.00  0.00    -0.363 OA
BRANCH  28  29
HETATM   29  C8  UNL     1    -128.520  33.211 123.734  1.00  0.00     0.164 C 
BRANCH  29  30
HETATM   30  C9  UNL     1    -127.754  34.144 124.751  1.00  0.00     0.120 C 
HETATM   31 BR1  UNL     1    -127.100  35.655 123.733  1.00  0.00    -0.094 Br
ENDBRANCH  29  30
BRANCH  29  32
HETATM   32  C10 UNL     1    -127.656  32.962 122.524  1.00  0.00     0.171 C 
BRANCH  32  33
HETATM   33  O3  UNL     1    -128.368  33.217 121.341  1.00  0.00    -0.391 OA
ATOM     34  H3  UNL     1    -128.071  34.023 120.934  1.00  0.00     0.210 HD
ENDBRANCH  32  33
BRANCH  32  35
HETATM   35  C11 UNL     1    -127.073  31.592 122.470  1.00  0.00     0.198 C 
BRANCH  35  36
HETATM   36  O4  UNL     1    -126.240  31.370 123.591  1.00  0.00    -0.398 OA
ATOM     37  H4  UNL     1    -126.609  30.694 124.145  1.00  0.00     0.209 HD
ENDBRANCH  35  36
ENDBRANCH  32  35
ENDBRANCH  29  32
ENDBRANCH  28  29
ENDBRANCH  27  28
ENDBRANCH  12  27
BRANCH   1  38
HETATM   38  N1  UNL     1    -125.576  32.814 127.999  1.00  0.00    -0.234 N 
ATOM     39  H12 UNL     1    -124.965  32.924 128.808  1.00  0.00     0.174 HD
ATOM     40  H11 UNL     1    -125.230  33.060 127.072  1.00  0.00     0.174 HD
ENDBRANCH   1  38
TORSDOF 15
ENDMDL
MODEL 5
REMARK VINA RESULT: -5.993737939      1.067      1.422
REMARK  15 active torsions:
REMARK  status: ('A' for Active; 'I' for Inactive)
REMARK    1  A    between atoms: N1_1  and  C1_4 
REMARK    2  A    between atoms: C4_14  and  S1_15 
REMARK    3  A    between atoms: S1_15  and  C5_16 
REMARK    4  A    between atoms: C5_16  and  C6_17 
REMARK    5  A    between atoms: C5_16  and  O1_22 
REMARK    6  A    between atoms: C6_17  and  N5_18 
REMARK    7  A    between atoms: O1_22  and  N6_23 
REMARK    8  A    between atoms: N7_26  and  C7_27 
REMARK    9  A    between atoms: C7_27  and  O2_28 
REMARK   10  A    between atoms: O2_28  and  C8_29 
REMARK   11  A    between atoms: C8_29  and  C9_30 
REMARK   12  A    between atoms: C8_29  and  C10_32 
REMARK   13  A    between atoms: C10_32  and  O3_33 
REMARK   14  A    between atoms: C10_32  and  C11_35 
REMARK   15  A    between atoms: C11_35  and  O4_36 
ROOT
HETATM    1  C1  UNL     1    -128.616  31.723 129.394  1.00  0.00     0.679 A 
HETATM    2  N2  UNL     1    -127.353  32.159 129.395  1.00  0.00    -0.175 N 
ATOM      3  H2  UNL     1    -126.860  32.219 130.285  1.00  0.00     0.186 HD
HETATM    4  C2  UNL     1    -126.702  32.521 128.278  1.00  0.00     0.145 A 
HETATM    5  N3  UNL     1    -125.490  32.931 128.313  1.00  0.00    -0.383 N 
ATOM      6  H31 UNL     1    -124.996  33.206 127.464  1.00  0.00     0.157 HD
ATOM      7  H32 UNL     1    -124.968  33.004 129.186  1.00  0.00     0.157 HD
HETATM    8  C3  UNL     1    -127.409  32.422 127.096  1.00  0.00     0.124 A 
HETATM    9  N4  UNL     1    -127.060  32.701 125.842  1.00  0.00    -0.330 N 
ATOM     10  H4  UNL     1    -126.153  33.052 125.531  1.00  0.00     0.168 HD
HETATM   11  C4  UNL     1    -128.147  32.430 125.042  1.00  0.00     0.153 A 
HETATM   12  N7  UNL     1    -129.168  31.985 125.789  1.00  0.00    -0.289 N 
HETATM   13  C12 UNL     1    -128.719  31.976 127.058  1.00  0.00     0.157 A 
HETATM   14  N8  UNL     1    -129.281  31.636 128.240  1.00  0.00    -0.174 N 
ATOM     15  H8  UNL     1    -130.245  31.301 128.250  1.00  0.00     0.186 HD
ENDROOT
BRANCH  11  16
HETATM   16  S1  UNL     1    -128.131  32.618 123.253  1.00  0.00    -0.057 SA
BRANCH  16  17
HETATM   17  C5  UNL     1    -127.260  31.245 122.458  1.00  0.00     0.246 C 
BRANCH  17  18
HETATM   18  C6  UNL     1    -127.371  29.950 123.193  1.00  0.00     0.275 C 
BRANCH  18  19
HETATM   19  N5  UNL     1    -126.640  28.879 122.548  1.00  0.00    -0.076 N 
ATOM     20  H53 UNL     1    -126.889  28.808 121.562  1.00  0.00     0.274 HD
ATOM     21  H52 UNL     1    -125.652  29.115 122.452  1.00  0.00     0.274 HD
ATOM     22  H51 UNL     1    -126.759  27.983 123.021  1.00  0.00     0.274 HD
ENDBRANCH  18  19
ENDBRANCH  17  18
BRANCH  17  23
HETATM   23  O1  UNL     1    -127.676  31.028 121.136  1.00  0.00    -0.269 OA
BRANCH  23  24
HETATM   24  N6  UNL     1    -127.662  32.176 120.407  1.00  0.00    -0.310 N 
ATOM     25  H62 UNL     1    -127.017  32.341 119.634  1.00  0.00     0.184 HD
ATOM     26  H61 UNL     1    -128.369  32.838 120.729  1.00  0.00     0.184 HD
ENDBRANCH  23  24
ENDBRANCH  17  23
ENDBRANCH  16  17
ENDBRANCH  11  16
BRANCH  12  27
HETATM   27  C7  UNL     1    -130.539  31.698 125.295  1.00  0.00     0.303 C 
BRANCH  27  28
HETATM   28  O2  UNL     1    -131.213  30.938 125.992  1.00  0.00    -0.363 OA
BRANCH  28  29
HETATM   29  C8  UNL     1    -131.900  30.164 126.696  1.00  0.00     0.164 C 
BRANCH  29  30
HETATM   30  C9  UNL     1    -133.457  30.358 126.525  1.00  0.00     0.120 C 
HETATM   31 BR1  UNL     1    -134.196  30.505 128.308  1.00  0.00    -0.094 Br
ENDBRANCH  29  30
BRANCH  29  32
HETATM   32  C10 UNL     1    -131.567  28.694 126.678  1.00  0.00     0.171 C 
BRANCH  32  33
HETATM   33  O3  UNL     1    -132.685  27.933 126.306  1.00  0.00    -0.391 OA
ATOM     34  H3  UNL     1    -132.493  27.397 125.545  1.00  0.00     0.210 HD
ENDBRANCH  32  33
BRANCH  32  35
HETATM   35  C11 UNL     1    -131.021  28.183 127.967  1.00  0.00     0.198 C 
BRANCH  35  36
HETATM   36  O4  UNL     1    -131.084  29.189 128.958  1.00  0.00    -0.398 OA
ATOM     37  H4  UNL     1    -131.966  29.256 129.303  1.00  0.00     0.209 HD
ENDBRANCH  35  36
ENDBRANCH  32  35
ENDBRANCH  29  32
ENDBRANCH  28  29
ENDBRANCH  27  28
ENDBRANCH  12  27
BRANCH   1  38
HETATM   38  N1  UNL     1    -129.181  31.388 130.513  1.00  0.00    -0.234 N 
ATOM     39  H12 UNL     1    -129.741  32.059 131.038  1.00  0.00     0.174 HD
ATOM     40  H11 UNL     1    -129.067  30.440 130.872  1.00  0.00     0.174 HD
ENDBRANCH   1  38
TORSDOF 15
ENDMDL
