MODEL 1
REMARK VINA RESULT: -5.697375812      0.000      0.000
REMARK  2 active torsions:
REMARK  status: ('A' for Active; 'I' for Inactive)
REMARK       I    between atoms: N3_4  and  C2_6 
REMARK    1  A    between atoms: C2_6  and  C3_8 
REMARK    2  A    between atoms: C4_9  and  C5_10 
ROOT
HETATM    1  N1  UNL     1      13.117 -23.529   5.587  1.00  0.00    -0.066 NA
HETATM    2  C1  UNL     1      13.020 -23.151   6.943  1.00  0.00     0.203 C 
HETATM    3  N2  UNL     1      13.502 -23.914   8.023  1.00  0.00    -0.066 NA
HETATM    4  N3  UNL     1      12.454 -22.029   7.229  1.00  0.00    -0.300 N 
ATOM      5  H3  UNL     1      12.373 -21.736   8.204  1.00  0.00     0.171 HD
HETATM    6  C2  UNL     1      11.923 -21.169   6.161  1.00  0.00     0.246 C 
HETATM    7  O1  UNL     1      10.707 -21.012   6.287  1.00  0.00    -0.268 OA
ENDROOT
BRANCH   6   8
HETATM    8  C3  UNL     1      12.853 -20.685   5.207  1.00  0.00     0.071 C 
HETATM    9  C4  UNL     1      13.088 -19.578   4.600  1.00  0.00    -0.017 C 
BRANCH   9  10
HETATM   10  C5  UNL     1      12.432 -18.292   4.678  1.00  0.00     0.008 C 
HETATM   11  C6  UNL     1      12.731 -17.270   3.632  1.00  0.00     0.008 C 
HETATM   12  C7  UNL     1      11.213 -16.882   3.666  1.00  0.00     0.001 C 
HETATM   13  C8  UNL     1      11.000 -18.345   4.050  1.00  0.00     0.008 C 
ENDBRANCH   9  10
ENDBRANCH   6   8
TORSDOF 2
ENDMDL
MODEL 2
REMARK VINA RESULT: -5.329727471      2.271      3.229
REMARK  2 active torsions:
REMARK  status: ('A' for Active; 'I' for Inactive)
REMARK       I    between atoms: N3_4  and  C2_6 
REMARK    1  A    between atoms: C2_6  and  C3_8 
REMARK    2  A    between atoms: C4_9  and  C5_10 
ROOT
HETATM    1  N1  UNL     1      11.309 -24.310   9.084  1.00  0.00    -0.066 NA
HETATM    2  C1  UNL     1      12.567 -24.918   9.282  1.00  0.00     0.203 C 
HETATM    3  N2  UNL     1      12.775 -26.109  10.001  1.00  0.00    -0.066 NA
HETATM    4  N3  UNL     1      13.609 -24.355   8.774  1.00  0.00    -0.300 N 
ATOM      5  H3  UNL     1      14.528 -24.778   8.904  1.00  0.00     0.171 HD
HETATM    6  C2  UNL     1      13.480 -23.107   8.006  1.00  0.00     0.246 C 
HETATM    7  O1  UNL     1      14.114 -22.195   8.541  1.00  0.00    -0.268 OA
ENDROOT
BRANCH   6   8
HETATM    8  C3  UNL     1      12.687 -23.156   6.832  1.00  0.00     0.071 C 
HETATM    9  C4  UNL     1      12.025 -22.327   6.109  1.00  0.00    -0.017 C 
BRANCH   9  10
HETATM   10  C5  UNL     1      11.830 -20.899   6.234  1.00  0.00     0.008 C 
HETATM   11  C6  UNL     1      12.470 -19.999   5.229  1.00  0.00     0.008 C 
HETATM   12  C7  UNL     1      11.166 -19.131   5.270  1.00  0.00     0.001 C 
HETATM   13  C8  UNL     1      10.473 -20.453   5.596  1.00  0.00     0.008 C 
ENDBRANCH   9  10
ENDBRANCH   6   8
TORSDOF 2
ENDMDL
MODEL 3
REMARK VINA RESULT: -5.045393327      3.666      5.142
REMARK  2 active torsions:
REMARK  status: ('A' for Active; 'I' for Inactive)
REMARK       I    between atoms: N3_4  and  C2_6 
REMARK    1  A    between atoms: C2_6  and  C3_8 
REMARK    2  A    between atoms: C4_9  and  C5_10 
ROOT
HETATM    1  N1  UNL     1      10.563 -18.338   2.923  1.00  0.00    -0.066 NA
HETATM    2  C1  UNL     1      10.437 -17.832   4.234  1.00  0.00     0.203 C 
HETATM    3  N2  UNL     1       9.218 -17.677   4.919  1.00  0.00    -0.066 NA
HETATM    4  N3  UNL     1      11.507 -17.483   4.863  1.00  0.00    -0.300 N 
ATOM      5  H3  UNL     1      11.439 -17.115   5.813  1.00  0.00     0.171 HD
HETATM    6  C2  UNL     1      12.823 -17.613   4.221  1.00  0.00     0.246 C 
HETATM    7  O1  UNL     1      13.370 -16.513   4.115  1.00  0.00    -0.268 OA
ENDROOT
BRANCH   6   8
HETATM    8  C3  UNL     1      13.229 -18.919   3.848  1.00  0.00     0.071 C 
HETATM    9  C4  UNL     1      13.244 -20.088   4.381  1.00  0.00    -0.017 C 
BRANCH   9  10
HETATM   10  C5  UNL     1      12.803 -20.547   5.679  1.00  0.00     0.008 C 
HETATM   11  C6  UNL     1      11.374 -20.941   5.852  1.00  0.00     0.008 C 
HETATM   12  C7  UNL     1      11.874 -22.118   6.758  1.00  0.00     0.001 C 
HETATM   13  C8  UNL     1      13.124 -22.065   5.883  1.00  0.00     0.008 C 
ENDBRANCH   9  10
ENDBRANCH   6   8
TORSDOF 2
ENDMDL
MODEL 4
REMARK VINA RESULT: -5.013277902      1.361      1.910
REMARK  2 active torsions:
REMARK  status: ('A' for Active; 'I' for Inactive)
REMARK       I    between atoms: N3_4  and  C2_6 
REMARK    1  A    between atoms: C2_6  and  C3_8 
REMARK    2  A    between atoms: C4_9  and  C5_10 
ROOT
HETATM    1  N1  UNL     1      13.706 -22.181   8.268  1.00  0.00    -0.066 NA
HETATM    2  C1  UNL     1      13.115 -23.406   7.892  1.00  0.00     0.203 C 
HETATM    3  N2  UNL     1      13.110 -24.568   8.685  1.00  0.00    -0.066 NA
HETATM    4  N3  UNL     1      12.534 -23.482   6.745  1.00  0.00    -0.300 N 
ATOM      5  H3  UNL     1      12.100 -24.359   6.453  1.00  0.00     0.171 HD
HETATM    6  C2  UNL     1      12.492 -22.314   5.853  1.00  0.00     0.246 C 
HETATM    7  O1  UNL     1      13.070 -22.551   4.790  1.00  0.00    -0.268 OA
ENDROOT
BRANCH   6   8
HETATM    8  C3  UNL     1      11.825 -21.161   6.338  1.00  0.00     0.071 C 
HETATM    9  C4  UNL     1      11.594 -19.966   5.928  1.00  0.00    -0.017 C 
BRANCH   9  10
HETATM   10  C5  UNL     1      11.956 -19.293   4.701  1.00  0.00     0.008 C 
HETATM   11  C6  UNL     1      11.016 -18.282   4.133  1.00  0.00     0.008 C 
HETATM   12  C7  UNL     1      12.269 -17.420   3.756  1.00  0.00     0.001 C 
HETATM   13  C8  UNL     1      12.907 -18.081   4.977  1.00  0.00     0.008 C 
ENDBRANCH   9  10
ENDBRANCH   6   8
TORSDOF 2
ENDMDL
MODEL 5
REMARK VINA RESULT: -4.784600263      3.550      5.229
REMARK  2 active torsions:
REMARK  status: ('A' for Active; 'I' for Inactive)
REMARK       I    between atoms: N3_4  and  C2_6 
REMARK    1  A    between atoms: C2_6  and  C3_8 
REMARK    2  A    between atoms: C4_9  and  C5_10 
ROOT
HETATM    1  N1  UNL     1      11.821 -16.634   5.239  1.00  0.00    -0.066 NA
HETATM    2  C1  UNL     1      12.373 -17.263   4.102  1.00  0.00     0.203 C 
HETATM    3  N2  UNL     1      13.657 -17.004   3.589  1.00  0.00    -0.066 NA
HETATM    4  N3  UNL     1      11.663 -18.139   3.479  1.00  0.00    -0.300 N 
ATOM      5  H3  UNL     1      12.042 -18.606   2.655  1.00  0.00     0.171 HD
HETATM    6  C2  UNL     1      10.309 -18.470   3.949  1.00  0.00     0.246 C 
HETATM    7  O1  UNL     1       9.468 -18.205   3.087  1.00  0.00    -0.268 OA
ENDROOT
BRANCH   6   8
HETATM    8  C3  UNL     1      10.198 -19.015   5.253  1.00  0.00     0.071 C 
HETATM    9  C4  UNL     1      10.658 -20.030   5.890  1.00  0.00    -0.017 C 
BRANCH   9  10
HETATM   10  C5  UNL     1      11.551 -21.090   5.476  1.00  0.00     0.008 C 
HETATM   11  C6  UNL     1      13.023 -20.849   5.530  1.00  0.00     0.008 C 
HETATM   12  C7  UNL     1      13.183 -22.324   6.033  1.00  0.00     0.001 C 
HETATM   13  C8  UNL     1      11.794 -22.113   6.634  1.00  0.00     0.008 C 
ENDBRANCH   9  10
ENDBRANCH   6   8
TORSDOF 2
ENDMDL
