MODEL 1
REMARK VINA RESULT: -8.661726844      0.000      0.000
REMARK  9 active torsions:
REMARK  status: ('A' for Active; 'I' for Inactive)
REMARK    1  A    between atoms: C2_2  and  C3_3 
REMARK    2  A    between atoms: C3_3  and  C4_4 
REMARK    3  A    between atoms: C4_4  and  C5_5 
REMARK    4  A    between atoms: C5_5  and  O1_6 
REMARK    5  A    between atoms: C5_5  and  C6_9 
REMARK    6  A    between atoms: C5_5  and  C9_12 
REMARK    7  A    between atoms: O1_6  and  O2_7 
REMARK    8  A    between atoms: C11_14  and  O3_15 
REMARK    9  A    between atoms: C16_21  and  O4_22 
ROOT
HETATM    1  C9  UNL     1     -10.560  -5.989  37.293  1.00  0.00     0.027 C 
HETATM    2  C10 UNL     1     -10.576  -7.191  38.225  1.00  0.00     0.039 C 
HETATM    3  C11 UNL     1     -10.821  -8.470  37.446  1.00  0.00     0.124 C 
HETATM    4  C12 UNL     1     -11.844  -8.164  36.381  1.00  0.00     0.034 C 
HETATM    5  C13 UNL     1     -12.478  -9.422  35.908  1.00  0.00    -0.002 C 
HETATM    6  C14 UNL     1     -13.993  -9.430  36.163  1.00  0.00     0.008 C 
HETATM    7  C15 UNL     1     -14.568 -10.789  35.953  1.00  0.00     0.033 C 
HETATM    8  C16 UNL     1     -14.193 -11.326  34.600  1.00  0.00     0.126 C 
HETATM    9  C17 UNL     1     -12.717 -11.243  34.314  1.00  0.00    -0.017 C 
HETATM   10  C18 UNL     1     -11.993 -12.151  35.267  1.00  0.00     0.018 C 
HETATM   11  C19 UNL     1     -12.478 -11.732  32.911  1.00  0.00     0.018 C 
HETATM   12  C20 UNL     1     -12.283  -9.781  34.483  1.00  0.00     0.007 C 
HETATM   13  C21 UNL     1     -10.906  -9.549  33.966  1.00  0.00     0.085 C 
HETATM   14  C22 UNL     1     -10.478  -8.203  34.356  1.00  0.00     0.136 C 
HETATM   15  O5  UNL     1      -9.441  -7.775  33.830  1.00  0.00    -0.297 OA
HETATM   16  C23 UNL     1     -11.206  -7.326  35.337  1.00  0.00     0.024 C 
HETATM   17  C24 UNL     1     -12.186  -6.524  34.520  1.00  0.00     0.024 C 
HETATM   18  C25 UNL     1     -10.125  -6.401  35.959  1.00  0.00     0.025 C 
ENDROOT
BRANCH   1  19
HETATM   19  C5  UNL     1     -10.039  -4.736  37.926  1.00  0.00     0.102 C 
BRANCH  19  20
HETATM   20  C4  UNL     1      -9.013  -4.111  36.971  1.00  0.00     0.042 C 
BRANCH  20  21
HETATM   21  C3  UNL     1      -9.243  -2.723  36.526  1.00  0.00     0.003 C 
BRANCH  21  22
HETATM   22  C2  UNL     1      -9.602  -2.797  35.024  1.00  0.00    -0.004 C 
HETATM   23  C1  UNL     1     -11.078  -2.675  34.826  1.00  0.00     0.005 C 
ENDBRANCH  21  22
ENDBRANCH  20  21
ENDBRANCH  19  20
BRANCH  19  24
HETATM   24  O1  UNL     1      -9.203  -5.169  38.996  1.00  0.00    -0.231 OA
BRANCH  24  25
HETATM   25  O2  UNL     1      -7.949  -5.162  38.680  1.00  0.00    -0.250 OA
ATOM     26  H2  UNL     1      -7.651  -6.004  38.356  1.00  0.00     0.253 HD
ENDBRANCH  24  25
ENDBRANCH  19  24
BRANCH  19  27
HETATM   27  C6  UNL     1     -11.001  -3.800  38.518  1.00  0.00     0.016 C 
HETATM   28  C7  UNL     1     -11.104  -3.733  40.011  1.00  0.00     0.012 C 
HETATM   29  C8  UNL     1     -12.419  -3.921  38.004  1.00  0.00     0.012 C 
ENDBRANCH  19  27
ENDBRANCH   1  19
BRANCH   3  30
HETATM   30  O3  UNL     1      -9.684  -9.074  36.989  1.00  0.00    -0.395 OA
ATOM     31  H3  UNL     1      -9.833  -9.722  36.311  1.00  0.00     0.210 HD
ENDBRANCH   3  30
BRANCH   8  32
HETATM   32  O4  UNL     1     -14.599 -12.665  34.550  1.00  0.00    -0.395 OA
ATOM     33  H4  UNL     1     -15.245 -12.743  33.859  1.00  0.00     0.210 HD
ENDBRANCH   8  32
TORSDOF 9
ENDMDL
MODEL 2
REMARK VINA RESULT: -8.476149156      1.086      1.709
REMARK  9 active torsions:
REMARK  status: ('A' for Active; 'I' for Inactive)
REMARK    1  A    between atoms: C2_2  and  C3_3 
REMARK    2  A    between atoms: C3_3  and  C4_4 
REMARK    3  A    between atoms: C4_4  and  C5_5 
REMARK    4  A    between atoms: C5_5  and  O1_6 
REMARK    5  A    between atoms: C5_5  and  C6_9 
REMARK    6  A    between atoms: C5_5  and  C9_12 
REMARK    7  A    between atoms: O1_6  and  O2_7 
REMARK    8  A    between atoms: C11_14  and  O3_15 
REMARK    9  A    between atoms: C16_21  and  O4_22 
ROOT
HETATM    1  C9  UNL     1     -10.634  -5.795  37.565  1.00  0.00     0.027 C 
HETATM    2  C10 UNL     1     -10.634  -7.033  38.450  1.00  0.00     0.039 C 
HETATM    3  C11 UNL     1     -10.839  -8.286  37.619  1.00  0.00     0.124 C 
HETATM    4  C12 UNL     1     -11.855  -7.963  36.552  1.00  0.00     0.034 C 
HETATM    5  C13 UNL     1     -12.454  -9.215  36.023  1.00  0.00    -0.002 C 
HETATM    6  C14 UNL     1     -13.971  -9.267  36.255  1.00  0.00     0.008 C 
HETATM    7  C15 UNL     1     -14.512 -10.630  35.986  1.00  0.00     0.033 C 
HETATM    8  C16 UNL     1     -14.107 -11.105  34.619  1.00  0.00     0.126 C 
HETATM    9  C17 UNL     1     -12.629 -10.978  34.357  1.00  0.00    -0.017 C 
HETATM   10  C18 UNL     1     -11.897 -11.905  35.285  1.00  0.00     0.018 C 
HETATM   11  C19 UNL     1     -12.360 -11.408  32.940  1.00  0.00     0.018 C 
HETATM   12  C20 UNL     1     -12.232  -9.515  34.588  1.00  0.00     0.007 C 
HETATM   13  C21 UNL     1     -10.853  -9.232  34.100  1.00  0.00     0.085 C 
HETATM   14  C22 UNL     1     -10.462  -7.893  34.547  1.00  0.00     0.136 C 
HETATM   15  O5  UNL     1      -9.428  -7.421  34.053  1.00  0.00    -0.297 OA
HETATM   16  C23 UNL     1     -11.223  -7.071  35.550  1.00  0.00     0.024 C 
HETATM   17  C24 UNL     1     -12.210  -6.260  34.751  1.00  0.00     0.024 C 
HETATM   18  C25 UNL     1     -10.172  -6.146  36.222  1.00  0.00     0.025 C 
ENDROOT
BRANCH   1  19
HETATM   19  C5  UNL     1     -10.151  -4.557  38.253  1.00  0.00     0.102 C 
BRANCH  19  20
HETATM   20  C4  UNL     1      -8.824  -4.138  37.604  1.00  0.00     0.042 C 
BRANCH  20  21
HETATM   21  C3  UNL     1      -7.585  -4.335  38.381  1.00  0.00     0.003 C 
BRANCH  21  22
HETATM   22  C2  UNL     1      -6.875  -2.964  38.430  1.00  0.00    -0.004 C 
HETATM   23  C1  UNL     1      -7.419  -2.125  39.540  1.00  0.00     0.005 C 
ENDBRANCH  21  22
ENDBRANCH  20  21
ENDBRANCH  19  20
BRANCH  19  24
HETATM   24  O1  UNL     1      -9.714  -4.982  39.541  1.00  0.00    -0.231 OA
BRANCH  24  25
HETATM   25  O2  UNL     1     -10.201  -4.257  40.494  1.00  0.00    -0.250 OA
ATOM     26  H2  UNL     1     -10.010  -4.611  41.355  1.00  0.00     0.253 HD
ENDBRANCH  24  25
ENDBRANCH  19  24
BRANCH  19  27
HETATM   27  C6  UNL     1     -11.107  -3.470  38.488  1.00  0.00     0.016 C 
HETATM   28  C7  UNL     1     -12.549  -3.704  38.156  1.00  0.00     0.012 C 
HETATM   29  C8  UNL     1     -10.743  -2.142  37.861  1.00  0.00     0.012 C 
ENDBRANCH  19  27
ENDBRANCH   1  19
BRANCH   3  30
HETATM   30  O3  UNL     1      -9.683  -8.846  37.156  1.00  0.00    -0.395 OA
ATOM     31  H3  UNL     1      -9.136  -9.227  37.832  1.00  0.00     0.210 HD
ENDBRANCH   3  30
BRANCH   8  32
HETATM   32  O4  UNL     1     -14.480 -12.451  34.512  1.00  0.00    -0.395 OA
ATOM     33  H4  UNL     1     -13.710 -12.977  34.689  1.00  0.00     0.210 HD
ENDBRANCH   8  32
TORSDOF 9
ENDMDL
MODEL 3
REMARK VINA RESULT: -8.430406853      1.321      2.160
REMARK  9 active torsions:
REMARK  status: ('A' for Active; 'I' for Inactive)
REMARK    1  A    between atoms: C2_2  and  C3_3 
REMARK    2  A    between atoms: C3_3  and  C4_4 
REMARK    3  A    between atoms: C4_4  and  C5_5 
REMARK    4  A    between atoms: C5_5  and  O1_6 
REMARK    5  A    between atoms: C5_5  and  C6_9 
REMARK    6  A    between atoms: C5_5  and  C9_12 
REMARK    7  A    between atoms: O1_6  and  O2_7 
REMARK    8  A    between atoms: C11_14  and  O3_15 
REMARK    9  A    between atoms: C16_21  and  O4_22 
ROOT
HETATM    1  C9  UNL     1     -10.725  -5.523  37.606  1.00  0.00     0.027 C 
HETATM    2  C10 UNL     1     -10.799  -6.742  38.514  1.00  0.00     0.039 C 
HETATM    3  C11 UNL     1     -10.964  -8.010  37.698  1.00  0.00     0.124 C 
HETATM    4  C12 UNL     1     -11.903  -7.699  36.559  1.00  0.00     0.034 C 
HETATM    5  C13 UNL     1     -12.480  -8.956  36.018  1.00  0.00    -0.002 C 
HETATM    6  C14 UNL     1     -14.010  -8.987  36.151  1.00  0.00     0.008 C 
HETATM    7  C15 UNL     1     -14.548 -10.350  35.875  1.00  0.00     0.033 C 
HETATM    8  C16 UNL     1     -14.060 -10.859  34.548  1.00  0.00     0.126 C 
HETATM    9  C17 UNL     1     -12.566 -10.753  34.382  1.00  0.00    -0.017 C 
HETATM   10  C18 UNL     1     -11.909 -11.668  35.375  1.00  0.00     0.018 C 
HETATM   11  C19 UNL     1     -12.210 -11.216  32.994  1.00  0.00     0.018 C 
HETATM   12  C20 UNL     1     -12.168  -9.289  34.607  1.00  0.00     0.007 C 
HETATM   13  C21 UNL     1     -10.756  -9.032  34.206  1.00  0.00     0.085 C 
HETATM   14  C22 UNL     1     -10.380  -7.687  34.650  1.00  0.00     0.136 C 
HETATM   15  O5  UNL     1      -9.310  -7.237  34.216  1.00  0.00    -0.297 OA
HETATM   16  C23 UNL     1     -11.196  -6.836  35.583  1.00  0.00     0.024 C 
HETATM   17  C24 UNL     1     -12.118  -6.032  34.703  1.00  0.00     0.024 C 
HETATM   18  C25 UNL     1     -10.180  -5.907  36.304  1.00  0.00     0.025 C 
ENDROOT
BRANCH   1  19
HETATM   19  C5  UNL     1     -10.274  -4.275  38.297  1.00  0.00     0.102 C 
BRANCH  19  20
HETATM   20  C4  UNL     1     -11.418  -3.254  38.230  1.00  0.00     0.042 C 
BRANCH  20  21
HETATM   21  C3  UNL     1     -12.738  -3.727  37.771  1.00  0.00     0.003 C 
BRANCH  21  22
HETATM   22  C2  UNL     1     -13.633  -3.818  39.027  1.00  0.00    -0.004 C 
HETATM   23  C1  UNL     1     -14.149  -5.209  39.210  1.00  0.00     0.005 C 
ENDBRANCH  21  22
ENDBRANCH  20  21
ENDBRANCH  19  20
BRANCH  19  24
HETATM   24  O1  UNL     1      -9.314  -3.683  37.427  1.00  0.00    -0.231 OA
BRANCH  24  25
HETATM   25  O2  UNL     1      -9.699  -2.536  36.970  1.00  0.00    -0.250 OA
ATOM     26  H2  UNL     1      -9.217  -1.811  37.351  1.00  0.00     0.253 HD
ENDBRANCH  24  25
ENDBRANCH  19  24
BRANCH  19  27
HETATM   27  C6  UNL     1      -9.615  -4.397  39.602  1.00  0.00     0.016 C 
HETATM   28  C7  UNL     1     -10.391  -4.029  40.830  1.00  0.00     0.012 C 
HETATM   29  C8  UNL     1      -8.283  -3.691  39.721  1.00  0.00     0.012 C 
ENDBRANCH  19  27
ENDBRANCH   1  19
BRANCH   3  30
HETATM   30  O3  UNL     1      -9.786  -8.592  37.324  1.00  0.00    -0.395 OA
ATOM     31  H3  UNL     1      -9.861  -9.184  36.585  1.00  0.00     0.210 HD
ENDBRANCH   3  30
BRANCH   8  32
HETATM   32  O4  UNL     1     -14.442 -12.202  34.444  1.00  0.00    -0.395 OA
ATOM     33  H4  UNL     1     -14.640 -12.512  35.320  1.00  0.00     0.210 HD
ENDBRANCH   8  32
TORSDOF 9
ENDMDL
MODEL 4
REMARK VINA RESULT: -8.380902762      1.365      1.792
REMARK  9 active torsions:
REMARK  status: ('A' for Active; 'I' for Inactive)
REMARK    1  A    between atoms: C2_2  and  C3_3 
REMARK    2  A    between atoms: C3_3  and  C4_4 
REMARK    3  A    between atoms: C4_4  and  C5_5 
REMARK    4  A    between atoms: C5_5  and  O1_6 
REMARK    5  A    between atoms: C5_5  and  C6_9 
REMARK    6  A    between atoms: C5_5  and  C9_12 
REMARK    7  A    between atoms: O1_6  and  O2_7 
REMARK    8  A    between atoms: C11_14  and  O3_15 
REMARK    9  A    between atoms: C16_21  and  O4_22 
ROOT
HETATM    1  C9  UNL     1      -9.993  -5.429  36.989  1.00  0.00     0.027 C 
HETATM    2  C10 UNL     1     -10.345  -6.452  38.059  1.00  0.00     0.039 C 
HETATM    3  C11 UNL     1     -10.791  -7.757  37.427  1.00  0.00     0.124 C 
HETATM    4  C12 UNL     1     -11.631  -7.416  36.222  1.00  0.00     0.034 C 
HETATM    5  C13 UNL     1     -12.477  -8.577  35.846  1.00  0.00    -0.002 C 
HETATM    6  C14 UNL     1     -13.974  -8.245  35.925  1.00  0.00     0.008 C 
HETATM    7  C15 UNL     1     -14.807  -9.477  35.827  1.00  0.00     0.033 C 
HETATM    8  C16 UNL     1     -14.442 -10.274  34.606  1.00  0.00     0.126 C 
HETATM    9  C17 UNL     1     -12.964 -10.531  34.482  1.00  0.00    -0.017 C 
HETATM   10  C18 UNL     1     -12.535 -11.412  35.620  1.00  0.00     0.018 C 
HETATM   11  C19 UNL     1     -12.717 -11.262  33.189  1.00  0.00     0.018 C 
HETATM   12  C20 UNL     1     -12.243  -9.177  34.510  1.00  0.00     0.007 C 
HETATM   13  C21 UNL     1     -10.809  -9.305  34.128  1.00  0.00     0.085 C 
HETATM   14  C22 UNL     1     -10.138  -8.028  34.389  1.00  0.00     0.136 C 
HETATM   15  O5  UNL     1      -8.993  -7.900  33.934  1.00  0.00    -0.297 OA
HETATM   16  C23 UNL     1     -10.743  -6.888  35.159  1.00  0.00     0.024 C 
HETATM   17  C24 UNL     1     -11.455  -6.037  34.140  1.00  0.00     0.024 C 
HETATM   18  C25 UNL     1      -9.545  -6.114  35.776  1.00  0.00     0.025 C 
ENDROOT
BRANCH   1  19
HETATM   19  C5  UNL     1      -9.272  -4.226  37.510  1.00  0.00     0.102 C 
BRANCH  19  20
HETATM   20  C4  UNL     1     -10.241  -3.036  37.470  1.00  0.00     0.042 C 
BRANCH  20  21
HETATM   21  C3  UNL     1     -11.628  -3.292  37.036  1.00  0.00     0.003 C 
BRANCH  21  22
HETATM   22  C2  UNL     1     -12.002  -2.151  36.063  1.00  0.00    -0.004 C 
HETATM   23  C1  UNL     1     -11.558  -2.474  34.673  1.00  0.00     0.005 C 
ENDBRANCH  21  22
ENDBRANCH  20  21
ENDBRANCH  19  20
BRANCH  19  24
HETATM   24  O1  UNL     1      -8.343  -3.868  36.492  1.00  0.00    -0.231 OA
BRANCH  24  25
HETATM   25  O2  UNL     1      -8.412  -2.616  36.174  1.00  0.00    -0.250 OA
ATOM     26  H2  UNL     1      -9.053  -2.143  36.692  1.00  0.00     0.253 HD
ENDBRANCH  24  25
ENDBRANCH  19  24
BRANCH  19  27
HETATM   27  C6  UNL     1      -8.490  -4.359  38.744  1.00  0.00     0.016 C 
HETATM   28  C7  UNL     1      -8.680  -3.337  39.822  1.00  0.00     0.012 C 
HETATM   29  C8  UNL     1      -6.996  -4.490  38.548  1.00  0.00     0.012 C 
ENDBRANCH  19  27
ENDBRANCH   1  19
BRANCH   3  30
HETATM   30  O3  UNL     1      -9.775  -8.638  37.185  1.00  0.00    -0.395 OA
ATOM     31  H3  UNL     1     -10.012  -9.358  36.613  1.00  0.00     0.210 HD
ENDBRANCH   3  30
BRANCH   8  32
HETATM   32  O4  UNL     1     -15.119 -11.497  34.682  1.00  0.00    -0.395 OA
ATOM     33  H4  UNL     1     -15.844 -11.386  35.286  1.00  0.00     0.210 HD
ENDBRANCH   8  32
TORSDOF 9
ENDMDL
MODEL 5
REMARK VINA RESULT: -8.171153313      2.160      3.116
REMARK  9 active torsions:
REMARK  status: ('A' for Active; 'I' for Inactive)
REMARK    1  A    between atoms: C2_2  and  C3_3 
REMARK    2  A    between atoms: C3_3  and  C4_4 
REMARK    3  A    between atoms: C4_4  and  C5_5 
REMARK    4  A    between atoms: C5_5  and  O1_6 
REMARK    5  A    between atoms: C5_5  and  C6_9 
REMARK    6  A    between atoms: C5_5  and  C9_12 
REMARK    7  A    between atoms: O1_6  and  O2_7 
REMARK    8  A    between atoms: C11_14  and  O3_15 
REMARK    9  A    between atoms: C16_21  and  O4_22 
ROOT
HETATM    1  C9  UNL     1     -10.166  -5.497  37.583  1.00  0.00     0.027 C 
HETATM    2  C10 UNL     1     -11.488  -4.766  37.403  1.00  0.00     0.039 C 
HETATM    3  C11 UNL     1     -12.639  -5.751  37.331  1.00  0.00     0.124 C 
HETATM    4  C12 UNL     1     -12.172  -6.940  36.530  1.00  0.00     0.034 C 
HETATM    5  C13 UNL     1     -13.340  -7.700  36.017  1.00  0.00    -0.002 C 
HETATM    6  C14 UNL     1     -13.363  -7.748  34.482  1.00  0.00     0.008 C 
HETATM    7  C15 UNL     1     -14.671  -8.256  33.977  1.00  0.00     0.033 C 
HETATM    8  C16 UNL     1     -15.015  -9.572  34.615  1.00  0.00     0.126 C 
HETATM    9  C17 UNL     1     -14.914  -9.551  36.117  1.00  0.00    -0.017 C 
HETATM   10  C18 UNL     1     -15.958  -8.615  36.654  1.00  0.00     0.018 C 
HETATM   11  C19 UNL     1     -15.203 -10.937  36.631  1.00  0.00     0.018 C 
HETATM   12  C20 UNL     1     -13.497  -9.097  36.490  1.00  0.00     0.007 C 
HETATM   13  C21 UNL     1     -13.214  -9.298  37.939  1.00  0.00     0.085 C 
HETATM   14  C22 UNL     1     -11.943  -8.646  38.264  1.00  0.00     0.136 C 
HETATM   15  O5  UNL     1     -11.460  -8.894  39.377  1.00  0.00    -0.297 OA
HETATM   16  C23 UNL     1     -11.203  -7.711  37.347  1.00  0.00     0.024 C 
HETATM   17  C24 UNL     1     -10.280  -8.580  36.534  1.00  0.00     0.024 C 
HETATM   18  C25 UNL     1     -10.391  -6.766  38.275  1.00  0.00     0.025 C 
ENDROOT
BRANCH   1  19
HETATM   19  C5  UNL     1      -9.023  -4.604  37.954  1.00  0.00     0.102 C 
BRANCH  19  20
HETATM   20  C4  UNL     1      -8.163  -4.386  36.701  1.00  0.00     0.042 C 
BRANCH  20  21
HETATM   21  C3  UNL     1      -8.573  -5.068  35.458  1.00  0.00     0.003 C 
BRANCH  21  22
HETATM   22  C2  UNL     1      -8.601  -3.988  34.353  1.00  0.00    -0.004 C 
HETATM   23  C1  UNL     1      -9.169  -2.709  34.877  1.00  0.00     0.005 C 
ENDBRANCH  21  22
ENDBRANCH  20  21
ENDBRANCH  19  20
BRANCH  19  24
HETATM   24  O1  UNL     1      -8.158  -5.406  38.754  1.00  0.00    -0.231 OA
BRANCH  24  25
HETATM   25  O2  UNL     1      -6.908  -5.170  38.523  1.00  0.00    -0.250 OA
ATOM     26  H2  UNL     1      -6.658  -4.280  38.742  1.00  0.00     0.253 HD
ENDBRANCH  24  25
ENDBRANCH  19  24
BRANCH  19  27
HETATM   27  C6  UNL     1      -9.303  -3.400  38.743  1.00  0.00     0.016 C 
HETATM   28  C7  UNL     1      -8.448  -2.189  38.523  1.00  0.00     0.012 C 
HETATM   29  C8  UNL     1      -9.359  -3.608  40.240  1.00  0.00     0.012 C 
ENDBRANCH  19  27
ENDBRANCH   1  19
BRANCH   3  30
HETATM   30  O3  UNL     1     -13.189  -6.059  38.543  1.00  0.00    -0.395 OA
ATOM     31  H3  UNL     1     -14.105  -5.821  38.628  1.00  0.00     0.210 HD
ENDBRANCH   3  30
BRANCH   8  32
HETATM   32  O4  UNL     1     -16.328  -9.889  34.245  1.00  0.00    -0.395 OA
ATOM     33  H4  UNL     1     -16.907  -9.533  34.909  1.00  0.00     0.210 HD
ENDBRANCH   8  32
TORSDOF 9
ENDMDL
