MODEL 1
REMARK VINA RESULT: -7.948871235      0.000      0.000
REMARK  17 active torsions:
REMARK  status: ('A' for Active; 'I' for Inactive)
REMARK    1  A    between atoms: C2_2  and  C3_3 
REMARK    2  A    between atoms: C3_3  and  S1_4 
REMARK    3  A    between atoms: S1_4  and  N1_5 
REMARK       I    between atoms: N1_5  and  C4_6 
REMARK    4  A    between atoms: N1_5  and  C6_9 
REMARK    5  A    between atoms: C6_9  and  C7_10 
REMARK    6  A    between atoms: C6_9  and  C21_38 
REMARK       I    between atoms: C7_10  and  N2_12 
REMARK    7  A    between atoms: N2_12  and  C8_14 
REMARK    8  A    between atoms: C8_14  and  C9_15 
REMARK    9  A    between atoms: C8_14  and  C17_34 
REMARK   10  A    between atoms: C9_15  and  O3_16 
REMARK       I    between atoms: N3_18  and  C10_20 
REMARK       I    between atoms: C10_20  and  N4_21 
REMARK   11  A    between atoms: N4_21  and  C11_23 
REMARK   12  A    between atoms: C11_23  and  C12_24 
REMARK   13  A    between atoms: C12_24  and  C13_25 
REMARK   14  A    between atoms: N6_28  and  C15_30 
REMARK   15  A    between atoms: C15_30  and  O5_32 
REMARK   16  A    between atoms: C17_34  and  C19_36 
REMARK   17  A    between atoms: C21_38  and  C23_40 
ROOT
HETATM    1  C8  UNL     1      20.547  31.073  15.250  1.00  0.00     0.163 C 
ENDROOT
BRANCH   1   2
HETATM    2  N2  UNL     1      19.823  30.282  14.217  1.00  0.00    -0.344 N 
HETATM    3  C7  UNL     1      20.157  28.924  13.988  1.00  0.00     0.266 C 
HETATM    4  O2  UNL     1      21.086  28.437  14.672  1.00  0.00    -0.266 OA
ATOM      5  H2  UNL     1      19.083  30.722  13.671  1.00  0.00     0.163 HD
BRANCH   3   6
HETATM    6  C6  UNL     1      19.482  28.041  13.007  1.00  0.00     0.098 C 
BRANCH   6   7
HETATM    7  N1  UNL     1      20.379  27.422  12.090  1.00  0.00    -0.254 N 
HETATM    8  C4  UNL     1      20.148  26.121  11.559  1.00  0.00     0.230 C 
HETATM    9  C5  UNL     1      21.104  25.420  10.654  1.00  0.00     0.118 C 
HETATM   10  O1  UNL     1      19.098  25.430  11.806  1.00  0.00    -0.273 OA
BRANCH   7  11
HETATM   11  S1  UNL     1      21.812  28.286  11.585  1.00  0.00    -0.042 SA
BRANCH  11  12
HETATM   12  C3  UNL     1      23.380  27.688  12.128  1.00  0.00     0.124 C 
BRANCH  12  13
HETATM   13  C2  UNL     1      24.324  27.254  11.092  1.00  0.00    -0.025 C 
HETATM   14  C1  UNL     1      25.349  26.484  11.402  1.00  0.00     0.008 C 
ENDBRANCH  12  13
ENDBRANCH  11  12
ENDBRANCH   7  11
ENDBRANCH   6   7
BRANCH   6  15
HETATM   15  C21 UNL     1      18.071  28.321  12.728  1.00  0.00     0.038 C 
HETATM   16  C22 UNL     1      17.181  27.391  13.607  1.00  0.00     0.016 C 
BRANCH  15  17
HETATM   17  C23 UNL     1      17.443  28.287  11.409  1.00  0.00     0.006 C 
HETATM   18  C24 UNL     1      16.149  29.011  11.190  1.00  0.00     0.006 C 
ENDBRANCH  15  17
ENDBRANCH   6  15
ENDBRANCH   3   6
ENDBRANCH   1   2
BRANCH   1  19
HETATM   19  C9  UNL     1      19.581  31.706  16.145  1.00  0.00     0.154 C 
HETATM   20  N3  UNL     1      19.317  33.032  16.279  1.00  0.00    -0.172 N 
HETATM   21  C10 UNL     1      19.759  34.131  16.606  1.00  0.00     0.683 C 
ATOM     22  H3  UNL     1      18.350  33.175  15.986  1.00  0.00     0.186 HD
HETATM   23  N4  UNL     1      18.726  35.183  16.447  1.00  0.00    -0.225 N 
HETATM   24  N6  UNL     1      20.948  34.553  17.113  1.00  0.00    -0.171 N 
ATOM     25  H4  UNL     1      18.575  35.634  15.545  1.00  0.00     0.177 HD
HETATM   26  C14 UNL     1      21.912  33.589  17.765  1.00  0.00     0.177 C 
BRANCH  19  27
HETATM   27  O3  UNL     1      18.872  30.941  16.933  1.00  0.00    -0.347 OA
ATOM     28  H3  UNL     1      18.065  31.290  17.294  1.00  0.00     0.219 HD
ENDBRANCH  19  27
BRANCH  23  29
HETATM   29  C11 UNL     1      17.946  35.550  17.589  1.00  0.00     0.147 C 
BRANCH  29  30
HETATM   30  C12 UNL     1      16.477  35.454  17.272  1.00  0.00     0.119 C 
BRANCH  30  31
HETATM   31  C13 UNL     1      15.988  34.082  17.611  1.00  0.00     0.232 C 
HETATM   32  N5  UNL     1      16.267  32.977  16.785  1.00  0.00    -0.062 NA
HETATM   33  O4  UNL     1      15.305  33.951  18.685  1.00  0.00    -0.277 OA
ENDBRANCH  30  31
ENDBRANCH  29  30
ENDBRANCH  23  29
BRANCH  24  34
HETATM   34  C15 UNL     1      21.424  35.874  17.172  1.00  0.00     0.129 C 
HETATM   35  C16 UNL     1      22.217  36.461  18.237  1.00  0.00     0.098 C 
BRANCH  34  36
HETATM   36  O5  UNL     1      21.136  36.700  16.188  1.00  0.00    -0.349 OA
ATOM     37  H5  UNL     1      21.676  36.691  15.406  1.00  0.00     0.219 HD
ENDBRANCH  34  36
ENDBRANCH  24  34
ENDBRANCH   1  19
BRANCH   1  38
HETATM   38  C17 UNL     1      21.629  31.879  14.654  1.00  0.00     0.012 C 
HETATM   39  C18 UNL     1      21.498  32.094  13.176  1.00  0.00     0.012 C 
BRANCH  38  40
HETATM   40  C19 UNL     1      23.028  31.527  15.111  1.00  0.00     0.002 C 
HETATM   41  C20 UNL     1      23.995  32.654  14.864  1.00  0.00     0.005 C 
ENDBRANCH  38  40
ENDBRANCH   1  38
TORSDOF 17
ENDMDL
MODEL 2
REMARK VINA RESULT: -7.681241632      3.651      9.714
REMARK  17 active torsions:
REMARK  status: ('A' for Active; 'I' for Inactive)
REMARK    1  A    between atoms: C2_2  and  C3_3 
REMARK    2  A    between atoms: C3_3  and  S1_4 
REMARK    3  A    between atoms: S1_4  and  N1_5 
REMARK       I    between atoms: N1_5  and  C4_6 
REMARK    4  A    between atoms: N1_5  and  C6_9 
REMARK    5  A    between atoms: C6_9  and  C7_10 
REMARK    6  A    between atoms: C6_9  and  C21_38 
REMARK       I    between atoms: C7_10  and  N2_12 
REMARK    7  A    between atoms: N2_12  and  C8_14 
REMARK    8  A    between atoms: C8_14  and  C9_15 
REMARK    9  A    between atoms: C8_14  and  C17_34 
REMARK   10  A    between atoms: C9_15  and  O3_16 
REMARK       I    between atoms: N3_18  and  C10_20 
REMARK       I    between atoms: C10_20  and  N4_21 
REMARK   11  A    between atoms: N4_21  and  C11_23 
REMARK   12  A    between atoms: C11_23  and  C12_24 
REMARK   13  A    between atoms: C12_24  and  C13_25 
REMARK   14  A    between atoms: N6_28  and  C15_30 
REMARK   15  A    between atoms: C15_30  and  O5_32 
REMARK   16  A    between atoms: C17_34  and  C19_36 
REMARK   17  A    between atoms: C21_38  and  C23_40 
ROOT
HETATM    1  C8  UNL     1      17.595  34.653  16.774  1.00  0.00     0.163 C 
ENDROOT
BRANCH   1   2
HETATM    2  N2  UNL     1      17.810  36.125  16.778  1.00  0.00    -0.344 N 
HETATM    3  C7  UNL     1      17.532  36.888  17.939  1.00  0.00     0.266 C 
HETATM    4  O2  UNL     1      17.085  36.275  18.937  1.00  0.00    -0.266 OA
ATOM      5  H2  UNL     1      18.160  36.587  15.940  1.00  0.00     0.163 HD
BRANCH   3   6
HETATM    6  C6  UNL     1      17.736  38.351  18.061  1.00  0.00     0.098 C 
BRANCH   6   7
HETATM    7  N1  UNL     1      18.983  38.796  17.534  1.00  0.00    -0.254 N 
HETATM    8  C4  UNL     1      19.066  39.701  16.437  1.00  0.00     0.230 C 
HETATM    9  C5  UNL     1      20.355  40.127  15.819  1.00  0.00     0.118 C 
HETATM   10  O1  UNL     1      18.044  40.235  15.879  1.00  0.00    -0.273 OA
BRANCH   7  11
HETATM   11  S1  UNL     1      20.467  38.223  18.258  1.00  0.00    -0.042 SA
BRANCH  11  12
HETATM   12  C3  UNL     1      21.375  36.969  17.414  1.00  0.00     0.124 C 
BRANCH  12  13
HETATM   13  C2  UNL     1      22.794  36.824  17.761  1.00  0.00    -0.025 C 
HETATM   14  C1  UNL     1      23.508  37.878  18.107  1.00  0.00     0.008 C 
ENDBRANCH  12  13
ENDBRANCH  11  12
ENDBRANCH   7  11
ENDBRANCH   6   7
BRANCH   6  15
HETATM   15  C21 UNL     1      16.992  39.035  19.122  1.00  0.00     0.038 C 
HETATM   16  C22 UNL     1      15.698  39.660  18.517  1.00  0.00     0.016 C 
BRANCH  15  17
HETATM   17  C23 UNL     1      17.524  40.076  19.998  1.00  0.00     0.006 C 
HETATM   18  C24 UNL     1      17.554  41.497  19.520  1.00  0.00     0.006 C 
ENDBRANCH  15  17
ENDBRANCH   6  15
ENDBRANCH   3   6
ENDBRANCH   1   2
BRANCH   1  19
HETATM   19  C9  UNL     1      18.886  33.971  16.823  1.00  0.00     0.154 C 
HETATM   20  N3  UNL     1      19.490  33.261  15.833  1.00  0.00    -0.172 N 
HETATM   21  C10 UNL     1      19.431  32.271  15.107  1.00  0.00     0.683 C 
ATOM     22  H3  UNL     1      20.350  33.755  15.594  1.00  0.00     0.186 HD
HETATM   23  N4  UNL     1      20.607  32.206  14.208  1.00  0.00    -0.225 N 
HETATM   24  N6  UNL     1      18.556  31.235  15.001  1.00  0.00    -0.171 N 
ATOM     25  H4  UNL     1      20.619  32.717  13.326  1.00  0.00     0.177 HD
HETATM   26  C14 UNL     1      17.595  30.899  16.117  1.00  0.00     0.177 C 
BRANCH  19  27
HETATM   27  O3  UNL     1      19.571  34.019  17.936  1.00  0.00    -0.347 OA
ATOM     28  H3  UNL     1      20.471  33.715  17.925  1.00  0.00     0.219 HD
ENDBRANCH  19  27
BRANCH  23  29
HETATM   29  C11 UNL     1      21.726  31.408  14.608  1.00  0.00     0.147 C 
BRANCH  29  30
HETATM   30  C12 UNL     1      23.016  32.120  14.293  1.00  0.00     0.119 C 
BRANCH  30  31
HETATM   31  C13 UNL     1      23.419  32.953  15.467  1.00  0.00     0.232 C 
HETATM   32  N5  UNL     1      22.521  33.230  16.515  1.00  0.00    -0.062 NA
HETATM   33  O4  UNL     1      24.615  33.405  15.484  1.00  0.00    -0.277 OA
ENDBRANCH  30  31
ENDBRANCH  29  30
ENDBRANCH  23  29
BRANCH  24  34
HETATM   34  C15 UNL     1      18.448  30.323  13.937  1.00  0.00     0.129 C 
HETATM   35  C16 UNL     1      18.144  28.907  14.040  1.00  0.00     0.098 C 
BRANCH  34  36
HETATM   36  O5  UNL     1      18.644  30.751  12.708  1.00  0.00    -0.349 OA
ATOM     37  H5  UNL     1      17.895  31.022  12.190  1.00  0.00     0.219 HD
ENDBRANCH  34  36
ENDBRANCH  24  34
ENDBRANCH   1  19
BRANCH   1  38
HETATM   38  C17 UNL     1      16.596  34.255  15.764  1.00  0.00     0.012 C 
HETATM   39  C18 UNL     1      16.498  35.184  14.592  1.00  0.00     0.012 C 
BRANCH  38  40
HETATM   40  C19 UNL     1      15.261  33.802  16.314  1.00  0.00     0.002 C 
HETATM   41  C20 UNL     1      15.259  33.778  17.820  1.00  0.00     0.005 C 
ENDBRANCH  38  40
ENDBRANCH   1  38
TORSDOF 17
ENDMDL
MODEL 3
REMARK VINA RESULT: -7.538112845      3.492      9.636
REMARK  17 active torsions:
REMARK  status: ('A' for Active; 'I' for Inactive)
REMARK    1  A    between atoms: C2_2  and  C3_3 
REMARK    2  A    between atoms: C3_3  and  S1_4 
REMARK    3  A    between atoms: S1_4  and  N1_5 
REMARK       I    between atoms: N1_5  and  C4_6 
REMARK    4  A    between atoms: N1_5  and  C6_9 
REMARK    5  A    between atoms: C6_9  and  C7_10 
REMARK    6  A    between atoms: C6_9  and  C21_38 
REMARK       I    between atoms: C7_10  and  N2_12 
REMARK    7  A    between atoms: N2_12  and  C8_14 
REMARK    8  A    between atoms: C8_14  and  C9_15 
REMARK    9  A    between atoms: C8_14  and  C17_34 
REMARK   10  A    between atoms: C9_15  and  O3_16 
REMARK       I    between atoms: N3_18  and  C10_20 
REMARK       I    between atoms: C10_20  and  N4_21 
REMARK   11  A    between atoms: N4_21  and  C11_23 
REMARK   12  A    between atoms: C11_23  and  C12_24 
REMARK   13  A    between atoms: C12_24  and  C13_25 
REMARK   14  A    between atoms: N6_28  and  C15_30 
REMARK   15  A    between atoms: C15_30  and  O5_32 
REMARK   16  A    between atoms: C17_34  and  C19_36 
REMARK   17  A    between atoms: C21_38  and  C23_40 
ROOT
HETATM    1  C8  UNL     1      17.383  34.742  16.871  1.00  0.00     0.163 C 
ENDROOT
BRANCH   1   2
HETATM    2  N2  UNL     1      17.676  36.199  16.789  1.00  0.00    -0.344 N 
HETATM    3  C7  UNL     1      17.571  37.019  17.940  1.00  0.00     0.266 C 
HETATM    4  O2  UNL     1      17.208  36.469  19.006  1.00  0.00    -0.266 OA
ATOM      5  H2  UNL     1      17.953  36.610  15.898  1.00  0.00     0.163 HD
BRANCH   3   6
HETATM    6  C6  UNL     1      17.866  38.471  17.975  1.00  0.00     0.098 C 
BRANCH   6   7
HETATM    7  N1  UNL     1      19.103  38.815  17.358  1.00  0.00    -0.254 N 
HETATM    8  C4  UNL     1      19.188  39.766  16.302  1.00  0.00     0.230 C 
HETATM    9  C5  UNL     1      20.457  40.092  15.589  1.00  0.00     0.118 C 
HETATM   10  O1  UNL     1      18.185  40.432  15.865  1.00  0.00    -0.273 OA
BRANCH   7  11
HETATM   11  S1  UNL     1      20.574  38.054  17.917  1.00  0.00    -0.042 SA
BRANCH  11  12
HETATM   12  C3  UNL     1      21.277  36.774  16.928  1.00  0.00     0.124 C 
BRANCH  12  13
HETATM   13  C2  UNL     1      22.153  35.811  17.605  1.00  0.00    -0.025 C 
HETATM   14  C1  UNL     1      22.401  34.636  17.060  1.00  0.00     0.008 C 
ENDBRANCH  12  13
ENDBRANCH  11  12
ENDBRANCH   7  11
ENDBRANCH   6   7
BRANCH   6  15
HETATM   15  C21 UNL     1      17.225  39.248  19.040  1.00  0.00     0.038 C 
HETATM   16  C22 UNL     1      15.863  39.801  18.520  1.00  0.00     0.016 C 
BRANCH  15  17
HETATM   17  C23 UNL     1      17.827  40.373  19.752  1.00  0.00     0.006 C 
HETATM   18  C24 UNL     1      17.687  41.758  19.195  1.00  0.00     0.006 C 
ENDBRANCH  15  17
ENDBRANCH   6  15
ENDBRANCH   3   6
ENDBRANCH   1   2
BRANCH   1  19
HETATM   19  C9  UNL     1      18.625  34.008  17.104  1.00  0.00     0.154 C 
HETATM   20  N3  UNL     1      19.350  33.293  16.204  1.00  0.00    -0.172 N 
HETATM   21  C10 UNL     1      19.368  32.320  15.453  1.00  0.00     0.683 C 
ATOM     22  H3  UNL     1      20.254  33.756  16.113  1.00  0.00     0.186 HD
HETATM   23  N4  UNL     1      20.667  32.223  14.747  1.00  0.00    -0.225 N 
HETATM   24  N6  UNL     1      18.483  31.322  15.186  1.00  0.00    -0.171 N 
ATOM     25  H4  UNL     1      20.837  32.750  13.890  1.00  0.00     0.177 HD
HETATM   26  C14 UNL     1      17.347  31.005  16.130  1.00  0.00     0.177 C 
BRANCH  19  27
HETATM   27  O3  UNL     1      19.129  34.007  18.311  1.00  0.00    -0.347 OA
ATOM     28  H3  UNL     1      19.745  33.323  18.542  1.00  0.00     0.219 HD
ENDBRANCH  19  27
BRANCH  23  29
HETATM   29  C11 UNL     1      21.679  31.374  15.296  1.00  0.00     0.147 C 
BRANCH  29  30
HETATM   30  C12 UNL     1      22.654  30.960  14.225  1.00  0.00     0.119 C 
BRANCH  30  31
HETATM   31  C13 UNL     1      22.007  29.948  13.334  1.00  0.00     0.232 C 
HETATM   32  N5  UNL     1      22.045  28.573  13.635  1.00  0.00    -0.062 NA
HETATM   33  O4  UNL     1      21.415  30.380  12.286  1.00  0.00    -0.277 OA
ENDBRANCH  30  31
ENDBRANCH  29  30
ENDBRANCH  23  29
BRANCH  24  34
HETATM   34  C15 UNL     1      18.509  30.435  14.097  1.00  0.00     0.129 C 
HETATM   35  C16 UNL     1      18.406  28.988  14.157  1.00  0.00     0.098 C 
BRANCH  34  36
HETATM   36  O5  UNL     1      18.649  30.922  12.881  1.00  0.00    -0.349 OA
ATOM     37  H5  UNL     1      17.877  31.209  12.409  1.00  0.00     0.219 HD
ENDBRANCH  34  36
ENDBRANCH  24  34
ENDBRANCH   1  19
BRANCH   1  38
HETATM   38  C17 UNL     1      16.471  34.312  15.795  1.00  0.00     0.012 C 
HETATM   39  C18 UNL     1      16.469  35.206  14.592  1.00  0.00     0.012 C 
BRANCH  38  40
HETATM   40  C19 UNL     1      15.095  33.873  16.248  1.00  0.00     0.002 C 
HETATM   41  C20 UNL     1      14.887  34.123  17.718  1.00  0.00     0.005 C 
ENDBRANCH  38  40
ENDBRANCH   1  38
TORSDOF 17
ENDMDL
MODEL 4
REMARK VINA RESULT: -7.397221694      2.291      8.778
REMARK  17 active torsions:
REMARK  status: ('A' for Active; 'I' for Inactive)
REMARK    1  A    between atoms: C2_2  and  C3_3 
REMARK    2  A    between atoms: C3_3  and  S1_4 
REMARK    3  A    between atoms: S1_4  and  N1_5 
REMARK       I    between atoms: N1_5  and  C4_6 
REMARK    4  A    between atoms: N1_5  and  C6_9 
REMARK    5  A    between atoms: C6_9  and  C7_10 
REMARK    6  A    between atoms: C6_9  and  C21_38 
REMARK       I    between atoms: C7_10  and  N2_12 
REMARK    7  A    between atoms: N2_12  and  C8_14 
REMARK    8  A    between atoms: C8_14  and  C9_15 
REMARK    9  A    between atoms: C8_14  and  C17_34 
REMARK   10  A    between atoms: C9_15  and  O3_16 
REMARK       I    between atoms: N3_18  and  C10_20 
REMARK       I    between atoms: C10_20  and  N4_21 
REMARK   11  A    between atoms: N4_21  and  C11_23 
REMARK   12  A    between atoms: C11_23  and  C12_24 
REMARK   13  A    between atoms: C12_24  and  C13_25 
REMARK   14  A    between atoms: N6_28  and  C15_30 
REMARK   15  A    between atoms: C15_30  and  O5_32 
REMARK   16  A    between atoms: C17_34  and  C19_36 
REMARK   17  A    between atoms: C21_38  and  C23_40 
ROOT
HETATM    1  C8  UNL     1      18.847  31.493  16.145  1.00  0.00     0.163 C 
ENDROOT
BRANCH   1   2
HETATM    2  N2  UNL     1      19.276  32.915  16.051  1.00  0.00    -0.344 N 
HETATM    3  C7  UNL     1      18.928  33.839  17.067  1.00  0.00     0.266 C 
HETATM    4  O2  UNL     1      18.237  33.411  18.021  1.00  0.00    -0.266 OA
ATOM      5  H2  UNL     1      19.824  33.225  15.250  1.00  0.00     0.163 HD
BRANCH   3   6
HETATM    6  C6  UNL     1      19.327  35.266  17.087  1.00  0.00     0.098 C 
BRANCH   6   7
HETATM    7  N1  UNL     1      20.664  35.477  17.531  1.00  0.00    -0.254 N 
HETATM    8  C4  UNL     1      21.345  36.712  17.335  1.00  0.00     0.230 C 
HETATM    9  C5  UNL     1      22.767  36.937  17.724  1.00  0.00     0.118 C 
HETATM   10  O1  UNL     1      20.803  37.746  16.808  1.00  0.00    -0.273 OA
BRANCH   7  11
HETATM   11  S1  UNL     1      21.502  34.182  18.353  1.00  0.00    -0.042 SA
BRANCH  11  12
HETATM   12  C3  UNL     1      22.586  33.160  17.410  1.00  0.00     0.124 C 
BRANCH  12  13
HETATM   13  C2  UNL     1      22.683  33.437  15.973  1.00  0.00    -0.025 C 
HETATM   14  C1  UNL     1      23.221  32.551  15.157  1.00  0.00     0.008 C 
ENDBRANCH  12  13
ENDBRANCH  11  12
ENDBRANCH   7  11
ENDBRANCH   6   7
BRANCH   6  15
HETATM   15  C21 UNL     1      18.247  36.251  17.207  1.00  0.00     0.038 C 
HETATM   16  C22 UNL     1      17.954  36.506  18.717  1.00  0.00     0.016 C 
BRANCH  15  17
HETATM   17  C23 UNL     1      16.926  36.142  16.593  1.00  0.00     0.006 C 
HETATM   18  C24 UNL     1      15.726  35.915  17.461  1.00  0.00     0.006 C 
ENDBRANCH  15  17
ENDBRANCH   6  15
ENDBRANCH   3   6
ENDBRANCH   1   2
BRANCH   1  19
HETATM   19  C9  UNL     1      20.010  30.621  15.996  1.00  0.00     0.154 C 
HETATM   20  N3  UNL     1      20.500  30.077  14.850  1.00  0.00    -0.172 N 
HETATM   21  C10 UNL     1      20.287  29.309  13.915  1.00  0.00     0.683 C 
ATOM     22  H3  UNL     1      21.430  30.470  14.708  1.00  0.00     0.186 HD
HETATM   23  N4  UNL     1      21.445  29.270  12.991  1.00  0.00    -0.225 N 
HETATM   24  N6  UNL     1      19.257  28.481  13.595  1.00  0.00    -0.171 N 
ATOM     25  H4  UNL     1      21.548  29.966  12.253  1.00  0.00     0.177 HD
HETATM   26  C14 UNL     1      18.244  28.049  14.629  1.00  0.00     0.177 C 
BRANCH  19  27
HETATM   27  O3  UNL     1      20.684  30.296  17.068  1.00  0.00    -0.347 OA
ATOM     28  H3  UNL     1      21.217  29.510  17.045  1.00  0.00     0.219 HD
ENDBRANCH  19  27
BRANCH  23  29
HETATM   29  C11 UNL     1      22.416  28.232  13.160  1.00  0.00     0.147 C 
BRANCH  29  30
HETATM   30  C12 UNL     1      22.958  27.800  11.823  1.00  0.00     0.119 C 
BRANCH  30  31
HETATM   31  C13 UNL     1      23.209  26.327  11.845  1.00  0.00     0.232 C 
HETATM   32  N5  UNL     1      24.516  25.804  11.896  1.00  0.00    -0.062 NA
HETATM   33  O4  UNL     1      22.189  25.556  11.818  1.00  0.00    -0.277 OA
ENDBRANCH  30  31
ENDBRANCH  29  30
ENDBRANCH  23  29
BRANCH  24  34
HETATM   34  C15 UNL     1      19.012  27.874  12.351  1.00  0.00     0.129 C 
HETATM   35  C16 UNL     1      18.168  28.391  11.288  1.00  0.00     0.098 C 
BRANCH  34  36
HETATM   36  O5  UNL     1      19.575  26.715  12.085  1.00  0.00    -0.349 OA
ATOM     37  H5  UNL     1      19.256  26.207  11.349  1.00  0.00     0.219 HD
ENDBRANCH  34  36
ENDBRANCH  24  34
ENDBRANCH   1  19
BRANCH   1  38
HETATM   38  C17 UNL     1      17.635  31.240  15.343  1.00  0.00     0.012 C 
HETATM   39  C18 UNL     1      17.642  31.887  13.991  1.00  0.00     0.012 C 
BRANCH  38  40
HETATM   40  C19 UNL     1      16.324  31.367  16.089  1.00  0.00     0.002 C 
HETATM   41  C20 UNL     1      15.616  32.653  15.754  1.00  0.00     0.005 C 
ENDBRANCH  38  40
ENDBRANCH   1  38
TORSDOF 17
ENDMDL
MODEL 5
REMARK VINA RESULT: -7.313897133      3.780     10.047
REMARK  17 active torsions:
REMARK  status: ('A' for Active; 'I' for Inactive)
REMARK    1  A    between atoms: C2_2  and  C3_3 
REMARK    2  A    between atoms: C3_3  and  S1_4 
REMARK    3  A    between atoms: S1_4  and  N1_5 
REMARK       I    between atoms: N1_5  and  C4_6 
REMARK    4  A    between atoms: N1_5  and  C6_9 
REMARK    5  A    between atoms: C6_9  and  C7_10 
REMARK    6  A    between atoms: C6_9  and  C21_38 
REMARK       I    between atoms: C7_10  and  N2_12 
REMARK    7  A    between atoms: N2_12  and  C8_14 
REMARK    8  A    between atoms: C8_14  and  C9_15 
REMARK    9  A    between atoms: C8_14  and  C17_34 
REMARK   10  A    between atoms: C9_15  and  O3_16 
REMARK       I    between atoms: N3_18  and  C10_20 
REMARK       I    between atoms: C10_20  and  N4_21 
REMARK   11  A    between atoms: N4_21  and  C11_23 
REMARK   12  A    between atoms: C11_23  and  C12_24 
REMARK   13  A    between atoms: C12_24  and  C13_25 
REMARK   14  A    between atoms: N6_28  and  C15_30 
REMARK   15  A    between atoms: C15_30  and  O5_32 
REMARK   16  A    between atoms: C17_34  and  C19_36 
REMARK   17  A    between atoms: C21_38  and  C23_40 
ROOT
HETATM    1  C8  UNL     1      17.780  34.544  16.677  1.00  0.00     0.163 C 
ENDROOT
BRANCH   1   2
HETATM    2  N2  UNL     1      17.948  36.022  16.697  1.00  0.00    -0.344 N 
HETATM    3  C7  UNL     1      17.882  36.736  17.919  1.00  0.00     0.266 C 
HETATM    4  O2  UNL     1      17.661  36.075  18.959  1.00  0.00    -0.266 OA
ATOM      5  H2  UNL     1      18.110  36.524  15.824  1.00  0.00     0.163 HD
BRANCH   3   6
HETATM    6  C6  UNL     1      18.062  38.201  18.055  1.00  0.00     0.098 C 
BRANCH   6   7
HETATM    7  N1  UNL     1      19.301  38.672  17.531  1.00  0.00    -0.254 N 
HETATM    8  C4  UNL     1      20.557  38.192  17.999  1.00  0.00     0.230 C 
HETATM    9  C5  UNL     1      21.868  38.718  17.521  1.00  0.00     0.118 C 
HETATM   10  O1  UNL     1      20.680  37.262  18.871  1.00  0.00    -0.273 OA
BRANCH   7  11
HETATM   11  S1  UNL     1      19.287  39.876  16.264  1.00  0.00    -0.042 SA
BRANCH  11  12
HETATM   12  C3  UNL     1      19.216  41.576  16.731  1.00  0.00     0.124 C 
BRANCH  12  13
HETATM   13  C2  UNL     1      17.915  42.246  16.616  1.00  0.00    -0.025 C 
HETATM   14  C1  UNL     1      16.849  41.573  16.226  1.00  0.00     0.008 C 
ENDBRANCH  12  13
ENDBRANCH  11  12
ENDBRANCH   7  11
ENDBRANCH   6   7
BRANCH   6  15
HETATM   15  C21 UNL     1      17.307  38.862  19.123  1.00  0.00     0.038 C 
HETATM   16  C22 UNL     1      15.885  39.222  18.595  1.00  0.00     0.016 C 
BRANCH  15  17
HETATM   17  C23 UNL     1      17.736  40.051  19.856  1.00  0.00     0.006 C 
HETATM   18  C24 UNL     1      16.772  41.182  20.055  1.00  0.00     0.006 C 
ENDBRANCH  15  17
ENDBRANCH   6  15
ENDBRANCH   3   6
ENDBRANCH   1   2
BRANCH   1  19
HETATM   19  C9  UNL     1      19.093  33.903  16.728  1.00  0.00     0.154 C 
HETATM   20  N3  UNL     1      19.765  33.302  15.710  1.00  0.00    -0.172 N 
HETATM   21  C10 UNL     1      19.773  32.377  14.901  1.00  0.00     0.683 C 
ATOM     22  H3  UNL     1      20.615  33.843  15.553  1.00  0.00     0.186 HD
HETATM   23  N4  UNL     1      20.989  32.429  14.055  1.00  0.00    -0.225 N 
HETATM   24  N6  UNL     1      18.944  31.326  14.667  1.00  0.00    -0.171 N 
ATOM     25  H4  UNL     1      21.020  33.014  13.221  1.00  0.00     0.177 HD
HETATM   26  C14 UNL     1      17.948  30.863  15.705  1.00  0.00     0.177 C 
BRANCH  19  27
HETATM   27  O3  UNL     1      19.727  33.878  17.871  1.00  0.00    -0.347 OA
ATOM     28  H3  UNL     1      20.675  33.821  17.859  1.00  0.00     0.219 HD
ENDBRANCH  19  27
BRANCH  23  29
HETATM   29  C11 UNL     1      22.119  31.637  14.437  1.00  0.00     0.147 C 
BRANCH  29  30
HETATM   30  C12 UNL     1      23.203  32.514  15.007  1.00  0.00     0.119 C 
BRANCH  30  31
HETATM   31  C13 UNL     1      22.738  33.093  16.304  1.00  0.00     0.232 C 
HETATM   32  N5  UNL     1      22.491  32.279  17.426  1.00  0.00    -0.062 NA
HETATM   33  O4  UNL     1      22.575  34.360  16.357  1.00  0.00    -0.277 OA
ENDBRANCH  30  31
ENDBRANCH  29  30
ENDBRANCH  23  29
BRANCH  24  34
HETATM   34  C15 UNL     1      18.915  30.506  13.527  1.00  0.00     0.129 C 
HETATM   35  C16 UNL     1      18.549  29.101  13.480  1.00  0.00     0.098 C 
BRANCH  34  36
HETATM   36  O5  UNL     1      19.258  31.018  12.364  1.00  0.00    -0.349 OA
ATOM     37  H5  UNL     1      18.610  31.058  11.670  1.00  0.00     0.219 HD
ENDBRANCH  34  36
ENDBRANCH  24  34
ENDBRANCH   1  19
BRANCH   1  38
HETATM   38  C17 UNL     1      16.801  34.124  15.656  1.00  0.00     0.012 C 
HETATM   39  C18 UNL     1      16.521  35.156  14.606  1.00  0.00     0.012 C 
BRANCH  38  40
HETATM   40  C19 UNL     1      15.568  33.425  16.189  1.00  0.00     0.002 C 
HETATM   41  C20 UNL     1      15.226  33.885  17.581  1.00  0.00     0.005 C 
ENDBRANCH  38  40
ENDBRANCH   1  38
TORSDOF 17
ENDMDL
