MODEL 1
REMARK VINA RESULT: -8.103704726      0.000      0.000
REMARK  13 active torsions:
REMARK  status: ('A' for Active; 'I' for Inactive)
REMARK    1  A    between atoms: C2_2  and  C3_3 
REMARK    2  A    between atoms: C4_4  and  C5_5 
REMARK    3  A    between atoms: C6_6  and  C7_7 
REMARK       I    between atoms: C7_7  and  N1_9 
REMARK    4  A    between atoms: N1_9  and  C8_11 
REMARK    5  A    between atoms: C8_11  and  C9_12 
REMARK    6  A    between atoms: C8_11  and  C11_14 
REMARK       I    between atoms: C11_14  and  N2_16 
REMARK    7  A    between atoms: N2_16  and  C12_18 
REMARK    8  A    between atoms: C12_18  and  C13_19 
REMARK    9  A    between atoms: C12_18  and  C16_23 
REMARK   10  A    between atoms: C13_19  and  C14_20 
REMARK   11  A    between atoms: C14_20  and  S1_21 
REMARK   12  A    between atoms: C16_23  and  C17_25 
REMARK   13  A    between atoms: C18_28  and  O5_29 
ROOT
HETATM    1  C7  UNL     1      20.261  31.035  15.843  1.00  0.00     0.257 C 
HETATM    2  O1  UNL     1      20.051  30.147  16.750  1.00  0.00    -0.267 OA
HETATM    3  N1  UNL     1      20.117  30.598  14.511  1.00  0.00    -0.344 N 
ATOM      4  H1  UNL     1      20.269  31.257  13.747  1.00  0.00     0.163 HD
ENDROOT
BRANCH   3   5
HETATM    5  C8  UNL     1      19.758  29.239  14.209  1.00  0.00     0.176 C 
BRANCH   5   6
HETATM    6  C9  UNL     1      18.254  29.096  14.162  1.00  0.00     0.030 C 
HETATM    7  C10 UNL     1      17.702  30.175  13.287  1.00  0.00     0.007 C 
ENDBRANCH   5   6
BRANCH   5   8
HETATM    8  C11 UNL     1      20.420  28.703  13.000  1.00  0.00     0.241 C 
HETATM    9  O2  UNL     1      21.034  29.530  12.279  1.00  0.00    -0.271 OA
HETATM   10  N2  UNL     1      20.393  27.351  12.634  1.00  0.00    -0.347 N 
ATOM     11  H2  UNL     1      19.895  26.678  13.216  1.00  0.00     0.163 HD
BRANCH  10  12
HETATM   12  C12 UNL     1      21.075  26.898  11.422  1.00  0.00     0.164 C 
BRANCH  12  13
HETATM   13  C13 UNL     1      20.095  26.092  10.573  1.00  0.00     0.043 C 
BRANCH  13  14
HETATM   14  C14 UNL     1      18.701  26.277  11.072  1.00  0.00     0.076 C 
BRANCH  14  15
HETATM   15  S1  UNL     1      17.755  27.421  10.011  1.00  0.00    -0.173 SA
HETATM   16  C15 UNL     1      18.220  27.072   8.299  1.00  0.00     0.089 C 
ENDBRANCH  14  15
ENDBRANCH  13  14
ENDBRANCH  12  13
BRANCH  12  17
HETATM   17  C16 UNL     1      22.220  26.023  11.754  1.00  0.00     0.236 C 
HETATM   18  O3  UNL     1      22.024  24.761  11.849  1.00  0.00    -0.285 OA
BRANCH  17  19
HETATM   19  C17 UNL     1      23.578  26.480  11.989  1.00  0.00     0.302 C 
HETATM   20  N3  UNL     1      24.718  25.663  11.786  1.00  0.00    -0.054 NA
HETATM   21  O4  UNL     1      23.757  27.651  12.390  1.00  0.00    -0.268 OA
ENDBRANCH  17  19
ENDBRANCH  12  17
ENDBRANCH  10  12
ENDBRANCH   5   8
ENDBRANCH   3   5
BRANCH   1  22
HETATM   22  C6  UNL     1      20.621  32.386  16.227  1.00  0.00     0.092 A 
HETATM   23  C5  UNL     1      19.772  33.289  16.765  1.00  0.00     0.052 A 
HETATM   24  N4  UNL     1      20.268  34.476  17.298  1.00  0.00    -0.354 N 
HETATM   25  C21 UNL     1      21.559  34.768  17.297  1.00  0.00     0.010 A 
HETATM   26  C23 UNL     1      19.314  35.399  17.865  1.00  0.00     0.156 C 
HETATM   27  C20 UNL     1      22.423  33.855  16.745  1.00  0.00     0.062 A 
HETATM   28  C22 UNL     1      22.090  36.044  17.870  1.00  0.00     0.068 C 
HETATM   29  C18 UNL     1      21.998  32.663  16.206  1.00  0.00     0.088 A 
BRANCH  23  30
HETATM   30  C4  UNL     1      18.328  33.197  16.659  1.00  0.00     0.031 C 
HETATM   31  C3  UNL     1      17.620  33.257  15.565  1.00  0.00     0.002 C 
BRANCH  31  32
HETATM   32  C2  UNL     1      16.150  33.141  15.594  1.00  0.00    -0.010 C 
HETATM   33  C1  UNL     1      15.572  32.227  16.310  1.00  0.00     0.011 C 
ENDBRANCH  31  32
ENDBRANCH  23  30
BRANCH  29  34
HETATM   34  O5  UNL     1      22.843  31.740  15.653  1.00  0.00    -0.355 OA
HETATM   35  C19 UNL     1      23.550  32.071  14.477  1.00  0.00     0.210 C 
ENDBRANCH  29  34
ENDBRANCH   1  22
TORSDOF 13
ENDMDL
MODEL 2
REMARK VINA RESULT: -7.979456541      1.889      2.633
REMARK  13 active torsions:
REMARK  status: ('A' for Active; 'I' for Inactive)
REMARK    1  A    between atoms: C2_2  and  C3_3 
REMARK    2  A    between atoms: C4_4  and  C5_5 
REMARK    3  A    between atoms: C6_6  and  C7_7 
REMARK       I    between atoms: C7_7  and  N1_9 
REMARK    4  A    between atoms: N1_9  and  C8_11 
REMARK    5  A    between atoms: C8_11  and  C9_12 
REMARK    6  A    between atoms: C8_11  and  C11_14 
REMARK       I    between atoms: C11_14  and  N2_16 
REMARK    7  A    between atoms: N2_16  and  C12_18 
REMARK    8  A    between atoms: C12_18  and  C13_19 
REMARK    9  A    between atoms: C12_18  and  C16_23 
REMARK   10  A    between atoms: C13_19  and  C14_20 
REMARK   11  A    between atoms: C14_20  and  S1_21 
REMARK   12  A    between atoms: C16_23  and  C17_25 
REMARK   13  A    between atoms: C18_28  and  O5_29 
ROOT
HETATM    1  C7  UNL     1      20.084  31.079  15.984  1.00  0.00     0.257 C 
HETATM    2  O1  UNL     1      19.872  30.235  16.932  1.00  0.00    -0.267 OA
HETATM    3  N1  UNL     1      19.890  30.592  14.675  1.00  0.00    -0.344 N 
ATOM      4  H1  UNL     1      20.041  31.215  13.881  1.00  0.00     0.163 HD
ENDROOT
BRANCH   3   5
HETATM    5  C8  UNL     1      19.485  29.233  14.440  1.00  0.00     0.176 C 
BRANCH   5   6
HETATM    6  C9  UNL     1      18.278  29.200  13.531  1.00  0.00     0.030 C 
HETATM    7  C10 UNL     1      17.833  30.606  13.283  1.00  0.00     0.007 C 
ENDBRANCH   5   6
BRANCH   5   8
HETATM    8  C11 UNL     1      20.580  28.359  13.965  1.00  0.00     0.241 C 
HETATM    9  O2  UNL     1      21.614  28.311  14.679  1.00  0.00    -0.271 OA
HETATM   10  N2  UNL     1      20.515  27.602  12.788  1.00  0.00    -0.347 N 
ATOM     11  H2  UNL     1      19.678  27.640  12.207  1.00  0.00     0.163 HD
BRANCH  10  12
HETATM   12  C12 UNL     1      21.641  26.759  12.387  1.00  0.00     0.164 C 
BRANCH  12  13
HETATM   13  C13 UNL     1      22.574  27.570  11.491  1.00  0.00     0.043 C 
BRANCH  13  14
HETATM   14  C14 UNL     1      23.948  27.607  12.070  1.00  0.00     0.076 C 
BRANCH  14  15
HETATM   15  S1  UNL     1      25.052  26.404  11.256  1.00  0.00    -0.173 SA
HETATM   16  C15 UNL     1      24.361  26.064   9.620  1.00  0.00     0.089 C 
ENDBRANCH  14  15
ENDBRANCH  13  14
ENDBRANCH  12  13
BRANCH  12  17
HETATM   17  C16 UNL     1      21.176  25.583  11.620  1.00  0.00     0.236 C 
HETATM   18  O3  UNL     1      21.948  24.567  11.522  1.00  0.00    -0.285 OA
BRANCH  17  19
HETATM   19  C17 UNL     1      19.893  25.479  10.950  1.00  0.00     0.302 C 
HETATM   20  N3  UNL     1      18.653  25.529  11.634  1.00  0.00    -0.054 NA
HETATM   21  O4  UNL     1      19.874  25.340   9.707  1.00  0.00    -0.268 OA
ENDBRANCH  17  19
ENDBRANCH  12  17
ENDBRANCH  10  12
ENDBRANCH   5   8
ENDBRANCH   3   5
BRANCH   1  22
HETATM   22  C6  UNL     1      20.492  32.432  16.302  1.00  0.00     0.092 A 
HETATM   23  C5  UNL     1      19.682  33.383  16.819  1.00  0.00     0.052 A 
HETATM   24  N4  UNL     1      20.226  34.575  17.290  1.00  0.00    -0.354 N 
HETATM   25  C21 UNL     1      21.525  34.827  17.249  1.00  0.00     0.010 A 
HETATM   26  C23 UNL     1      19.313  35.550  17.837  1.00  0.00     0.156 C 
HETATM   27  C20 UNL     1      22.349  33.866  16.718  1.00  0.00     0.062 A 
HETATM   28  C22 UNL     1      22.107  36.109  17.756  1.00  0.00     0.068 C 
HETATM   29  C18 UNL     1      21.875  32.666  16.239  1.00  0.00     0.088 A 
BRANCH  23  30
HETATM   30  C4  UNL     1      18.235  33.331  16.748  1.00  0.00     0.031 C 
HETATM   31  C3  UNL     1      17.501  33.447  15.676  1.00  0.00     0.002 C 
BRANCH  31  32
HETATM   32  C2  UNL     1      16.029  33.368  15.740  1.00  0.00    -0.010 C 
HETATM   33  C1  UNL     1      15.445  32.354  16.300  1.00  0.00     0.011 C 
ENDBRANCH  31  32
ENDBRANCH  23  30
BRANCH  29  34
HETATM   34  O5  UNL     1      22.680  31.695  15.708  1.00  0.00    -0.355 OA
HETATM   35  C19 UNL     1      23.302  31.922  14.462  1.00  0.00     0.210 C 
ENDBRANCH  29  34
ENDBRANCH   1  22
TORSDOF 13
ENDMDL
MODEL 3
REMARK VINA RESULT: -7.661554240      2.606      8.911
REMARK  13 active torsions:
REMARK  status: ('A' for Active; 'I' for Inactive)
REMARK    1  A    between atoms: C2_2  and  C3_3 
REMARK    2  A    between atoms: C4_4  and  C5_5 
REMARK    3  A    between atoms: C6_6  and  C7_7 
REMARK       I    between atoms: C7_7  and  N1_9 
REMARK    4  A    between atoms: N1_9  and  C8_11 
REMARK    5  A    between atoms: C8_11  and  C9_12 
REMARK    6  A    between atoms: C8_11  and  C11_14 
REMARK       I    between atoms: C11_14  and  N2_16 
REMARK    7  A    between atoms: N2_16  and  C12_18 
REMARK    8  A    between atoms: C12_18  and  C13_19 
REMARK    9  A    between atoms: C12_18  and  C16_23 
REMARK   10  A    between atoms: C13_19  and  C14_20 
REMARK   11  A    between atoms: C14_20  and  S1_21 
REMARK   12  A    between atoms: C16_23  and  C17_25 
REMARK   13  A    between atoms: C18_28  and  O5_29 
ROOT
HETATM    1  C7  UNL     1      20.902  29.322  13.603  1.00  0.00     0.257 C 
HETATM    2  O1  UNL     1      21.248  28.683  14.664  1.00  0.00    -0.267 OA
HETATM    3  N1  UNL     1      21.206  30.697  13.588  1.00  0.00    -0.344 N 
ATOM      4  H1  UNL     1      20.958  31.257  12.772  1.00  0.00     0.163 HD
ENDROOT
BRANCH   3   5
HETATM    5  C8  UNL     1      21.861  31.326  14.703  1.00  0.00     0.176 C 
BRANCH   5   6
HETATM    6  C9  UNL     1      22.851  32.357  14.211  1.00  0.00     0.030 C 
HETATM    7  C10 UNL     1      23.749  32.731  15.346  1.00  0.00     0.007 C 
ENDBRANCH   5   6
BRANCH   5   8
HETATM    8  C11 UNL     1      20.928  31.869  15.713  1.00  0.00     0.241 C 
HETATM    9  O2  UNL     1      20.829  31.230  16.792  1.00  0.00    -0.271 OA
HETATM   10  N2  UNL     1      20.170  33.033  15.525  1.00  0.00    -0.347 N 
ATOM     11  H2  UNL     1      20.248  33.552  14.651  1.00  0.00     0.163 HD
BRANCH  10  12
HETATM   12  C12 UNL     1      19.270  33.507  16.575  1.00  0.00     0.164 C 
BRANCH  12  13
HETATM   13  C13 UNL     1      17.905  33.810  15.958  1.00  0.00     0.043 C 
BRANCH  13  14
HETATM   14  C14 UNL     1      16.862  32.920  16.545  1.00  0.00     0.076 C 
BRANCH  14  15
HETATM   15  S1  UNL     1      15.561  33.879  17.391  1.00  0.00    -0.173 SA
HETATM   16  C15 UNL     1      15.834  35.622  16.992  1.00  0.00     0.089 C 
ENDBRANCH  14  15
ENDBRANCH  13  14
ENDBRANCH  12  13
BRANCH  12  17
HETATM   17  C16 UNL     1      19.780  34.751  17.190  1.00  0.00     0.236 C 
HETATM   18  O3  UNL     1      20.689  35.414  16.577  1.00  0.00    -0.285 OA
BRANCH  17  19
HETATM   19  C17 UNL     1      19.334  35.299  18.458  1.00  0.00     0.302 C 
HETATM   20  N3  UNL     1      19.690  36.592  18.914  1.00  0.00    -0.054 NA
HETATM   21  O4  UNL     1      18.596  34.600  19.188  1.00  0.00    -0.268 OA
ENDBRANCH  17  19
ENDBRANCH  12  17
ENDBRANCH  10  12
ENDBRANCH   5   8
ENDBRANCH   3   5
BRANCH   1  22
HETATM   22  C6  UNL     1      20.243  28.617  12.521  1.00  0.00     0.092 A 
HETATM   23  C5  UNL     1      20.662  27.446  11.992  1.00  0.00     0.052 A 
HETATM   24  N4  UNL     1      19.839  26.749  11.112  1.00  0.00    -0.354 N 
HETATM   25  C21 UNL     1      18.643  27.193  10.757  1.00  0.00     0.010 A 
HETATM   26  C23 UNL     1      20.338  25.501  10.585  1.00  0.00     0.156 C 
HETATM   27  C20 UNL     1      18.218  28.385  11.288  1.00  0.00     0.062 A 
HETATM   28  C22 UNL     1      17.761  26.442   9.811  1.00  0.00     0.068 C 
HETATM   29  C18 UNL     1      18.981  29.121  12.165  1.00  0.00     0.088 A 
BRANCH  23  30
HETATM   30  C4  UNL     1      22.014  26.940  12.132  1.00  0.00     0.031 C 
HETATM   31  C3  UNL     1      23.107  27.498  11.688  1.00  0.00     0.002 C 
BRANCH  31  32
HETATM   32  C2  UNL     1      24.428  26.879  11.904  1.00  0.00    -0.010 C 
HETATM   33  C1  UNL     1      24.871  25.965  11.098  1.00  0.00     0.011 C 
ENDBRANCH  31  32
ENDBRANCH  23  30
BRANCH  29  34
HETATM   34  O5  UNL     1      18.574  30.310  12.705  1.00  0.00    -0.355 OA
HETATM   35  C19 UNL     1      17.635  30.303  13.758  1.00  0.00     0.210 C 
ENDBRANCH  29  34
ENDBRANCH   1  22
TORSDOF 13
ENDMDL
MODEL 4
REMARK VINA RESULT: -7.440406118      3.298      5.350
REMARK  13 active torsions:
REMARK  status: ('A' for Active; 'I' for Inactive)
REMARK    1  A    between atoms: C2_2  and  C3_3 
REMARK    2  A    between atoms: C4_4  and  C5_5 
REMARK    3  A    between atoms: C6_6  and  C7_7 
REMARK       I    between atoms: C7_7  and  N1_9 
REMARK    4  A    between atoms: N1_9  and  C8_11 
REMARK    5  A    between atoms: C8_11  and  C9_12 
REMARK    6  A    between atoms: C8_11  and  C11_14 
REMARK       I    between atoms: C11_14  and  N2_16 
REMARK    7  A    between atoms: N2_16  and  C12_18 
REMARK    8  A    between atoms: C12_18  and  C13_19 
REMARK    9  A    between atoms: C12_18  and  C16_23 
REMARK   10  A    between atoms: C13_19  and  C14_20 
REMARK   11  A    between atoms: C14_20  and  S1_21 
REMARK   12  A    between atoms: C16_23  and  C17_25 
REMARK   13  A    between atoms: C18_28  and  O5_29 
ROOT
HETATM    1  C7  UNL     1      18.909  35.118  17.750  1.00  0.00     0.257 C 
HETATM    2  O1  UNL     1      18.566  34.583  18.870  1.00  0.00    -0.267 OA
HETATM    3  N1  UNL     1      18.180  34.695  16.620  1.00  0.00    -0.344 N 
ATOM      4  H1  UNL     1      18.404  35.084  15.705  1.00  0.00     0.163 HD
ENDROOT
BRANCH   3   5
HETATM    5  C8  UNL     1      17.126  33.724  16.736  1.00  0.00     0.176 C 
BRANCH   5   6
HETATM    6  C9  UNL     1      15.804  34.341  16.342  1.00  0.00     0.030 C 
HETATM    7  C10 UNL     1      16.036  35.261  15.187  1.00  0.00     0.007 C 
ENDBRANCH   5   6
BRANCH   5   8
HETATM    8  C11 UNL     1      17.400  32.459  16.020  1.00  0.00     0.241 C 
HETATM    9  O2  UNL     1      16.402  31.768  15.692  1.00  0.00    -0.271 OA
HETATM   10  N2  UNL     1      18.689  32.012  15.699  1.00  0.00    -0.347 N 
ATOM     11  H2  UNL     1      19.500  32.570  15.964  1.00  0.00     0.163 HD
BRANCH  10  12
HETATM   12  C12 UNL     1      18.878  30.749  14.985  1.00  0.00     0.164 C 
BRANCH  12  13
HETATM   13  C13 UNL     1      20.052  29.998  15.609  1.00  0.00     0.043 C 
BRANCH  13  14
HETATM   14  C14 UNL     1      20.206  28.656  14.975  1.00  0.00     0.076 C 
BRANCH  14  15
HETATM   15  S1  UNL     1      21.783  28.519  14.068  1.00  0.00    -0.173 SA
HETATM   16  C15 UNL     1      21.381  28.124  12.350  1.00  0.00     0.089 C 
ENDBRANCH  14  15
ENDBRANCH  13  14
ENDBRANCH  12  13
BRANCH  12  17
HETATM   17  C16 UNL     1      19.191  30.987  13.560  1.00  0.00     0.236 C 
HETATM   18  O3  UNL     1      18.485  30.400  12.668  1.00  0.00    -0.285 OA
BRANCH  17  19
HETATM   19  C17 UNL     1      20.256  31.844  13.072  1.00  0.00     0.302 C 
HETATM   20  N3  UNL     1      21.080  32.620  13.925  1.00  0.00    -0.054 NA
HETATM   21  O4  UNL     1      20.462  31.905  11.840  1.00  0.00    -0.268 OA
ENDBRANCH  17  19
ENDBRANCH  12  17
ENDBRANCH  10  12
ENDBRANCH   5   8
ENDBRANCH   3   5
BRANCH   1  22
HETATM   22  C6  UNL     1      19.984  36.089  17.715  1.00  0.00     0.092 A 
HETATM   23  C5  UNL     1      19.883  37.370  18.134  1.00  0.00     0.052 A 
HETATM   24  N4  UNL     1      21.029  38.150  18.261  1.00  0.00    -0.354 N 
HETATM   25  C21 UNL     1      22.236  37.688  17.977  1.00  0.00     0.010 A 
HETATM   26  C23 UNL     1      20.860  39.508  18.720  1.00  0.00     0.156 C 
HETATM   27  C20 UNL     1      22.341  36.389  17.544  1.00  0.00     0.062 A 
HETATM   28  C22 UNL     1      23.466  38.529  18.113  1.00  0.00     0.068 C 
HETATM   29  C18 UNL     1      21.249  35.565  17.402  1.00  0.00     0.088 A 
BRANCH  23  30
HETATM   30  C4  UNL     1      18.621  38.067  18.290  1.00  0.00     0.031 C 
HETATM   31  C3  UNL     1      17.767  38.357  17.346  1.00  0.00     0.002 C 
BRANCH  31  32
HETATM   32  C2  UNL     1      16.509  39.068  17.641  1.00  0.00    -0.010 C 
HETATM   33  C1  UNL     1      16.191  40.146  16.995  1.00  0.00     0.011 C 
ENDBRANCH  31  32
ENDBRANCH  23  30
BRANCH  29  34
HETATM   34  O5  UNL     1      21.332  34.268  16.973  1.00  0.00    -0.355 OA
HETATM   35  C19 UNL     1      22.348  33.437  17.491  1.00  0.00     0.210 C 
ENDBRANCH  29  34
ENDBRANCH   1  22
TORSDOF 13
ENDMDL
MODEL 5
REMARK VINA RESULT: -7.407783198      1.883      2.484
REMARK  13 active torsions:
REMARK  status: ('A' for Active; 'I' for Inactive)
REMARK    1  A    between atoms: C2_2  and  C3_3 
REMARK    2  A    between atoms: C4_4  and  C5_5 
REMARK    3  A    between atoms: C6_6  and  C7_7 
REMARK       I    between atoms: C7_7  and  N1_9 
REMARK    4  A    between atoms: N1_9  and  C8_11 
REMARK    5  A    between atoms: C8_11  and  C9_12 
REMARK    6  A    between atoms: C8_11  and  C11_14 
REMARK       I    between atoms: C11_14  and  N2_16 
REMARK    7  A    between atoms: N2_16  and  C12_18 
REMARK    8  A    between atoms: C12_18  and  C13_19 
REMARK    9  A    between atoms: C12_18  and  C16_23 
REMARK   10  A    between atoms: C13_19  and  C14_20 
REMARK   11  A    between atoms: C14_20  and  S1_21 
REMARK   12  A    between atoms: C16_23  and  C17_25 
REMARK   13  A    between atoms: C18_28  and  O5_29 
ROOT
HETATM    1  C7  UNL     1      20.082  31.332  16.165  1.00  0.00     0.257 C 
HETATM    2  O1  UNL     1      19.887  30.522  17.145  1.00  0.00    -0.267 OA
HETATM    3  N1  UNL     1      19.802  30.821  14.882  1.00  0.00    -0.344 N 
ATOM      4  H1  UNL     1      19.935  31.416  14.064  1.00  0.00     0.163 HD
ENDROOT
BRANCH   3   5
HETATM    5  C8  UNL     1      19.330  29.474  14.705  1.00  0.00     0.176 C 
BRANCH   5   6
HETATM    6  C9  UNL     1      17.997  29.478  13.993  1.00  0.00     0.030 C 
HETATM    7  C10 UNL     1      17.766  30.843  13.429  1.00  0.00     0.007 C 
ENDBRANCH   5   6
BRANCH   5   8
HETATM    8  C11 UNL     1      20.316  28.577  14.064  1.00  0.00     0.241 C 
HETATM    9  O2  UNL     1      21.330  28.274  14.744  1.00  0.00    -0.271 OA
HETATM   10  N2  UNL     1      20.173  28.065  12.767  1.00  0.00    -0.347 N 
ATOM     11  H2  UNL     1      19.353  28.310  12.214  1.00  0.00     0.163 HD
BRANCH  10  12
HETATM   12  C12 UNL     1      21.193  27.181  12.204  1.00  0.00     0.164 C 
BRANCH  12  13
HETATM   13  C13 UNL     1      22.307  28.032  11.598  1.00  0.00     0.043 C 
BRANCH  13  14
HETATM   14  C14 UNL     1      23.594  27.785  12.310  1.00  0.00     0.076 C 
BRANCH  14  15
HETATM   15  S1  UNL     1      24.430  26.288  11.686  1.00  0.00    -0.173 SA
HETATM   16  C15 UNL     1      24.424  26.384   9.880  1.00  0.00     0.089 C 
ENDBRANCH  14  15
ENDBRANCH  13  14
ENDBRANCH  12  13
BRANCH  12  17
HETATM   17  C16 UNL     1      20.627  26.335  11.131  1.00  0.00     0.236 C 
HETATM   18  O3  UNL     1      19.661  26.796  10.428  1.00  0.00    -0.285 OA
BRANCH  17  19
HETATM   19  C17 UNL     1      21.079  24.997  10.799  1.00  0.00     0.302 C 
HETATM   20  N3  UNL     1      21.347  24.574   9.473  1.00  0.00    -0.054 NA
HETATM   21  O4  UNL     1      21.243  24.171  11.724  1.00  0.00    -0.268 OA
ENDBRANCH  17  19
ENDBRANCH  12  17
ENDBRANCH  10  12
ENDBRANCH   5   8
ENDBRANCH   3   5
BRANCH   1  22
HETATM   22  C6  UNL     1      20.561  32.675  16.424  1.00  0.00     0.092 A 
HETATM   23  C5  UNL     1      19.810  33.680  16.928  1.00  0.00     0.052 A 
HETATM   24  N4  UNL     1      20.421  34.861  17.342  1.00  0.00    -0.354 N 
HETATM   25  C21 UNL     1      21.728  35.051  17.257  1.00  0.00     0.010 A 
HETATM   26  C23 UNL     1      19.569  35.895  17.878  1.00  0.00     0.156 C 
HETATM   27  C20 UNL     1      22.492  34.034  16.740  1.00  0.00     0.062 A 
HETATM   28  C22 UNL     1      22.381  36.320  17.703  1.00  0.00     0.068 C 
HETATM   29  C18 UNL     1      21.951  32.842  16.317  1.00  0.00     0.088 A 
BRANCH  23  30
HETATM   30  C4  UNL     1      18.361  33.693  16.897  1.00  0.00     0.031 C 
HETATM   31  C3  UNL     1      17.602  33.649  15.836  1.00  0.00     0.002 C 
BRANCH  31  32
HETATM   32  C2  UNL     1      16.130  33.661  15.943  1.00  0.00    -0.010 C 
HETATM   33  C1  UNL     1      15.464  32.552  16.032  1.00  0.00     0.011 C 
ENDBRANCH  31  32
ENDBRANCH  23  30
BRANCH  29  34
HETATM   34  O5  UNL     1      22.696  31.817  15.799  1.00  0.00    -0.355 OA
HETATM   35  C19 UNL     1      23.396  32.016  14.590  1.00  0.00     0.210 C 
ENDBRANCH  29  34
ENDBRANCH   1  22
TORSDOF 13
ENDMDL
