MODEL 1
REMARK VINA RESULT: -7.979691286      0.000      0.000
REMARK  7 active torsions:
REMARK  status: ('A' for Active; 'I' for Inactive)
REMARK    1  A    between atoms: C8_8  and  C9_9 
REMARK    2  A    between atoms: C9_9  and  C10_10 
REMARK       I    between atoms: C10_10  and  N1_12 
REMARK    3  A    between atoms: N1_12  and  N2_14 
REMARK       I    between atoms: N2_14  and  C11_16 
REMARK       I    between atoms: C11_16  and  N3_18 
REMARK    4  A    between atoms: N3_18  and  C12_20 
REMARK    5  A    between atoms: C12_20  and  C13_21 
REMARK    6  A    between atoms: C13_21  and  O3_22 
REMARK    7  A    between atoms: O3_22  and  N4_23 
ROOT
HETATM    1  C10 UNL     1      25.040   5.977  15.434  1.00  0.00     0.236 C 
HETATM    2  O1  UNL     1      26.094   6.433  14.967  1.00  0.00    -0.272 OA
HETATM    3  N1  UNL     1      25.050   5.594  16.819  1.00  0.00    -0.266 N 
ATOM      4  H1  UNL     1      24.191   5.213  17.216  1.00  0.00     0.190 HD
ENDROOT
BRANCH   1   5
HETATM    5  C9  UNL     1      23.786   5.799  14.699  1.00  0.00     0.110 C 
BRANCH   5   6
HETATM    6  C8  UNL     1      23.831   6.228  13.299  1.00  0.00     0.011 C 
HETATM    7  C2  UNL     1      22.958   7.385  12.886  1.00  0.00    -0.038 C 
HETATM    8  C1  UNL     1      21.918   7.811  13.839  1.00  0.00     0.015 C 
HETATM    9  C3  UNL     1      23.752   8.611  12.479  1.00  0.00     0.015 C 
HETATM   10  C4  UNL     1      22.275   6.751  11.690  1.00  0.00     0.003 C 
HETATM   11  C5  UNL     1      21.844   5.424  12.333  1.00  0.00     0.016 C 
HETATM   12  C14 UNL     1      23.294   5.872  10.991  1.00  0.00    -0.036 C 
HETATM   13  C6  UNL     1      23.366   5.179  12.315  1.00  0.00    -0.032 C 
HETATM   14  C7  UNL     1      23.807   3.805  12.418  1.00  0.00     0.016 C 
HETATM   15  C15 UNL     1      24.510   6.486  10.440  1.00  0.00     0.016 C 
HETATM   16  C16 UNL     1      22.558   5.044   9.927  1.00  0.00     0.016 C 
ENDBRANCH   5   6
ENDBRANCH   1   5
BRANCH   3  17
HETATM   17  N2  UNL     1      26.155   5.710  17.647  1.00  0.00    -0.249 N 
HETATM   18  C11 UNL     1      26.075   6.407  18.875  1.00  0.00     0.334 C 
HETATM   19  O2  UNL     1      24.977   6.913  19.205  1.00  0.00    -0.246 OA
HETATM   20  N3  UNL     1      27.201   6.546  19.735  1.00  0.00    -0.340 N 
ATOM     21  H3  UNL     1      28.088   6.127  19.454  1.00  0.00     0.164 HD
ATOM     22  H2  UNL     1      27.040   5.286  17.366  1.00  0.00     0.192 HD
BRANCH  20  23
HETATM   23  C12 UNL     1      27.137   7.257  20.991  1.00  0.00     0.153 C 
BRANCH  23  24
HETATM   24  C13 UNL     1      28.531   7.766  21.310  1.00  0.00     0.227 C 
BRANCH  24  25
HETATM   25  O3  UNL     1      29.412   6.678  21.573  1.00  0.00    -0.220 OA
BRANCH  25  26
HETATM   26  N4  UNL     1      29.786   6.296  22.822  1.00  0.00     0.004 N 
HETATM   27  O4  UNL     1      29.932   7.127  23.739  1.00  0.00    -0.511 OA
HETATM   28  O5  UNL     1      30.025   4.969  23.140  1.00  0.00    -0.511 OA
ENDBRANCH  25  26
ENDBRANCH  24  25
ENDBRANCH  23  24
ENDBRANCH  20  23
ENDBRANCH   3  17
TORSDOF 7
ENDMDL
MODEL 2
REMARK VINA RESULT: -7.909343003      1.414      1.735
REMARK  7 active torsions:
REMARK  status: ('A' for Active; 'I' for Inactive)
REMARK    1  A    between atoms: C8_8  and  C9_9 
REMARK    2  A    between atoms: C9_9  and  C10_10 
REMARK       I    between atoms: C10_10  and  N1_12 
REMARK    3  A    between atoms: N1_12  and  N2_14 
REMARK       I    between atoms: N2_14  and  C11_16 
REMARK       I    between atoms: C11_16  and  N3_18 
REMARK    4  A    between atoms: N3_18  and  C12_20 
REMARK    5  A    between atoms: C12_20  and  C13_21 
REMARK    6  A    between atoms: C13_21  and  O3_22 
REMARK    7  A    between atoms: O3_22  and  N4_23 
ROOT
HETATM    1  C10 UNL     1      24.290   5.997  14.080  1.00  0.00     0.236 C 
HETATM    2  O1  UNL     1      25.300   6.449  13.522  1.00  0.00    -0.272 OA
HETATM    3  N1  UNL     1      24.406   5.669  15.475  1.00  0.00    -0.266 N 
ATOM      4  H1  UNL     1      23.584   5.292  15.947  1.00  0.00     0.190 HD
ENDROOT
BRANCH   1   5
HETATM    5  C9  UNL     1      22.991   5.773  13.445  1.00  0.00     0.110 C 
BRANCH   5   6
HETATM    6  C8  UNL     1      22.947   6.084  12.015  1.00  0.00     0.011 C 
HETATM    7  C2  UNL     1      21.999   7.161  11.554  1.00  0.00    -0.038 C 
HETATM    8  C1  UNL     1      20.986   7.618  12.522  1.00  0.00     0.015 C 
HETATM    9  C3  UNL     1      22.710   8.384  11.007  1.00  0.00     0.015 C 
HETATM   10  C4  UNL     1      21.292   6.399  10.451  1.00  0.00     0.003 C 
HETATM   11  C5  UNL     1      20.958   5.112  11.222  1.00  0.00     0.016 C 
HETATM   12  C14 UNL     1      22.318   5.512   9.774  1.00  0.00    -0.036 C 
HETATM   13  C6  UNL     1      22.488   4.936  11.145  1.00  0.00    -0.032 C 
HETATM   14  C7  UNL     1      23.001   3.597  11.337  1.00  0.00     0.016 C 
HETATM   15  C15 UNL     1      23.474   6.131   9.112  1.00  0.00     0.016 C 
HETATM   16  C16 UNL     1      21.574   4.564   8.821  1.00  0.00     0.016 C 
ENDBRANCH   5   6
ENDBRANCH   1   5
BRANCH   3  17
HETATM   17  N2  UNL     1      25.566   5.833  16.216  1.00  0.00    -0.249 N 
HETATM   18  C11 UNL     1      25.563   5.656  17.620  1.00  0.00     0.334 C 
HETATM   19  O2  UNL     1      24.489   5.339  18.181  1.00  0.00    -0.246 OA
HETATM   20  N3  UNL     1      26.741   5.829  18.400  1.00  0.00    -0.340 N 
ATOM     21  H3  UNL     1      27.609   6.086  17.929  1.00  0.00     0.164 HD
ATOM     22  H2  UNL     1      26.433   6.084  15.742  1.00  0.00     0.192 HD
BRANCH  20  23
HETATM   23  C12 UNL     1      26.756   5.655  19.835  1.00  0.00     0.153 C 
BRANCH  23  24
HETATM   24  C13 UNL     1      26.625   7.026  20.471  1.00  0.00     0.227 C 
BRANCH  24  25
HETATM   25  O3  UNL     1      27.378   7.091  21.678  1.00  0.00    -0.220 OA
BRANCH  25  26
HETATM   26  N4  UNL     1      28.728   7.248  21.717  1.00  0.00     0.004 N 
HETATM   27  O4  UNL     1      29.265   8.326  21.397  1.00  0.00    -0.511 OA
HETATM   28  O5  UNL     1      29.572   6.223  22.112  1.00  0.00    -0.511 OA
ENDBRANCH  25  26
ENDBRANCH  24  25
ENDBRANCH  23  24
ENDBRANCH  20  23
ENDBRANCH   3  17
TORSDOF 7
ENDMDL
MODEL 3
REMARK VINA RESULT: -7.903880701      2.321      3.331
REMARK  7 active torsions:
REMARK  status: ('A' for Active; 'I' for Inactive)
REMARK    1  A    between atoms: C8_8  and  C9_9 
REMARK    2  A    between atoms: C9_9  and  C10_10 
REMARK       I    between atoms: C10_10  and  N1_12 
REMARK    3  A    between atoms: N1_12  and  N2_14 
REMARK       I    between atoms: N2_14  and  C11_16 
REMARK       I    between atoms: C11_16  and  N3_18 
REMARK    4  A    between atoms: N3_18  and  C12_20 
REMARK    5  A    between atoms: C12_20  and  C13_21 
REMARK    6  A    between atoms: C13_21  and  O3_22 
REMARK    7  A    between atoms: O3_22  and  N4_23 
ROOT
HETATM    1  C10 UNL     1      24.921   5.755  13.140  1.00  0.00     0.236 C 
HETATM    2  O1  UNL     1      25.489   6.848  13.279  1.00  0.00    -0.272 OA
HETATM    3  N1  UNL     1      24.870   4.894  14.290  1.00  0.00    -0.266 N 
ATOM      4  H1  UNL     1      24.410   3.990  14.191  1.00  0.00     0.190 HD
ENDROOT
BRANCH   1   5
HETATM    5  C9  UNL     1      24.295   5.267  11.911  1.00  0.00     0.110 C 
BRANCH   5   6
HETATM    6  C8  UNL     1      23.185   6.087  11.421  1.00  0.00     0.011 C 
HETATM    7  C2  UNL     1      21.859   5.413  11.181  1.00  0.00    -0.038 C 
HETATM    8  C1  UNL     1      21.850   3.939  11.177  1.00  0.00     0.015 C 
HETATM    9  C3  UNL     1      20.772   5.886  12.127  1.00  0.00     0.015 C 
HETATM   10  C4  UNL     1      21.602   5.892   9.766  1.00  0.00     0.003 C 
HETATM   11  C5  UNL     1      22.964   5.549   9.143  1.00  0.00     0.016 C 
HETATM   12  C14 UNL     1      22.116   7.315   9.662  1.00  0.00    -0.036 C 
HETATM   13  C6  UNL     1      23.421   6.701  10.060  1.00  0.00    -0.032 C 
HETATM   14  C7  UNL     1      24.679   7.337   9.731  1.00  0.00     0.016 C 
HETATM   15  C15 UNL     1      21.526   8.354  10.517  1.00  0.00     0.016 C 
HETATM   16  C16 UNL     1      22.081   7.727   8.183  1.00  0.00     0.016 C 
ENDBRANCH   5   6
ENDBRANCH   1   5
BRANCH   3  17
HETATM   17  N2  UNL     1      25.409   5.219  15.525  1.00  0.00    -0.249 N 
HETATM   18  C11 UNL     1      24.586   5.676  16.581  1.00  0.00     0.334 C 
HETATM   19  O2  UNL     1      23.354   5.775  16.380  1.00  0.00    -0.246 OA
HETATM   20  N3  UNL     1      25.122   6.024  17.854  1.00  0.00    -0.340 N 
ATOM     21  H3  UNL     1      26.127   5.937  18.004  1.00  0.00     0.164 HD
ATOM     22  H2  UNL     1      26.414   5.126  15.675  1.00  0.00     0.192 HD
BRANCH  20  23
HETATM   23  C12 UNL     1      24.296   6.495  18.942  1.00  0.00     0.153 C 
BRANCH  23  24
HETATM   24  C13 UNL     1      24.514   5.572  20.126  1.00  0.00     0.227 C 
BRANCH  24  25
HETATM   25  O3  UNL     1      25.448   6.141  21.039  1.00  0.00    -0.220 OA
BRANCH  25  26
HETATM   26  N4  UNL     1      26.712   6.505  20.695  1.00  0.00     0.004 N 
HETATM   27  O4  UNL     1      27.165   7.629  20.984  1.00  0.00    -0.511 OA
HETATM   28  O5  UNL     1      27.558   5.650  20.009  1.00  0.00    -0.511 OA
ENDBRANCH  25  26
ENDBRANCH  24  25
ENDBRANCH  23  24
ENDBRANCH  20  23
ENDBRANCH   3  17
TORSDOF 7
ENDMDL
MODEL 4
REMARK VINA RESULT: -7.785176074      1.683      2.721
REMARK  7 active torsions:
REMARK  status: ('A' for Active; 'I' for Inactive)
REMARK    1  A    between atoms: C8_8  and  C9_9 
REMARK    2  A    between atoms: C9_9  and  C10_10 
REMARK       I    between atoms: C10_10  and  N1_12 
REMARK    3  A    between atoms: N1_12  and  N2_14 
REMARK       I    between atoms: N2_14  and  C11_16 
REMARK       I    between atoms: C11_16  and  N3_18 
REMARK    4  A    between atoms: N3_18  and  C12_20 
REMARK    5  A    between atoms: C12_20  and  C13_21 
REMARK    6  A    between atoms: C13_21  and  O3_22 
REMARK    7  A    between atoms: O3_22  and  N4_23 
ROOT
HETATM    1  C10 UNL     1      25.290   5.504  13.365  1.00  0.00     0.236 C 
HETATM    2  O1  UNL     1      26.509   5.327  13.504  1.00  0.00    -0.272 OA
HETATM    3  N1  UNL     1      24.622   6.276  14.376  1.00  0.00    -0.266 N 
ATOM      4  H1  UNL     1      23.618   6.427  14.278  1.00  0.00     0.190 HD
ENDROOT
BRANCH   1   5
HETATM    5  C9  UNL     1      24.474   4.999  12.260  1.00  0.00     0.110 C 
BRANCH   5   6
HETATM    6  C8  UNL     1      23.378   5.882  11.855  1.00  0.00     0.011 C 
HETATM    7  C2  UNL     1      22.034   5.260  11.578  1.00  0.00    -0.038 C 
HETATM    8  C1  UNL     1      21.991   3.792  11.452  1.00  0.00     0.015 C 
HETATM    9  C3  UNL     1      20.969   5.677  12.574  1.00  0.00     0.015 C 
HETATM   10  C4  UNL     1      21.772   5.860  10.211  1.00  0.00     0.003 C 
HETATM   11  C5  UNL     1      23.118   5.539   9.543  1.00  0.00     0.016 C 
HETATM   12  C14 UNL     1      22.318   7.274  10.217  1.00  0.00    -0.036 C 
HETATM   13  C6  UNL     1      23.613   6.601  10.546  1.00  0.00    -0.032 C 
HETATM   14  C7  UNL     1      24.881   7.233  10.253  1.00  0.00     0.016 C 
HETATM   15  C15 UNL     1      21.762   8.252  11.163  1.00  0.00     0.016 C 
HETATM   16  C16 UNL     1      22.275   7.808   8.778  1.00  0.00     0.016 C 
ENDBRANCH   5   6
ENDBRANCH   1   5
BRANCH   3  17
HETATM   17  N2  UNL     1      25.259   6.828  15.477  1.00  0.00    -0.249 N 
HETATM   18  C11 UNL     1      25.434   6.082  16.666  1.00  0.00     0.334 C 
HETATM   19  O2  UNL     1      25.007   4.904  16.702  1.00  0.00    -0.246 OA
HETATM   20  N3  UNL     1      26.076   6.633  17.811  1.00  0.00    -0.340 N 
ATOM     21  H3  UNL     1      26.419   7.593  17.767  1.00  0.00     0.164 HD
ATOM     22  H2  UNL     1      25.606   7.786  15.429  1.00  0.00     0.192 HD
BRANCH  20  23
HETATM   23  C12 UNL     1      26.260   5.886  19.034  1.00  0.00     0.153 C 
BRANCH  23  24
HETATM   24  C13 UNL     1      26.806   6.837  20.083  1.00  0.00     0.227 C 
BRANCH  24  25
HETATM   25  O3  UNL     1      27.935   6.265  20.737  1.00  0.00    -0.220 OA
BRANCH  25  26
HETATM   26  N4  UNL     1      28.833   6.986  21.460  1.00  0.00     0.004 N 
HETATM   27  O4  UNL     1      28.979   8.210  21.279  1.00  0.00    -0.511 OA
HETATM   28  O5  UNL     1      29.628   6.399  22.430  1.00  0.00    -0.511 OA
ENDBRANCH  25  26
ENDBRANCH  24  25
ENDBRANCH  23  24
ENDBRANCH  20  23
ENDBRANCH   3  17
TORSDOF 7
ENDMDL
MODEL 5
REMARK VINA RESULT: -7.778827196      1.719      2.957
REMARK  7 active torsions:
REMARK  status: ('A' for Active; 'I' for Inactive)
REMARK    1  A    between atoms: C8_8  and  C9_9 
REMARK    2  A    between atoms: C9_9  and  C10_10 
REMARK       I    between atoms: C10_10  and  N1_12 
REMARK    3  A    between atoms: N1_12  and  N2_14 
REMARK       I    between atoms: N2_14  and  C11_16 
REMARK       I    between atoms: C11_16  and  N3_18 
REMARK    4  A    between atoms: N3_18  and  C12_20 
REMARK    5  A    between atoms: C12_20  and  C13_21 
REMARK    6  A    between atoms: C13_21  and  O3_22 
REMARK    7  A    between atoms: O3_22  and  N4_23 
ROOT
HETATM    1  C10 UNL     1      22.474   6.050  14.752  1.00  0.00     0.236 C 
HETATM    2  O1  UNL     1      21.512   5.610  15.400  1.00  0.00    -0.272 OA
HETATM    3  N1  UNL     1      23.756   6.044  15.401  1.00  0.00    -0.266 N 
ATOM      4  H1  UNL     1      24.556   6.407  14.883  1.00  0.00     0.190 HD
ENDROOT
BRANCH   1   5
HETATM    5  C9  UNL     1      22.417   6.570  13.385  1.00  0.00     0.110 C 
BRANCH   5   6
HETATM    6  C8  UNL     1      22.157   5.561  12.356  1.00  0.00     0.011 C 
HETATM    7  C2  UNL     1      23.340   4.931  11.669  1.00  0.00    -0.038 C 
HETATM    8  C1  UNL     1      24.651   5.575  11.870  1.00  0.00     0.015 C 
HETATM    9  C3  UNL     1      23.491   3.455  11.979  1.00  0.00     0.015 C 
HETATM   10  C4  UNL     1      22.921   5.149  10.228  1.00  0.00     0.003 C 
HETATM   11  C5  UNL     1      22.556   6.640  10.306  1.00  0.00     0.016 C 
HETATM   12  C14 UNL     1      21.418   4.970  10.154  1.00  0.00    -0.036 C 
HETATM   13  C6  UNL     1      21.398   6.081  11.157  1.00  0.00    -0.032 C 
HETATM   14  C7  UNL     1      20.236   6.928  11.313  1.00  0.00     0.016 C 
HETATM   15  C15 UNL     1      20.833   3.672  10.517  1.00  0.00     0.016 C 
HETATM   16  C16 UNL     1      20.952   5.420   8.762  1.00  0.00     0.016 C 
ENDBRANCH   5   6
ENDBRANCH   1   5
BRANCH   3  17
HETATM   17  N2  UNL     1      23.971   5.576  16.688  1.00  0.00    -0.249 N 
HETATM   18  C11 UNL     1      25.215   5.770  17.334  1.00  0.00     0.334 C 
HETATM   19  O2  UNL     1      26.119   6.384  16.720  1.00  0.00    -0.246 OA
HETATM   20  N3  UNL     1      25.460   5.289  18.652  1.00  0.00    -0.340 N 
ATOM     21  H3  UNL     1      24.714   4.793  19.139  1.00  0.00     0.164 HD
ATOM     22  H2  UNL     1      23.222   5.085  17.176  1.00  0.00     0.192 HD
BRANCH  20  23
HETATM   23  C12 UNL     1      26.725   5.476  19.325  1.00  0.00     0.153 C 
BRANCH  23  24
HETATM   24  C13 UNL     1      26.662   6.791  20.078  1.00  0.00     0.227 C 
BRANCH  24  25
HETATM   25  O3  UNL     1      27.343   6.686  21.325  1.00  0.00    -0.220 OA
BRANCH  25  26
HETATM   26  N4  UNL     1      28.598   7.160  21.540  1.00  0.00     0.004 N 
HETATM   27  O4  UNL     1      28.920   8.319  21.216  1.00  0.00    -0.511 OA
HETATM   28  O5  UNL     1      29.582   6.382  22.129  1.00  0.00    -0.511 OA
ENDBRANCH  25  26
ENDBRANCH  24  25
ENDBRANCH  23  24
ENDBRANCH  20  23
ENDBRANCH   3  17
TORSDOF 7
ENDMDL
