MODEL 1
REMARK VINA RESULT: -6.425162245      0.000      0.000
REMARK  8 active torsions:
REMARK  status: ('A' for Active; 'I' for Inactive)
REMARK    1  A    between atoms: C2_2  and  C3_3 
REMARK    2  A    between atoms: C3_3  and  C4_4 
REMARK    3  A    between atoms: C4_4  and  C5_5 
REMARK    4  A    between atoms: C5_5  and  O1_6 
REMARK    5  A    between atoms: O1_6  and  N1_7 
REMARK    6  A    between atoms: C8_12  and  C9_13 
REMARK    7  A    between atoms: N2_15  and  N3_16 
REMARK    8  A    between atoms: C12_22  and  N4_23 
ROOT
HETATM    1  N1  UNL     1      24.065   3.617  20.648  1.00  0.00    -0.192 N 
HETATM    2  C6  UNL     1      25.132   3.160  21.465  1.00  0.00     0.254 C 
HETATM    3  O2  UNL     1      26.243   3.784  21.483  1.00  0.00    -0.270 OA
HETATM    4  C7  UNL     1      25.062   1.965  22.342  1.00  0.00     0.179 C 
HETATM    5  S1  UNL     1      23.506   1.111  21.983  1.00  0.00    -0.146 SA
HETATM    6  C8  UNL     1      23.036   1.395  20.274  1.00  0.00     0.141 C 
HETATM    7  C12 UNL     1      23.208   2.818  19.837  1.00  0.00     0.332 C 
ENDROOT
BRANCH   6   8
HETATM    8  C9  UNL     1      23.887   0.534  19.377  1.00  0.00     0.021 A 
HETATM    9  C10 UNL     1      23.965   0.603  18.013  1.00  0.00     0.133 A 
HETATM   10  N2  UNL     1      24.770  -0.249  17.407  1.00  0.00    -0.256 N 
HETATM   11  C11 UNL     1      25.448  -1.113  18.161  1.00  0.00     0.163 A 
HETATM   12  S2  UNL     1      26.514  -2.274  17.635  1.00  0.00    -0.050 SA
HETATM   13  S3  UNL     1      24.959  -0.735  19.744  1.00  0.00    -0.061 SA
BRANCH  10  14
HETATM   14  N3  UNL     1      24.915  -0.248  15.974  1.00  0.00    -0.337 N 
ATOM     15  H32 UNL     1      24.579  -1.032  15.414  1.00  0.00     0.177 HD
ATOM     16  H31 UNL     1      25.357   0.533  15.488  1.00  0.00     0.177 HD
ENDBRANCH  10  14
ENDBRANCH   6   8
BRANCH   7  17
HETATM   17  N4  UNL     1      21.876   3.450  19.852  1.00  0.00    -0.054 N 
ATOM     18  H43 UNL     1      21.846   4.302  20.410  1.00  0.00     0.276 HD
ATOM     19  H42 UNL     1      21.623   3.869  18.958  1.00  0.00     0.276 HD
ATOM     20  H41 UNL     1      21.210   2.744  20.165  1.00  0.00     0.276 HD
ENDBRANCH   7  17
BRANCH   1  21
HETATM   21  O1  UNL     1      23.849   4.967  20.648  1.00  0.00    -0.273 OA
BRANCH  21  22
HETATM   22  C5  UNL     1      24.300   5.549  19.466  1.00  0.00     0.201 C 
BRANCH  22  23
HETATM   23  C4  UNL     1      23.571   6.853  19.199  1.00  0.00     0.029 C 
BRANCH  23  24
HETATM   24  C3  UNL     1      24.109   7.551  17.977  1.00  0.00     0.002 C 
BRANCH  24  25
HETATM   25  C2  UNL     1      23.051   8.423  17.336  1.00  0.00    -0.004 C 
HETATM   26  C1  UNL     1      23.253   8.334  15.826  1.00  0.00     0.005 C 
ENDBRANCH  24  25
ENDBRANCH  23  24
ENDBRANCH  22  23
ENDBRANCH  21  22
ENDBRANCH   1  21
TORSDOF 8
ENDMDL
MODEL 2
REMARK VINA RESULT: -6.365039084      4.067      5.473
REMARK  8 active torsions:
REMARK  status: ('A' for Active; 'I' for Inactive)
REMARK    1  A    between atoms: C2_2  and  C3_3 
REMARK    2  A    between atoms: C3_3  and  C4_4 
REMARK    3  A    between atoms: C4_4  and  C5_5 
REMARK    4  A    between atoms: C5_5  and  O1_6 
REMARK    5  A    between atoms: O1_6  and  N1_7 
REMARK    6  A    between atoms: C8_12  and  C9_13 
REMARK    7  A    between atoms: N2_15  and  N3_16 
REMARK    8  A    between atoms: C12_22  and  N4_23 
ROOT
HETATM    1  N1  UNL     1      22.969   5.707  20.270  1.00  0.00    -0.192 N 
HETATM    2  C6  UNL     1      23.696   4.505  20.071  1.00  0.00     0.254 C 
HETATM    3  O2  UNL     1      23.560   3.838  18.993  1.00  0.00    -0.270 OA
HETATM    4  C7  UNL     1      24.647   3.930  21.055  1.00  0.00     0.179 C 
HETATM    5  S1  UNL     1      24.507   4.892  22.582  1.00  0.00    -0.146 SA
HETATM    6  C8  UNL     1      22.842   5.545  22.739  1.00  0.00     0.141 C 
HETATM    7  C12 UNL     1      22.303   6.115  21.462  1.00  0.00     0.332 C 
ENDROOT
BRANCH   6   8
HETATM    8  C9  UNL     1      21.916   4.440  23.175  1.00  0.00     0.021 A 
HETATM    9  C10 UNL     1      21.350   4.288  24.411  1.00  0.00     0.133 A 
HETATM   10  N2  UNL     1      20.568   3.243  24.596  1.00  0.00    -0.256 N 
HETATM   11  C11 UNL     1      20.382   2.411  23.572  1.00  0.00     0.163 A 
HETATM   12  S2  UNL     1      19.449   1.037  23.559  1.00  0.00    -0.050 SA
HETATM   13  S3  UNL     1      21.313   3.095  22.325  1.00  0.00    -0.061 SA
BRANCH  10  14
HETATM   14  N3  UNL     1      19.929   3.004  25.865  1.00  0.00    -0.337 N 
ATOM     15  H32 UNL     1      18.986   3.348  26.048  1.00  0.00     0.177 HD
ATOM     16  H31 UNL     1      20.404   2.488  26.607  1.00  0.00     0.177 HD
ENDBRANCH  10  14
ENDBRANCH   6   8
BRANCH   7  17
HETATM   17  N4  UNL     1      22.418   7.582  21.547  1.00  0.00    -0.054 N 
ATOM     18  H43 UNL     1      22.702   8.012  20.668  1.00  0.00     0.276 HD
ATOM     19  H42 UNL     1      21.516   8.049  21.637  1.00  0.00     0.276 HD
ATOM     20  H41 UNL     1      23.054   7.792  22.317  1.00  0.00     0.276 HD
ENDBRANCH   7  17
BRANCH   1  21
HETATM   21  O1  UNL     1      22.908   6.552  19.197  1.00  0.00    -0.273 OA
BRANCH  21  22
HETATM   22  C5  UNL     1      24.179   6.810  18.688  1.00  0.00     0.201 C 
BRANCH  22  23
HETATM   23  C4  UNL     1      24.100   7.770  17.515  1.00  0.00     0.029 C 
BRANCH  23  24
HETATM   24  C3  UNL     1      22.817   8.562  17.529  1.00  0.00     0.002 C 
BRANCH  24  25
HETATM   25  C2  UNL     1      22.462   9.051  16.142  1.00  0.00    -0.004 C 
HETATM   26  C1  UNL     1      23.304   8.246  15.156  1.00  0.00     0.005 C 
ENDBRANCH  24  25
ENDBRANCH  23  24
ENDBRANCH  22  23
ENDBRANCH  21  22
ENDBRANCH   1  21
TORSDOF 8
ENDMDL
MODEL 3
REMARK VINA RESULT: -6.296065707      3.006      4.771
REMARK  8 active torsions:
REMARK  status: ('A' for Active; 'I' for Inactive)
REMARK    1  A    between atoms: C2_2  and  C3_3 
REMARK    2  A    between atoms: C3_3  and  C4_4 
REMARK    3  A    between atoms: C4_4  and  C5_5 
REMARK    4  A    between atoms: C5_5  and  O1_6 
REMARK    5  A    between atoms: O1_6  and  N1_7 
REMARK    6  A    between atoms: C8_12  and  C9_13 
REMARK    7  A    between atoms: N2_15  and  N3_16 
REMARK    8  A    between atoms: C12_22  and  N4_23 
ROOT
HETATM    1  N1  UNL     1      23.941   4.424  20.652  1.00  0.00    -0.192 N 
HETATM    2  C6  UNL     1      23.995   3.290  19.800  1.00  0.00     0.254 C 
HETATM    3  O2  UNL     1      23.535   3.352  18.613  1.00  0.00    -0.270 OA
HETATM    4  C7  UNL     1      24.569   1.978  20.189  1.00  0.00     0.179 C 
HETATM    5  S1  UNL     1      24.937   2.044  21.961  1.00  0.00    -0.146 SA
HETATM    6  C8  UNL     1      23.797   3.162  22.779  1.00  0.00     0.141 C 
HETATM    7  C12 UNL     1      23.575   4.441  22.030  1.00  0.00     0.332 C 
ENDROOT
BRANCH   6   8
HETATM    8  C9  UNL     1      22.460   2.483  22.930  1.00  0.00     0.021 A 
HETATM    9  C10 UNL     1      22.100   1.597  23.909  1.00  0.00     0.133 A 
HETATM   10  N2  UNL     1      20.877   1.105  23.862  1.00  0.00    -0.256 N 
HETATM   11  C11 UNL     1      20.080   1.503  22.870  1.00  0.00     0.163 A 
HETATM   12  S2  UNL     1      18.511   1.029  22.600  1.00  0.00    -0.050 SA
HETATM   13  S3  UNL     1      21.049   2.583  21.985  1.00  0.00    -0.061 SA
BRANCH  10  14
HETATM   14  N3  UNL     1      20.412   0.167  24.851  1.00  0.00    -0.337 N 
ATOM     15  H32 UNL     1      19.763  -0.579  24.598  1.00  0.00     0.177 HD
ATOM     16  H31 UNL     1      20.718   0.228  25.822  1.00  0.00     0.177 HD
ENDBRANCH  10  14
ENDBRANCH   6   8
BRANCH   7  17
HETATM   17  N4  UNL     1      24.385   5.484  22.685  1.00  0.00    -0.054 N 
ATOM     18  H43 UNL     1      25.347   5.511  22.349  1.00  0.00     0.276 HD
ATOM     19  H42 UNL     1      24.121   6.429  22.405  1.00  0.00     0.276 HD
ATOM     20  H41 UNL     1      24.317   5.333  23.691  1.00  0.00     0.276 HD
ENDBRANCH   7  17
BRANCH   1  21
HETATM   21  O1  UNL     1      24.276   5.619  20.077  1.00  0.00    -0.273 OA
BRANCH  21  22
HETATM   22  C5  UNL     1      23.147   6.403  19.853  1.00  0.00     0.201 C 
BRANCH  22  23
HETATM   23  C4  UNL     1      23.431   7.461  18.802  1.00  0.00     0.029 C 
BRANCH  23  24
HETATM   24  C3  UNL     1      22.218   8.312  18.528  1.00  0.00     0.002 C 
BRANCH  24  25
HETATM   25  C2  UNL     1      22.398   9.127  17.266  1.00  0.00    -0.004 C 
HETATM   26  C1  UNL     1      23.415   8.390  16.399  1.00  0.00     0.005 C 
ENDBRANCH  24  25
ENDBRANCH  23  24
ENDBRANCH  22  23
ENDBRANCH  21  22
ENDBRANCH   1  21
TORSDOF 8
ENDMDL
MODEL 4
REMARK VINA RESULT: -6.290274704      3.798      4.677
REMARK  8 active torsions:
REMARK  status: ('A' for Active; 'I' for Inactive)
REMARK    1  A    between atoms: C2_2  and  C3_3 
REMARK    2  A    between atoms: C3_3  and  C4_4 
REMARK    3  A    between atoms: C4_4  and  C5_5 
REMARK    4  A    between atoms: C5_5  and  O1_6 
REMARK    5  A    between atoms: O1_6  and  N1_7 
REMARK    6  A    between atoms: C8_12  and  C9_13 
REMARK    7  A    between atoms: N2_15  and  N3_16 
REMARK    8  A    between atoms: C12_22  and  N4_23 
ROOT
HETATM    1  N1  UNL     1      23.226   5.375  20.142  1.00  0.00    -0.192 N 
HETATM    2  C6  UNL     1      23.944   4.237  19.690  1.00  0.00     0.254 C 
HETATM    3  O2  UNL     1      23.707   3.740  18.541  1.00  0.00    -0.270 OA
HETATM    4  C7  UNL     1      24.996   3.546  20.476  1.00  0.00     0.179 C 
HETATM    5  S1  UNL     1      24.998   4.261  22.139  1.00  0.00    -0.146 SA
HETATM    6  C8  UNL     1      23.350   4.836  22.557  1.00  0.00     0.141 C 
HETATM    7  C12 UNL     1      22.678   5.579  21.442  1.00  0.00     0.332 C 
ENDROOT
BRANCH   6   8
HETATM    8  C9  UNL     1      22.486   3.653  22.905  1.00  0.00     0.021 A 
HETATM    9  C10 UNL     1      21.405   3.194  22.202  1.00  0.00     0.133 A 
HETATM   10  N2  UNL     1      20.773   2.141  22.680  1.00  0.00    -0.256 N 
HETATM   11  C11 UNL     1      21.226   1.597  23.808  1.00  0.00     0.163 A 
HETATM   12  S2  UNL     1      20.604   0.275  24.600  1.00  0.00    -0.050 SA
HETATM   13  S3  UNL     1      22.560   2.569  24.215  1.00  0.00    -0.061 SA
BRANCH  10  14
HETATM   14  N3  UNL     1      19.626   1.589  22.004  1.00  0.00    -0.337 N 
ATOM     15  H32 UNL     1      19.310   1.973  21.113  1.00  0.00     0.177 HD
ATOM     16  H31 UNL     1      19.105   0.807  22.401  1.00  0.00     0.177 HD
ENDBRANCH  10  14
ENDBRANCH   6   8
BRANCH   7  17
HETATM   17  N4  UNL     1      22.784   7.018  21.741  1.00  0.00    -0.054 N 
ATOM     18  H43 UNL     1      23.588   7.460  21.297  1.00  0.00     0.276 HD
ATOM     19  H42 UNL     1      22.060   7.575  21.286  1.00  0.00     0.276 HD
ATOM     20  H41 UNL     1      22.785   7.117  22.756  1.00  0.00     0.276 HD
ENDBRANCH   7  17
BRANCH   1  21
HETATM   21  O1  UNL     1      23.047   6.371  19.223  1.00  0.00    -0.273 OA
BRANCH  21  22
HETATM   22  C5  UNL     1      24.266   6.804  18.706  1.00  0.00     0.201 C 
BRANCH  22  23
HETATM   23  C4  UNL     1      24.049   7.681  17.487  1.00  0.00     0.029 C 
BRANCH  23  24
HETATM   24  C3  UNL     1      22.771   8.474  17.592  1.00  0.00     0.002 C 
BRANCH  24  25
HETATM   25  C2  UNL     1      22.399   9.087  16.259  1.00  0.00    -0.004 C 
HETATM   26  C1  UNL     1      23.186   8.337  15.188  1.00  0.00     0.005 C 
ENDBRANCH  24  25
ENDBRANCH  23  24
ENDBRANCH  22  23
ENDBRANCH  21  22
ENDBRANCH   1  21
TORSDOF 8
ENDMDL
MODEL 5
REMARK VINA RESULT: -6.277283059      4.343      5.160
REMARK  8 active torsions:
REMARK  status: ('A' for Active; 'I' for Inactive)
REMARK    1  A    between atoms: C2_2  and  C3_3 
REMARK    2  A    between atoms: C3_3  and  C4_4 
REMARK    3  A    between atoms: C4_4  and  C5_5 
REMARK    4  A    between atoms: C5_5  and  O1_6 
REMARK    5  A    between atoms: O1_6  and  N1_7 
REMARK    6  A    between atoms: C8_12  and  C9_13 
REMARK    7  A    between atoms: N2_15  and  N3_16 
REMARK    8  A    between atoms: C12_22  and  N4_23 
ROOT
HETATM    1  N1  UNL     1      22.868   6.683  20.864  1.00  0.00    -0.192 N 
HETATM    2  C6  UNL     1      23.658   5.679  20.246  1.00  0.00     0.254 C 
HETATM    3  O2  UNL     1      23.554   5.456  18.996  1.00  0.00    -0.270 OA
HETATM    4  C7  UNL     1      24.641   4.828  20.962  1.00  0.00     0.179 C 
HETATM    5  S1  UNL     1      24.453   5.146  22.735  1.00  0.00    -0.146 SA
HETATM    6  C8  UNL     1      22.756   5.609  23.094  1.00  0.00     0.141 C 
HETATM    7  C12 UNL     1      22.184   6.585  22.111  1.00  0.00     0.332 C 
ENDROOT
BRANCH   6   8
HETATM    8  C9  UNL     1      21.891   4.376  23.072  1.00  0.00     0.021 A 
HETATM    9  C10 UNL     1      21.675   3.548  22.004  1.00  0.00     0.133 A 
HETATM   10  N2  UNL     1      20.873   2.518  22.187  1.00  0.00    -0.256 N 
HETATM   11  C11 UNL     1      20.330   2.354  23.393  1.00  0.00     0.163 A 
HETATM   12  S2  UNL     1      19.296   1.142  23.866  1.00  0.00    -0.050 SA
HETATM   13  S3  UNL     1      20.947   3.657  24.292  1.00  0.00    -0.061 SA
BRANCH  10  14
HETATM   14  N3  UNL     1      20.590   1.593  21.119  1.00  0.00    -0.337 N 
ATOM     15  H32 UNL     1      21.344   1.095  20.646  1.00  0.00     0.177 HD
ATOM     16  H31 UNL     1      19.632   1.416  20.813  1.00  0.00     0.177 HD
ENDBRANCH  10  14
ENDBRANCH   6   8
BRANCH   7  17
HETATM   17  N4  UNL     1      22.221   7.918  22.738  1.00  0.00    -0.054 N 
ATOM     18  H43 UNL     1      22.996   8.031  23.391  1.00  0.00     0.276 HD
ATOM     19  H42 UNL     1      22.489   8.657  22.088  1.00  0.00     0.276 HD
ATOM     20  H41 UNL     1      21.310   8.076  23.168  1.00  0.00     0.276 HD
ENDBRANCH   7  17
BRANCH   1  21
HETATM   21  O1  UNL     1      22.760   7.862  20.181  1.00  0.00    -0.273 OA
BRANCH  21  22
HETATM   22  C5  UNL     1      21.453   8.077  19.750  1.00  0.00     0.201 C 
BRANCH  22  23
HETATM   23  C4  UNL     1      21.442   8.806  18.419  1.00  0.00     0.029 C 
BRANCH  23  24
HETATM   24  C3  UNL     1      22.718   8.580  17.650  1.00  0.00     0.002 C 
BRANCH  24  25
HETATM   25  C2  UNL     1      22.586   9.061  16.221  1.00  0.00    -0.004 C 
HETATM   26  C1  UNL     1      23.462   8.154  15.362  1.00  0.00     0.005 C 
ENDBRANCH  24  25
ENDBRANCH  23  24
ENDBRANCH  22  23
ENDBRANCH  21  22
ENDBRANCH   1  21
TORSDOF 8
ENDMDL
