MODEL 1
REMARK VINA RESULT: -10.747220156      0.000      0.000
REMARK  12 active torsions:
REMARK  status: ('A' for Active; 'I' for Inactive)
REMARK    1  A    between atoms: C2_2  and  C3_3 
REMARK    2  A    between atoms: C3_3  and  C4_4 
REMARK    3  A    between atoms: C6_6  and  N1_7 
REMARK    4  A    between atoms: N1_7  and  C7_9 
REMARK    5  A    between atoms: C10_12  and  C11_13 
REMARK    6  A    between atoms: C11_13  and  C12_14 
REMARK    7  A    between atoms: N3_22  and  C16_24 
REMARK    8  A    between atoms: C19_27  and  N4_28 
REMARK       I    between atoms: N4_28  and  C20_30 
REMARK    9  A    between atoms: C20_30  and  C21_32 
REMARK   10  A    between atoms: C21_32  and  C22_33 
REMARK   11  A    between atoms: C22_33  and  C23_34 
REMARK       I    between atoms: C23_34  and  N5_36 
REMARK   12  A    between atoms: N5_36  and  C24_38 
ROOT
HETATM    1  C4  UNL     1      -5.421  16.794  27.926  1.00  0.00     0.030 A 
HETATM    2  C5  UNL     1      -6.092  16.096  26.953  1.00  0.00     0.074 A 
HETATM    3  C6  UNL     1      -7.303  15.529  27.265  1.00  0.00     0.123 A 
HETATM    4  N2  UNL     1      -7.828  15.668  28.520  1.00  0.00    -0.176 N 
ATOM      5  H2  UNL     1      -8.734  15.255  28.744  1.00  0.00     0.186 HD
HETATM    6  C15 UNL     1      -7.109  16.392  29.515  1.00  0.00     0.684 A 
HETATM    7  N3  UNL     1      -7.595  16.264  30.627  1.00  0.00    -0.192 N 
ATOM      8  H3  UNL     1      -7.008  16.841  31.229  1.00  0.00     0.184 HD
HETATM    9  N7  UNL     1      -5.960  16.900  29.135  1.00  0.00    -0.195 N 
ATOM     10  H7  UNL     1      -5.433  17.426  29.832  1.00  0.00     0.184 HD
ENDROOT
BRANCH   7  11
HETATM   11  C16 UNL     1      -8.500  15.751  31.441  1.00  0.00     0.049 A 
HETATM   12  C17 UNL     1      -9.842  15.719  31.192  1.00  0.00     0.032 A 
HETATM   13  C18 UNL     1     -10.772  14.947  31.933  1.00  0.00     0.032 A 
HETATM   14  C19 UNL     1     -10.231  14.179  32.959  1.00  0.00     0.035 A 
HETATM   15  C30 UNL     1      -8.939  14.184  33.262  1.00  0.00     0.032 A 
HETATM   16  C31 UNL     1      -8.039  14.953  32.533  1.00  0.00     0.032 A 
BRANCH  14  17
HETATM   17  N4  UNL     1     -11.116  12.947  33.270  1.00  0.00    -0.323 N 
HETATM   18  C20 UNL     1     -11.984  13.093  34.259  1.00  0.00     0.253 C 
HETATM   19  O3  UNL     1     -12.173  14.054  35.015  1.00  0.00    -0.268 OA
ATOM     20  H4  UNL     1     -11.035  12.075  32.746  1.00  0.00     0.169 HD
BRANCH  18  21
HETATM   21  C21 UNL     1     -12.897  11.859  34.508  1.00  0.00     0.135 C 
BRANCH  21  22
HETATM   22  C22 UNL     1     -13.413  11.297  33.523  1.00  0.00    -0.050 C 
BRANCH  22  23
HETATM   23  C23 UNL     1     -14.003  10.663  32.385  1.00  0.00     0.294 C 
HETATM   24  O4  UNL     1     -15.158  10.432  32.128  1.00  0.00    -0.258 OA
HETATM   25  N5  UNL     1     -12.961  10.256  31.402  1.00  0.00    -0.303 N 
ATOM     26  H5  UNL     1     -12.391   9.413  31.482  1.00  0.00     0.171 HD
BRANCH  25  27
HETATM   27  C24 UNL     1     -12.875  11.112  30.434  1.00  0.00     0.108 A 
HETATM   28  C25 UNL     1     -12.223  10.649  29.266  1.00  0.00     0.049 A 
HETATM   29  C26 UNL     1     -12.126  11.511  28.202  1.00  0.00     0.012 A 
HETATM   30  C27 UNL     1     -12.688  12.792  28.332  1.00  0.00    -0.046 A 
HETATM   31  C28 UNL     1     -12.574  13.713  27.168  1.00  0.00     0.049 C 
HETATM   32  C29 UNL     1     -13.314  13.216  29.465  1.00  0.00     0.096 A 
HETATM   33  N6  UNL     1     -13.385  12.354  30.495  1.00  0.00    -0.352 N 
ATOM     34  H6  UNL     1     -13.844  12.654  31.355  1.00  0.00     0.166 HD
ENDBRANCH  25  27
ENDBRANCH  22  23
ENDBRANCH  21  22
ENDBRANCH  18  21
ENDBRANCH  14  17
ENDBRANCH   7  11
BRANCH   3  35
HETATM   35  N1  UNL     1      -7.853  14.688  26.504  1.00  0.00    -0.342 N 
ATOM     36  H1  UNL     1      -7.869  13.747  26.899  1.00  0.00     0.167 HD
BRANCH  35  37
HETATM   37  C7  UNL     1      -8.431  14.753  25.275  1.00  0.00     0.033 A 
HETATM   38  C8  UNL     1      -9.775  15.093  25.085  1.00  0.00     0.030 A 
HETATM   39  C9  UNL     1     -10.299  15.285  23.819  1.00  0.00     0.010 A 
HETATM   40  C10 UNL     1      -9.539  15.167  22.690  1.00  0.00    -0.048 A 
HETATM   41  C13 UNL     1      -8.197  14.827  22.863  1.00  0.00     0.010 A 
HETATM   42  C14 UNL     1      -7.674  14.631  24.103  1.00  0.00     0.030 A 
BRANCH  40  43
HETATM   43  C11 UNL     1     -10.095  15.485  21.360  1.00  0.00     0.151 C 
BRANCH  43  44
HETATM   44  C12 UNL     1      -9.221  16.097  20.393  1.00  0.00     0.176 C 
HETATM   45  O1  UNL     1      -8.771  15.211  19.438  1.00  0.00    -0.648 OA
HETATM   46  O2  UNL     1      -8.751  17.299  20.257  1.00  0.00    -0.648 OA
ENDBRANCH  43  44
ENDBRANCH  40  43
ENDBRANCH  35  37
ENDBRANCH   3  35
BRANCH   1  47
HETATM   47  C3  UNL     1      -4.060  17.335  27.676  1.00  0.00     0.057 C 
BRANCH  47  48
HETATM   48  C2  UNL     1      -3.969  17.806  26.235  1.00  0.00     0.002 C 
HETATM   49  C1  UNL     1      -4.280  19.273  26.129  1.00  0.00     0.005 C 
ENDBRANCH  47  48
ENDBRANCH   1  47
TORSDOF 12
ENDMDL
MODEL 2
REMARK VINA RESULT: -10.683839208      3.123     11.339
REMARK  12 active torsions:
REMARK  status: ('A' for Active; 'I' for Inactive)
REMARK    1  A    between atoms: C2_2  and  C3_3 
REMARK    2  A    between atoms: C3_3  and  C4_4 
REMARK    3  A    between atoms: C6_6  and  N1_7 
REMARK    4  A    between atoms: N1_7  and  C7_9 
REMARK    5  A    between atoms: C10_12  and  C11_13 
REMARK    6  A    between atoms: C11_13  and  C12_14 
REMARK    7  A    between atoms: N3_22  and  C16_24 
REMARK    8  A    between atoms: C19_27  and  N4_28 
REMARK       I    between atoms: N4_28  and  C20_30 
REMARK    9  A    between atoms: C20_30  and  C21_32 
REMARK   10  A    between atoms: C21_32  and  C22_33 
REMARK   11  A    between atoms: C22_33  and  C23_34 
REMARK       I    between atoms: C23_34  and  N5_36 
REMARK   12  A    between atoms: N5_36  and  C24_38 
ROOT
HETATM    1  C4  UNL     1     -11.716  13.233  26.460  1.00  0.00     0.030 A 
HETATM    2  C5  UNL     1     -10.815  13.391  27.483  1.00  0.00     0.074 A 
HETATM    3  C6  UNL     1      -9.689  14.143  27.260  1.00  0.00     0.123 A 
HETATM    4  N2  UNL     1      -9.480  14.729  26.042  1.00  0.00    -0.176 N 
ATOM      5  H2  UNL     1      -8.647  15.296  25.884  1.00  0.00     0.186 HD
HETATM    6  C15 UNL     1     -10.427  14.544  24.993  1.00  0.00     0.684 A 
HETATM    7  N3  UNL     1     -10.016  14.950  23.918  1.00  0.00    -0.192 N 
ATOM      8  H3  UNL     1     -10.786  14.783  23.271  1.00  0.00     0.184 HD
HETATM    9  N7  UNL     1     -11.473  13.811  25.289  1.00  0.00    -0.195 N 
ATOM     10  H7  UNL     1     -12.165  13.672  24.552  1.00  0.00     0.184 HD
ENDROOT
BRANCH   7  11
HETATM   11  C16 UNL     1      -9.072  15.496  23.172  1.00  0.00     0.049 A 
HETATM   12  C17 UNL     1      -8.408  16.649  23.479  1.00  0.00     0.032 A 
HETATM   13  C18 UNL     1      -7.232  17.090  22.821  1.00  0.00     0.032 A 
HETATM   14  C19 UNL     1      -6.755  16.252  21.819  1.00  0.00     0.035 A 
HETATM   15  C30 UNL     1      -7.367  15.130  21.463  1.00  0.00     0.032 A 
HETATM   16  C31 UNL     1      -8.525  14.714  22.109  1.00  0.00     0.032 A 
BRANCH  14  17
HETATM   17  N4  UNL     1      -5.229  16.425  21.615  1.00  0.00    -0.323 N 
HETATM   18  C20 UNL     1      -4.853  16.898  20.437  1.00  0.00     0.253 C 
HETATM   19  O3  UNL     1      -5.531  17.184  19.442  1.00  0.00    -0.268 OA
ATOM     20  H4  UNL     1      -4.556  16.190  22.344  1.00  0.00     0.169 HD
BRANCH  18  21
HETATM   21  C21 UNL     1      -3.321  17.115  20.285  1.00  0.00     0.135 C 
BRANCH  21  22
HETATM   22  C22 UNL     1      -2.668  17.448  21.293  1.00  0.00    -0.050 C 
BRANCH  22  23
HETATM   23  C23 UNL     1      -1.929  17.835  22.454  1.00  0.00     0.294 C 
HETATM   24  O4  UNL     1      -1.277  18.826  22.673  1.00  0.00    -0.258 OA
HETATM   25  N5  UNL     1      -2.033  16.802  23.521  1.00  0.00    -0.303 N 
ATOM     26  H5  UNL     1      -1.482  15.945  23.549  1.00  0.00     0.171 HD
BRANCH  25  27
HETATM   27  C24 UNL     1      -2.916  17.137  24.408  1.00  0.00     0.108 A 
HETATM   28  C25 UNL     1      -3.617  16.064  25.008  1.00  0.00     0.049 A 
HETATM   29  C26 UNL     1      -4.547  16.364  25.971  1.00  0.00     0.012 A 
HETATM   30  C27 UNL     1      -4.738  17.714  26.312  1.00  0.00    -0.046 A 
HETATM   31  C28 UNL     1      -5.751  18.021  27.360  1.00  0.00     0.049 C 
HETATM   32  C29 UNL     1      -4.050  18.731  25.724  1.00  0.00     0.096 A 
HETATM   33  N6  UNL     1      -3.153  18.408  24.776  1.00  0.00    -0.352 N 
ATOM     34  H6  UNL     1      -2.632  19.156  24.318  1.00  0.00     0.166 HD
ENDBRANCH  25  27
ENDBRANCH  22  23
ENDBRANCH  21  22
ENDBRANCH  18  21
ENDBRANCH  14  17
ENDBRANCH   7  11
BRANCH   3  35
HETATM   35  N1  UNL     1      -8.719  14.134  28.066  1.00  0.00    -0.342 N 
ATOM     36  H1  UNL     1      -7.904  13.641  27.698  1.00  0.00     0.167 HD
BRANCH  35  37
HETATM   37  C7  UNL     1      -8.515  14.632  29.313  1.00  0.00     0.033 A 
HETATM   38  C8  UNL     1      -7.867  15.850  29.548  1.00  0.00     0.030 A 
HETATM   39  C9  UNL     1      -7.797  16.398  30.816  1.00  0.00     0.010 A 
HETATM   40  C10 UNL     1      -8.360  15.792  31.904  1.00  0.00    -0.048 A 
HETATM   41  C13 UNL     1      -9.008  14.577  31.686  1.00  0.00     0.010 A 
HETATM   42  C14 UNL     1      -9.079  14.028  30.444  1.00  0.00     0.030 A 
BRANCH  40  43
HETATM   43  C11 UNL     1      -8.365  16.451  33.225  1.00  0.00     0.151 C 
BRANCH  43  44
HETATM   44  C12 UNL     1      -9.332  16.007  34.196  1.00  0.00     0.176 C 
HETATM   45  O1  UNL     1      -8.808  15.118  35.109  1.00  0.00    -0.648 OA
HETATM   46  O2  UNL     1     -10.595  16.251  34.365  1.00  0.00    -0.648 OA
ENDBRANCH  43  44
ENDBRANCH  40  43
ENDBRANCH  35  37
ENDBRANCH   3  35
BRANCH   1  47
HETATM   47  C3  UNL     1     -12.896  12.342  26.611  1.00  0.00     0.057 C 
BRANCH  47  48
HETATM   48  C2  UNL     1     -13.376  12.393  28.051  1.00  0.00     0.002 C 
HETATM   49  C1  UNL     1     -14.445  13.436  28.225  1.00  0.00     0.005 C 
ENDBRANCH  47  48
ENDBRANCH   1  47
TORSDOF 12
ENDMDL
MODEL 3
REMARK VINA RESULT: -10.588434975      2.988     11.081
REMARK  12 active torsions:
REMARK  status: ('A' for Active; 'I' for Inactive)
REMARK    1  A    between atoms: C2_2  and  C3_3 
REMARK    2  A    between atoms: C3_3  and  C4_4 
REMARK    3  A    between atoms: C6_6  and  N1_7 
REMARK    4  A    between atoms: N1_7  and  C7_9 
REMARK    5  A    between atoms: C10_12  and  C11_13 
REMARK    6  A    between atoms: C11_13  and  C12_14 
REMARK    7  A    between atoms: N3_22  and  C16_24 
REMARK    8  A    between atoms: C19_27  and  N4_28 
REMARK       I    between atoms: N4_28  and  C20_30 
REMARK    9  A    between atoms: C20_30  and  C21_32 
REMARK   10  A    between atoms: C21_32  and  C22_33 
REMARK   11  A    between atoms: C22_33  and  C23_34 
REMARK       I    between atoms: C23_34  and  N5_36 
REMARK   12  A    between atoms: N5_36  and  C24_38 
ROOT
HETATM    1  C4  UNL     1     -12.577  12.948  26.786  1.00  0.00     0.030 A 
HETATM    2  C5  UNL     1     -12.435  13.917  27.747  1.00  0.00     0.074 A 
HETATM    3  C6  UNL     1     -11.716  15.047  27.444  1.00  0.00     0.123 A 
HETATM    4  N2  UNL     1     -11.162  15.200  26.203  1.00  0.00    -0.176 N 
ATOM      5  H2  UNL     1     -10.638  16.046  25.978  1.00  0.00     0.186 HD
HETATM    6  C15 UNL     1     -11.318  14.176  25.224  1.00  0.00     0.684 A 
HETATM    7  N3  UNL     1     -10.610  14.355  24.246  1.00  0.00    -0.192 N 
ATOM      8  H3  UNL     1     -10.833  13.578  23.625  1.00  0.00     0.184 HD
HETATM    9  N7  UNL     1     -12.018  13.131  25.596  1.00  0.00    -0.195 N 
ATOM     10  H7  UNL     1     -12.144  12.389  24.907  1.00  0.00     0.184 HD
ENDROOT
BRANCH   7  11
HETATM   11  C16 UNL     1      -9.700  15.052  23.590  1.00  0.00     0.049 A 
HETATM   12  C17 UNL     1      -9.041  16.138  24.090  1.00  0.00     0.032 A 
HETATM   13  C18 UNL     1      -7.893  16.719  23.493  1.00  0.00     0.032 A 
HETATM   14  C19 UNL     1      -7.440  16.096  22.334  1.00  0.00     0.035 A 
HETATM   15  C30 UNL     1      -8.049  15.050  21.790  1.00  0.00     0.032 A 
HETATM   16  C31 UNL     1      -9.179  14.497  22.381  1.00  0.00     0.032 A 
BRANCH  14  17
HETATM   17  N4  UNL     1      -5.925  16.335  22.120  1.00  0.00    -0.323 N 
HETATM   18  C20 UNL     1      -5.593  17.006  21.029  1.00  0.00     0.253 C 
HETATM   19  O3  UNL     1      -6.307  17.441  20.116  1.00  0.00    -0.268 OA
ATOM     20  H4  UNL     1      -5.225  15.994  22.780  1.00  0.00     0.169 HD
BRANCH  18  21
HETATM   21  C21 UNL     1      -4.071  17.280  20.873  1.00  0.00     0.135 C 
BRANCH  21  22
HETATM   22  C22 UNL     1      -3.413  17.560  21.893  1.00  0.00    -0.050 C 
BRANCH  22  23
HETATM   23  C23 UNL     1      -2.646  17.877  23.058  1.00  0.00     0.294 C 
HETATM   24  O4  UNL     1      -1.971  18.843  23.313  1.00  0.00    -0.258 OA
HETATM   25  N5  UNL     1      -2.751  16.795  24.075  1.00  0.00    -0.303 N 
ATOM     26  H5  UNL     1      -2.216  15.927  24.052  1.00  0.00     0.171 HD
BRANCH  25  27
HETATM   27  C24 UNL     1      -3.611  17.103  24.994  1.00  0.00     0.108 A 
HETATM   28  C25 UNL     1      -4.525  16.080  25.343  1.00  0.00     0.049 A 
HETATM   29  C26 UNL     1      -5.441  16.348  26.328  1.00  0.00     0.012 A 
HETATM   30  C27 UNL     1      -5.411  17.613  26.938  1.00  0.00    -0.046 A 
HETATM   31  C28 UNL     1      -6.412  17.886  28.005  1.00  0.00     0.049 C 
HETATM   32  C29 UNL     1      -4.521  18.583  26.588  1.00  0.00     0.096 A 
HETATM   33  N6  UNL     1      -3.641  18.296  25.613  1.00  0.00    -0.352 N 
ATOM     34  H6  UNL     1      -2.970  19.011  25.331  1.00  0.00     0.166 HD
ENDBRANCH  25  27
ENDBRANCH  22  23
ENDBRANCH  21  22
ENDBRANCH  18  21
ENDBRANCH  14  17
ENDBRANCH   7  11
BRANCH   3  35
HETATM   35  N1  UNL     1     -11.351  15.856  28.339  1.00  0.00    -0.342 N 
ATOM     36  H1  UNL     1     -11.736  16.792  28.208  1.00  0.00     0.167 HD
BRANCH  35  37
HETATM   37  C7  UNL     1     -10.559  15.762  29.439  1.00  0.00     0.033 A 
HETATM   38  C8  UNL     1      -9.388  16.512  29.599  1.00  0.00     0.030 A 
HETATM   39  C9  UNL     1      -8.678  16.499  30.785  1.00  0.00     0.010 A 
HETATM   40  C10 UNL     1      -9.079  15.766  31.867  1.00  0.00    -0.048 A 
HETATM   41  C13 UNL     1     -10.244  15.012  31.723  1.00  0.00     0.010 A 
HETATM   42  C14 UNL     1     -10.947  15.016  30.559  1.00  0.00     0.030 A 
BRANCH  40  43
HETATM   43  C11 UNL     1      -8.365  15.855  33.155  1.00  0.00     0.151 C 
BRANCH  43  44
HETATM   44  C12 UNL     1      -9.111  15.596  34.360  1.00  0.00     0.176 C 
HETATM   45  O1  UNL     1     -10.227  16.394  34.484  1.00  0.00    -0.648 OA
HETATM   46  O2  UNL     1      -8.929  14.788  35.359  1.00  0.00    -0.648 OA
ENDBRANCH  43  44
ENDBRANCH  40  43
ENDBRANCH  35  37
ENDBRANCH   3  35
BRANCH   1  47
HETATM   47  C3  UNL     1     -13.251  11.660  27.094  1.00  0.00     0.057 C 
BRANCH  47  48
HETATM   48  C2  UNL     1     -13.506  11.577  28.588  1.00  0.00     0.002 C 
HETATM   49  C1  UNL     1     -12.489  10.694  29.258  1.00  0.00     0.005 C 
ENDBRANCH  47  48
ENDBRANCH   1  47
TORSDOF 12
ENDMDL
MODEL 4
REMARK VINA RESULT: -10.493873824      1.190      1.398
REMARK  12 active torsions:
REMARK  status: ('A' for Active; 'I' for Inactive)
REMARK    1  A    between atoms: C2_2  and  C3_3 
REMARK    2  A    between atoms: C3_3  and  C4_4 
REMARK    3  A    between atoms: C6_6  and  N1_7 
REMARK    4  A    between atoms: N1_7  and  C7_9 
REMARK    5  A    between atoms: C10_12  and  C11_13 
REMARK    6  A    between atoms: C11_13  and  C12_14 
REMARK    7  A    between atoms: N3_22  and  C16_24 
REMARK    8  A    between atoms: C19_27  and  N4_28 
REMARK       I    between atoms: N4_28  and  C20_30 
REMARK    9  A    between atoms: C20_30  and  C21_32 
REMARK   10  A    between atoms: C21_32  and  C22_33 
REMARK   11  A    between atoms: C22_33  and  C23_34 
REMARK       I    between atoms: C23_34  and  N5_36 
REMARK   12  A    between atoms: N5_36  and  C24_38 
ROOT
HETATM    1  C4  UNL     1      -4.908  17.358  27.901  1.00  0.00     0.030 A 
HETATM    2  C5  UNL     1      -5.844  17.727  26.967  1.00  0.00     0.074 A 
HETATM    3  C6  UNL     1      -7.173  17.669  27.305  1.00  0.00     0.123 A 
HETATM    4  N2  UNL     1      -7.549  17.258  28.555  1.00  0.00    -0.176 N 
ATOM      5  H2  UNL     1      -8.538  17.227  28.806  1.00  0.00     0.186 HD
HETATM    6  C15 UNL     1      -6.559  16.873  29.505  1.00  0.00     0.684 A 
HETATM    7  N3  UNL     1      -7.042  16.345  30.492  1.00  0.00    -0.192 N 
ATOM      8  H3  UNL     1      -6.241  16.144  31.091  1.00  0.00     0.184 HD
HETATM    9  N7  UNL     1      -5.314  16.958  29.100  1.00  0.00    -0.195 N 
ATOM     10  H7  UNL     1      -4.591  16.692  29.768  1.00  0.00     0.184 HD
ENDROOT
BRANCH   7  11
HETATM   11  C16 UNL     1      -8.083  15.901  31.174  1.00  0.00     0.049 A 
HETATM   12  C17 UNL     1      -9.372  15.921  30.727  1.00  0.00     0.032 A 
HETATM   13  C18 UNL     1     -10.440  15.217  31.340  1.00  0.00     0.032 A 
HETATM   14  C19 UNL     1     -10.096  14.461  32.456  1.00  0.00     0.035 A 
HETATM   15  C30 UNL     1      -8.866  14.418  32.949  1.00  0.00     0.032 A 
HETATM   16  C31 UNL     1      -7.830  15.120  32.344  1.00  0.00     0.032 A 
BRANCH  14  17
HETATM   17  N4  UNL     1     -11.078  13.281  32.663  1.00  0.00    -0.323 N 
HETATM   18  C20 UNL     1     -11.867  13.364  33.722  1.00  0.00     0.253 C 
HETATM   19  O3  UNL     1     -11.916  14.223  34.612  1.00  0.00    -0.268 OA
ATOM     20  H4  UNL     1     -11.114  12.487  32.022  1.00  0.00     0.169 HD
BRANCH  18  21
HETATM   21  C21 UNL     1     -12.881  12.194  33.870  1.00  0.00     0.135 C 
BRANCH  21  22
HETATM   22  C22 UNL     1     -13.372  11.702  32.835  1.00  0.00    -0.050 C 
BRANCH  22  23
HETATM   23  C23 UNL     1     -13.933  11.126  31.653  1.00  0.00     0.294 C 
HETATM   24  O4  UNL     1     -15.075  10.850  31.383  1.00  0.00    -0.258 OA
HETATM   25  N5  UNL     1     -12.877  10.856  30.639  1.00  0.00    -0.303 N 
ATOM     26  H5  UNL     1     -12.260  10.044  30.651  1.00  0.00     0.171 HD
BRANCH  25  27
HETATM   27  C24 UNL     1     -12.846  11.788  29.740  1.00  0.00     0.108 A 
HETATM   28  C25 UNL     1     -11.556  12.221  29.353  1.00  0.00     0.049 A 
HETATM   29  C26 UNL     1     -11.468  13.190  28.386  1.00  0.00     0.012 A 
HETATM   30  C27 UNL     1     -12.661  13.685  27.831  1.00  0.00    -0.046 A 
HETATM   31  C28 UNL     1     -12.547  14.736  26.783  1.00  0.00     0.049 C 
HETATM   32  C29 UNL     1     -13.893  13.252  28.217  1.00  0.00     0.096 A 
HETATM   33  N6  UNL     1     -13.949  12.308  29.173  1.00  0.00    -0.352 N 
ATOM     34  H6  UNL     1     -14.862  11.975  29.481  1.00  0.00     0.166 HD
ENDBRANCH  25  27
ENDBRANCH  22  23
ENDBRANCH  21  22
ENDBRANCH  18  21
ENDBRANCH  14  17
ENDBRANCH   7  11
BRANCH   3  35
HETATM   35  N1  UNL     1      -8.081  17.763  26.435  1.00  0.00    -0.342 N 
ATOM     36  H1  UNL     1      -8.718  18.541  26.611  1.00  0.00     0.167 HD
BRANCH  35  37
HETATM   37  C7  UNL     1      -8.400  17.063  25.316  1.00  0.00     0.033 A 
HETATM   38  C8  UNL     1      -9.616  16.386  25.165  1.00  0.00     0.030 A 
HETATM   39  C9  UNL     1      -9.971  15.798  23.964  1.00  0.00     0.010 A 
HETATM   40  C10 UNL     1      -9.167  15.852  22.860  1.00  0.00    -0.048 A 
HETATM   41  C13 UNL     1      -7.952  16.523  22.995  1.00  0.00     0.010 A 
HETATM   42  C14 UNL     1      -7.592  17.100  24.173  1.00  0.00     0.030 A 
BRANCH  40  43
HETATM   43  C11 UNL     1      -9.618  15.313  21.562  1.00  0.00     0.151 C 
BRANCH  43  44
HETATM   44  C12 UNL     1      -8.911  15.727  20.378  1.00  0.00     0.176 C 
HETATM   45  O1  UNL     1      -9.058  17.070  20.104  1.00  0.00    -0.648 OA
HETATM   46  O2  UNL     1      -8.192  15.089  19.506  1.00  0.00    -0.648 OA
ENDBRANCH  43  44
ENDBRANCH  40  43
ENDBRANCH  35  37
ENDBRANCH   3  35
BRANCH   1  47
HETATM   47  C3  UNL     1      -3.465  17.299  27.553  1.00  0.00     0.057 C 
BRANCH  47  48
HETATM   48  C2  UNL     1      -3.312  17.384  26.045  1.00  0.00     0.002 C 
HETATM   49  C1  UNL     1      -3.159  16.014  25.443  1.00  0.00     0.005 C 
ENDBRANCH  47  48
ENDBRANCH   1  47
TORSDOF 12
ENDMDL
MODEL 5
REMARK VINA RESULT: -10.267113503      3.020      5.651
REMARK  12 active torsions:
REMARK  status: ('A' for Active; 'I' for Inactive)
REMARK    1  A    between atoms: C2_2  and  C3_3 
REMARK    2  A    between atoms: C3_3  and  C4_4 
REMARK    3  A    between atoms: C6_6  and  N1_7 
REMARK    4  A    between atoms: N1_7  and  C7_9 
REMARK    5  A    between atoms: C10_12  and  C11_13 
REMARK    6  A    between atoms: C11_13  and  C12_14 
REMARK    7  A    between atoms: N3_22  and  C16_24 
REMARK    8  A    between atoms: C19_27  and  N4_28 
REMARK       I    between atoms: N4_28  and  C20_30 
REMARK    9  A    between atoms: C20_30  and  C21_32 
REMARK   10  A    between atoms: C21_32  and  C22_33 
REMARK   11  A    between atoms: C22_33  and  C23_34 
REMARK       I    between atoms: C23_34  and  N5_36 
REMARK   12  A    between atoms: N5_36  and  C24_38 
ROOT
HETATM    1  C4  UNL     1      -4.940  17.048  21.539  1.00  0.00     0.030 A 
HETATM    2  C5  UNL     1      -6.214  16.610  21.281  1.00  0.00     0.074 A 
HETATM    3  C6  UNL     1      -7.057  16.373  22.339  1.00  0.00     0.123 A 
HETATM    4  N2  UNL     1      -6.630  16.580  23.622  1.00  0.00    -0.176 N 
ATOM      5  H2  UNL     1      -7.263  16.413  24.405  1.00  0.00     0.186 HD
HETATM    6  C15 UNL     1      -5.299  17.030  23.864  1.00  0.00     0.684 A 
HETATM    7  N3  UNL     1      -4.997  16.977  25.045  1.00  0.00    -0.192 N 
ATOM      8  H3  UNL     1      -4.046  17.343  25.081  1.00  0.00     0.184 HD
HETATM    9  N7  UNL     1      -4.560  17.231  22.798  1.00  0.00    -0.195 N 
ATOM     10  H7  UNL     1      -3.606  17.558  22.951  1.00  0.00     0.184 HD
ENDROOT
BRANCH   7  11
HETATM   11  C16 UNL     1      -5.286  16.684  26.300  1.00  0.00     0.049 A 
HETATM   12  C17 UNL     1      -4.519  17.027  27.376  1.00  0.00     0.032 A 
HETATM   13  C18 UNL     1      -4.953  16.942  28.724  1.00  0.00     0.032 A 
HETATM   14  C19 UNL     1      -6.255  16.490  28.907  1.00  0.00     0.035 A 
HETATM   15  C30 UNL     1      -7.041  16.124  27.903  1.00  0.00     0.032 A 
HETATM   16  C31 UNL     1      -6.601  16.202  26.587  1.00  0.00     0.032 A 
BRANCH  14  17
HETATM   17  N4  UNL     1      -6.854  17.015  30.235  1.00  0.00    -0.323 N 
HETATM   18  C20 UNL     1      -7.527  16.131  30.956  1.00  0.00     0.253 C 
HETATM   19  O3  UNL     1      -7.797  14.948  30.712  1.00  0.00    -0.268 OA
ATOM     20  H4  UNL     1      -6.737  17.982  30.537  1.00  0.00     0.169 HD
BRANCH  18  21
HETATM   21  C21 UNL     1      -8.066  16.673  32.310  1.00  0.00     0.135 C 
BRANCH  21  22
HETATM   22  C22 UNL     1      -9.008  16.068  32.856  1.00  0.00    -0.050 C 
BRANCH  22  23
HETATM   23  C23 UNL     1     -10.088  15.363  33.474  1.00  0.00     0.294 C 
HETATM   24  O4  UNL     1     -10.835  15.696  34.360  1.00  0.00    -0.258 OA
HETATM   25  N5  UNL     1     -10.257  14.012  32.871  1.00  0.00    -0.303 N 
ATOM     26  H5  UNL     1      -9.689  13.199  33.109  1.00  0.00     0.171 HD
BRANCH  25  27
HETATM   27  C24 UNL     1     -11.220  14.007  32.005  1.00  0.00     0.108 A 
HETATM   28  C25 UNL     1     -10.822  13.919  30.649  1.00  0.00     0.049 A 
HETATM   29  C26 UNL     1     -11.806  13.886  29.693  1.00  0.00     0.012 A 
HETATM   30  C27 UNL     1     -13.145  13.929  30.117  1.00  0.00    -0.046 A 
HETATM   31  C28 UNL     1     -14.199  13.892  29.066  1.00  0.00     0.049 C 
HETATM   32  C29 UNL     1     -13.506  14.011  31.427  1.00  0.00     0.096 A 
HETATM   33  N6  UNL     1     -12.521  14.052  32.341  1.00  0.00    -0.352 N 
ATOM     34  H6  UNL     1     -12.769  14.120  33.328  1.00  0.00     0.166 HD
ENDBRANCH  25  27
ENDBRANCH  22  23
ENDBRANCH  21  22
ENDBRANCH  18  21
ENDBRANCH  14  17
ENDBRANCH   7  11
BRANCH   3  35
HETATM   35  N1  UNL     1      -8.144  15.752  22.190  1.00  0.00    -0.342 N 
ATOM     36  H1  UNL     1      -8.412  15.652  21.211  1.00  0.00     0.167 HD
BRANCH  35  37
HETATM   37  C7  UNL     1      -9.039  15.185  23.042  1.00  0.00     0.033 A 
HETATM   38  C8  UNL     1      -8.660  14.548  24.229  1.00  0.00     0.030 A 
HETATM   39  C9  UNL     1      -9.599  14.104  25.141  1.00  0.00     0.010 A 
HETATM   40  C10 UNL     1     -10.942  14.268  24.945  1.00  0.00    -0.048 A 
HETATM   41  C13 UNL     1     -11.335  14.900  23.766  1.00  0.00     0.010 A 
HETATM   42  C14 UNL     1     -10.419  15.337  22.860  1.00  0.00     0.030 A 
BRANCH  40  43
HETATM   43  C11 UNL     1     -11.916  13.884  25.985  1.00  0.00     0.151 C 
BRANCH  43  44
HETATM   44  C12 UNL     1     -12.081  12.482  26.269  1.00  0.00     0.176 C 
HETATM   45  O1  UNL     1     -13.126  11.911  25.576  1.00  0.00    -0.648 OA
HETATM   46  O2  UNL     1     -11.467  11.660  27.064  1.00  0.00    -0.648 OA
ENDBRANCH  43  44
ENDBRANCH  40  43
ENDBRANCH  35  37
ENDBRANCH   3  35
BRANCH   1  47
HETATM   47  C3  UNL     1      -3.953  17.217  20.441  1.00  0.00     0.057 C 
BRANCH  47  48
HETATM   48  C2  UNL     1      -4.483  16.540  19.189  1.00  0.00     0.002 C 
HETATM   49  C1  UNL     1      -3.646  15.343  18.830  1.00  0.00     0.005 C 
ENDBRANCH  47  48
ENDBRANCH   1  47
TORSDOF 12
ENDMDL
