MODEL 1
REMARK VINA RESULT: -8.351543703      0.000      0.000
REMARK  4 active torsions:
REMARK  status: ('A' for Active; 'I' for Inactive)
REMARK    1  A    between atoms: C3_5  and  C4_6 
REMARK    2  A    between atoms: C8_10  and  N2_11 
REMARK    3  A    between atoms: N2_11  and  C9_13 
REMARK    4  A    between atoms: C9_13  and  C10_14 
ROOT
HETATM    1  C4  UNL     1      22.154 -10.835  -3.299  1.00  0.00     0.079 A 
HETATM    2  C5  UNL     1      22.763 -11.573  -2.317  1.00  0.00     0.033 A 
HETATM    3  C6  UNL     1      24.081 -11.938  -2.491  1.00  0.00     0.006 A 
HETATM    4  C7  UNL     1      24.786 -11.578  -3.625  1.00  0.00     0.048 A 
HETATM    5  C8  UNL     1      24.115 -10.832  -4.583  1.00  0.00     0.101 A 
HETATM    6  N3  UNL     1      22.831 -10.490  -4.384  1.00  0.00    -0.340 N 
ATOM      7  H3  UNL     1      22.357  -9.941  -5.100  1.00  0.00     0.167 HD
ENDROOT
BRANCH   1   8
HETATM    8  C3  UNL     1      20.742 -10.452  -3.096  1.00  0.00     0.148 A 
HETATM    9  N1  UNL     1      20.116 -10.287  -1.913  1.00  0.00    -0.328 N 
HETATM   10  C2  UNL     1      18.843  -9.939  -2.137  1.00  0.00     0.093 A 
ATOM     11  H1  UNL     1      20.545 -10.407  -0.995  1.00  0.00     0.169 HD
HETATM   12  C1  UNL     1      17.788  -9.656  -1.114  1.00  0.00     0.090 C 
HETATM   13  N5  UNL     1      18.669  -9.886  -3.469  1.00  0.00    -0.288 N 
HETATM   14  N4  UNL     1      19.825 -10.199  -4.027  1.00  0.00    -0.282 N 
ATOM     15  H5  UNL     1      17.806  -9.649  -3.957  1.00  0.00     0.188 HD
ATOM     16  H4  UNL     1      19.992 -10.240  -5.033  1.00  0.00     0.188 HD
ENDBRANCH   1   8
BRANCH   5  17
HETATM   17  N2  UNL     1      24.746 -10.483  -5.646  1.00  0.00    -0.372 N 
ATOM     18  H2  UNL     1      25.558  -9.874  -5.545  1.00  0.00     0.161 HD
BRANCH  17  19
HETATM   19  C9  UNL     1      24.373 -10.902  -6.969  1.00  0.00     0.159 C 
BRANCH  19  20
HETATM   20  C10 UNL     1      23.548  -9.850  -7.601  1.00  0.00    -0.041 A 
HETATM   21  C11 UNL     1      22.171  -9.942  -7.571  1.00  0.00     0.009 A 
HETATM   22  C12 UNL     1      21.353  -8.992  -8.142  1.00  0.00     0.001 A 
HETATM   23  C13 UNL     1      21.977  -7.918  -8.761  1.00  0.00     0.000 A 
HETATM   24  C14 UNL     1      23.350  -7.798  -8.807  1.00  0.00     0.001 A 
HETATM   25  C15 UNL     1      24.133  -8.773  -8.221  1.00  0.00     0.009 A 
ENDBRANCH  19  20
ENDBRANCH  17  19
ENDBRANCH   5  17
TORSDOF 4
ENDMDL
MODEL 2
REMARK VINA RESULT: -8.322139388      0.015      1.072
REMARK  4 active torsions:
REMARK  status: ('A' for Active; 'I' for Inactive)
REMARK    1  A    between atoms: C3_5  and  C4_6 
REMARK    2  A    between atoms: C8_10  and  N2_11 
REMARK    3  A    between atoms: N2_11  and  C9_13 
REMARK    4  A    between atoms: C9_13  and  C10_14 
ROOT
HETATM    1  C4  UNL     1      22.152 -10.838  -3.295  1.00  0.00     0.079 A 
HETATM    2  C5  UNL     1      22.758 -11.581  -2.316  1.00  0.00     0.033 A 
HETATM    3  C6  UNL     1      24.076 -11.948  -2.490  1.00  0.00     0.006 A 
HETATM    4  C7  UNL     1      24.783 -11.583  -3.621  1.00  0.00     0.048 A 
HETATM    5  C8  UNL     1      24.115 -10.831  -4.576  1.00  0.00     0.101 A 
HETATM    6  N3  UNL     1      22.831 -10.488  -4.377  1.00  0.00    -0.340 N 
ATOM      7  H3  UNL     1      22.359  -9.935  -5.092  1.00  0.00     0.167 HD
ENDROOT
BRANCH   1   8
HETATM    8  C3  UNL     1      20.740 -10.453  -3.092  1.00  0.00     0.148 A 
HETATM    9  N1  UNL     1      20.114 -10.290  -1.910  1.00  0.00    -0.328 N 
HETATM   10  C2  UNL     1      18.841  -9.940  -2.133  1.00  0.00     0.093 A 
ATOM     11  H1  UNL     1      20.541 -10.413  -0.991  1.00  0.00     0.169 HD
HETATM   12  C1  UNL     1      17.786  -9.658  -1.110  1.00  0.00     0.090 C 
HETATM   13  N5  UNL     1      18.668  -9.884  -3.465  1.00  0.00    -0.288 N 
HETATM   14  N4  UNL     1      19.824 -10.197  -4.024  1.00  0.00    -0.282 N 
ATOM     15  H5  UNL     1      17.806  -9.645  -3.954  1.00  0.00     0.188 HD
ATOM     16  H4  UNL     1      19.992 -10.236  -5.029  1.00  0.00     0.188 HD
ENDBRANCH   1   8
BRANCH   5  17
HETATM   17  N2  UNL     1      24.748 -10.478  -5.636  1.00  0.00    -0.372 N 
ATOM     18  H2  UNL     1      25.556  -9.865  -5.532  1.00  0.00     0.161 HD
BRANCH  17  19
HETATM   19  C9  UNL     1      24.382 -10.899  -6.961  1.00  0.00     0.159 C 
BRANCH  19  20
HETATM   20  C10 UNL     1      23.530  -9.864  -7.585  1.00  0.00    -0.041 A 
HETATM   21  C11 UNL     1      24.110  -8.778  -8.211  1.00  0.00     0.009 A 
HETATM   22  C12 UNL     1      23.366  -7.784  -8.809  1.00  0.00     0.001 A 
HETATM   23  C13 UNL     1      21.986  -7.916  -8.757  1.00  0.00     0.000 A 
HETATM   24  C14 UNL     1      21.377  -8.988  -8.138  1.00  0.00     0.001 A 
HETATM   25  C15 UNL     1      22.161  -9.963  -7.552  1.00  0.00     0.009 A 
ENDBRANCH  19  20
ENDBRANCH  17  19
ENDBRANCH   5  17
TORSDOF 4
ENDMDL
MODEL 3
REMARK VINA RESULT: -8.306910473      1.446      6.490
REMARK  4 active torsions:
REMARK  status: ('A' for Active; 'I' for Inactive)
REMARK    1  A    between atoms: C3_5  and  C4_6 
REMARK    2  A    between atoms: C8_10  and  N2_11 
REMARK    3  A    between atoms: N2_11  and  C9_13 
REMARK    4  A    between atoms: C9_13  and  C10_14 
ROOT
HETATM    1  C4  UNL     1      23.585 -10.720  -5.086  1.00  0.00     0.079 A 
HETATM    2  C5  UNL     1      24.547 -11.479  -4.470  1.00  0.00     0.033 A 
HETATM    3  C6  UNL     1      24.374 -11.810  -3.144  1.00  0.00     0.006 A 
HETATM    4  C7  UNL     1      23.261 -11.395  -2.435  1.00  0.00     0.048 A 
HETATM    5  C8  UNL     1      22.323 -10.631  -3.113  1.00  0.00     0.101 A 
HETATM    6  N3  UNL     1      22.519 -10.325  -4.406  1.00  0.00    -0.340 N 
ATOM      7  H3  UNL     1      21.816  -9.762  -4.886  1.00  0.00     0.167 HD
ENDROOT
BRANCH   1   8
HETATM    8  C3  UNL     1      23.786 -10.374  -6.508  1.00  0.00     0.148 A 
HETATM    9  N1  UNL     1      22.823 -10.131  -7.419  1.00  0.00    -0.328 N 
HETATM   10  C2  UNL     1      23.396  -9.852  -8.597  1.00  0.00     0.093 A 
ATOM     11  H1  UNL     1      21.819 -10.155  -7.240  1.00  0.00     0.169 HD
HETATM   12  C1  UNL     1      22.707  -9.521  -9.883  1.00  0.00     0.090 C 
HETATM   13  N5  UNL     1      24.727  -9.922  -8.423  1.00  0.00    -0.288 N 
HETATM   14  N4  UNL     1      24.940 -10.238  -7.157  1.00  0.00    -0.282 N 
ATOM     15  H5  UNL     1      25.439  -9.761  -9.134  1.00  0.00     0.188 HD
ATOM     16  H4  UNL     1      25.861 -10.361  -6.737  1.00  0.00     0.188 HD
ENDBRANCH   1   8
BRANCH   5  17
HETATM   17  N2  UNL     1      21.279 -10.232  -2.480  1.00  0.00    -0.372 N 
ATOM     18  H2  UNL     1      21.096 -10.628  -1.557  1.00  0.00     0.161 HD
BRANCH  17  19
HETATM   19  C9  UNL     1      20.354  -9.261  -2.996  1.00  0.00     0.159 C 
BRANCH  19  20
HETATM   20  C10 UNL     1      19.152  -9.224  -2.136  1.00  0.00    -0.041 A 
HETATM   21  C11 UNL     1      19.144  -8.447  -0.995  1.00  0.00     0.009 A 
HETATM   22  C12 UNL     1      18.054  -8.375  -0.156  1.00  0.00     0.001 A 
HETATM   23  C13 UNL     1      16.941  -9.126  -0.508  1.00  0.00     0.000 A 
HETATM   24  C14 UNL     1      16.918  -9.912  -1.641  1.00  0.00     0.001 A 
HETATM   25  C15 UNL     1      18.034  -9.956  -2.454  1.00  0.00     0.009 A 
ENDBRANCH  19  20
ENDBRANCH  17  19
ENDBRANCH   5  17
TORSDOF 4
ENDMDL
MODEL 4
REMARK VINA RESULT: -8.294013004      1.447      6.448
REMARK  4 active torsions:
REMARK  status: ('A' for Active; 'I' for Inactive)
REMARK    1  A    between atoms: C3_5  and  C4_6 
REMARK    2  A    between atoms: C8_10  and  N2_11 
REMARK    3  A    between atoms: N2_11  and  C9_13 
REMARK    4  A    between atoms: C9_13  and  C10_14 
ROOT
HETATM    1  C4  UNL     1      23.625 -10.723  -5.072  1.00  0.00     0.079 A 
HETATM    2  C5  UNL     1      24.619 -11.412  -4.427  1.00  0.00     0.033 A 
HETATM    3  C6  UNL     1      24.448 -11.721  -3.095  1.00  0.00     0.006 A 
HETATM    4  C7  UNL     1      23.304 -11.352  -2.409  1.00  0.00     0.048 A 
HETATM    5  C8  UNL     1      22.334 -10.657  -3.117  1.00  0.00     0.101 A 
HETATM    6  N3  UNL     1      22.530 -10.371  -4.414  1.00  0.00    -0.340 N 
ATOM      7  H3  UNL     1      21.803  -9.860  -4.916  1.00  0.00     0.167 HD
ENDROOT
BRANCH   1   8
HETATM    8  C3  UNL     1      23.825 -10.400  -6.500  1.00  0.00     0.148 A 
HETATM    9  N1  UNL     1      22.862 -10.131  -7.405  1.00  0.00    -0.328 N 
HETATM   10  C2  UNL     1      23.433  -9.886  -8.591  1.00  0.00     0.093 A 
ATOM     11  H1  UNL     1      21.859 -10.115  -7.216  1.00  0.00     0.169 HD
HETATM   12  C1  UNL     1      22.745  -9.544  -9.874  1.00  0.00     0.090 C 
HETATM   13  N5  UNL     1      24.762 -10.005  -8.428  1.00  0.00    -0.288 N 
HETATM   14  N4  UNL     1      24.976 -10.315  -7.161  1.00  0.00    -0.282 N 
ATOM     15  H5  UNL     1      25.473  -9.878  -9.148  1.00  0.00     0.188 HD
ATOM     16  H4  UNL     1      25.896 -10.467  -6.748  1.00  0.00     0.188 HD
ENDBRANCH   1   8
BRANCH   5  17
HETATM   17  N2  UNL     1      21.262 -10.302  -2.505  1.00  0.00    -0.372 N 
ATOM     18  H2  UNL     1      21.033 -10.766  -1.626  1.00  0.00     0.161 HD
BRANCH  17  19
HETATM   19  C9  UNL     1      20.365  -9.288  -2.989  1.00  0.00     0.159 C 
BRANCH  19  20
HETATM   20  C10 UNL     1      19.178  -9.226  -2.110  1.00  0.00    -0.041 A 
HETATM   21  C11 UNL     1      18.054  -9.966  -2.416  1.00  0.00     0.009 A 
HETATM   22  C12 UNL     1      16.919  -9.947  -1.634  1.00  0.00     0.001 A 
HETATM   23  C13 UNL     1      16.950  -9.141  -0.505  1.00  0.00     0.000 A 
HETATM   24  C14 UNL     1      18.057  -8.390  -0.173  1.00  0.00     0.001 A 
HETATM   25  C15 UNL     1      19.174  -8.438  -0.985  1.00  0.00     0.009 A 
ENDBRANCH  19  20
ENDBRANCH  17  19
ENDBRANCH   5  17
TORSDOF 4
ENDMDL
MODEL 5
REMARK VINA RESULT: -8.189416268      2.846      5.652
REMARK  4 active torsions:
REMARK  status: ('A' for Active; 'I' for Inactive)
REMARK    1  A    between atoms: C3_5  and  C4_6 
REMARK    2  A    between atoms: C8_10  and  N2_11 
REMARK    3  A    between atoms: N2_11  and  C9_13 
REMARK    4  A    between atoms: C9_13  and  C10_14 
ROOT
HETATM    1  C4  UNL     1      22.076  -8.375  -8.280  1.00  0.00     0.079 A 
HETATM    2  C5  UNL     1      23.223  -7.696  -8.602  1.00  0.00     0.033 A 
HETATM    3  C6  UNL     1      24.433  -8.335  -8.439  1.00  0.00     0.006 A 
HETATM    4  C7  UNL     1      24.507  -9.631  -7.961  1.00  0.00     0.048 A 
HETATM    5  C8  UNL     1      23.312 -10.265  -7.652  1.00  0.00     0.101 A 
HETATM    6  N3  UNL     1      22.149  -9.617  -7.823  1.00  0.00    -0.340 N 
ATOM      7  H3  UNL     1      21.282 -10.102  -7.591  1.00  0.00     0.167 HD
ENDROOT
BRANCH   1   8
HETATM    8  C3  UNL     1      20.787  -7.676  -8.461  1.00  0.00     0.148 A 
HETATM    9  N1  UNL     1      20.406  -6.528  -7.866  1.00  0.00    -0.328 N 
HETATM   10  C2  UNL     1      19.173  -6.209  -8.281  1.00  0.00     0.093 A 
ATOM     11  H1  UNL     1      20.966  -5.989  -7.205  1.00  0.00     0.169 HD
HETATM   12  C1  UNL     1      18.362  -5.019  -7.879  1.00  0.00     0.090 C 
HETATM   13  N5  UNL     1      18.780  -7.164  -9.142  1.00  0.00    -0.288 N 
HETATM   14  N4  UNL     1      19.768  -8.038  -9.236  1.00  0.00    -0.282 N 
ATOM     15  H5  UNL     1      17.887  -7.207  -9.632  1.00  0.00     0.188 HD
ATOM     16  H4  UNL     1      19.750  -8.873  -9.821  1.00  0.00     0.188 HD
ENDBRANCH   1   8
BRANCH   5  17
HETATM   17  N2  UNL     1      23.351 -11.469  -7.206  1.00  0.00    -0.372 N 
ATOM     18  H2  UNL     1      22.618 -12.114  -7.499  1.00  0.00     0.161 HD
BRANCH  17  19
HETATM   19  C9  UNL     1      24.370 -11.959  -6.318  1.00  0.00     0.159 C 
BRANCH  19  20
HETATM   20  C10 UNL     1      24.046 -11.556  -4.933  1.00  0.00    -0.041 A 
HETATM   21  C11 UNL     1      22.755 -11.690  -4.460  1.00  0.00     0.009 A 
HETATM   22  C12 UNL     1      22.395 -11.331  -3.179  1.00  0.00     0.001 A 
HETATM   23  C13 UNL     1      23.398 -10.821  -2.366  1.00  0.00     0.000 A 
HETATM   24  C14 UNL     1      24.695 -10.675  -2.809  1.00  0.00     0.001 A 
HETATM   25  C15 UNL     1      25.013 -11.047  -4.101  1.00  0.00     0.009 A 
ENDBRANCH  19  20
ENDBRANCH  17  19
ENDBRANCH   5  17
TORSDOF 4
ENDMDL
