MODEL 1
REMARK VINA RESULT: -6.785942497      0.000      0.000
REMARK  2 active torsions:
REMARK  status: ('A' for Active; 'I' for Inactive)
REMARK    1  A    between atoms: N1_5  and  N2_7 
REMARK       I    between atoms: N2_7  and  C5_9 
REMARK    2  A    between atoms: C5_9  and  C6_11 
REMARK       I    between atoms: N3_18  and  C12_19 
ROOT
HETATM    1  C1  UNL     1      -0.583   7.191  11.535  1.00  0.00     0.019 C 
HETATM    2  C2  UNL     1      -0.192   6.048  11.548  1.00  0.00    -0.063 C 
HETATM    3  C3  UNL     1       0.292   4.697  11.580  1.00  0.00     0.074 C 
HETATM    4  C4  UNL     1       1.712   4.417  11.187  1.00  0.00     0.080 C 
HETATM    5  N1  UNL     1      -0.450   3.706  11.936  1.00  0.00    -0.294 N 
ATOM      6  H1  UNL     1      -0.084   2.753  11.952  1.00  0.00     0.187 HD
ENDROOT
BRANCH   5   7
HETATM    7  N2  UNL     1      -1.781   3.978  12.303  1.00  0.00    -0.268 N 
HETATM    8  C5  UNL     1      -2.867   3.740  11.432  1.00  0.00     0.261 C 
HETATM    9  O1  UNL     1      -2.612   3.268  10.296  1.00  0.00    -0.269 OA
ATOM     10  H2  UNL     1      -1.967   4.361  13.230  1.00  0.00     0.190 HD
BRANCH   8  11
HETATM   11  C6  UNL     1      -4.239   4.062  11.914  1.00  0.00     0.206 C 
HETATM   12  C7  UNL     1      -4.255   5.531  12.180  1.00  0.00     0.112 C 
HETATM   13  S1  UNL     1      -4.038   5.525  14.006  1.00  0.00    -0.140 SA
HETATM   14  C8  UNL     1      -4.733   3.853  14.233  1.00  0.00     0.166 C 
HETATM   15  C9  UNL     1      -3.654   3.042  14.966  1.00  0.00     0.064 C 
HETATM   16  N4  UNL     1      -4.709   3.291  12.941  1.00  0.00    -0.294 N 
HETATM   17  C10 UNL     1      -3.794   1.695  14.279  1.00  0.00     0.110 C 
HETATM   18  C11 UNL     1      -4.750   0.866  15.140  1.00  0.00     0.034 C 
HETATM   19  N3  UNL     1      -4.408   1.969  13.000  1.00  0.00    -0.257 N 
HETATM   20  C12 UNL     1      -4.637   0.989  12.014  1.00  0.00     0.234 C 
HETATM   21  C13 UNL     1      -4.260  -0.452  12.195  1.00  0.00     0.119 C 
HETATM   22  O2  UNL     1      -5.178   1.269  10.904  1.00  0.00    -0.272 OA
ENDBRANCH   8  11
ENDBRANCH   5   7
TORSDOF 2
ENDMDL
MODEL 2
REMARK VINA RESULT: -6.465033534      2.166      5.640
REMARK  2 active torsions:
REMARK  status: ('A' for Active; 'I' for Inactive)
REMARK    1  A    between atoms: N1_5  and  N2_7 
REMARK       I    between atoms: N2_7  and  C5_9 
REMARK    2  A    between atoms: C5_9  and  C6_11 
REMARK       I    between atoms: N3_18  and  C12_19 
ROOT
HETATM    1  C1  UNL     1      -4.192  -0.128  12.004  1.00  0.00     0.019 C 
HETATM    2  C2  UNL     1      -4.200   0.613  12.957  1.00  0.00    -0.063 C 
HETATM    3  C3  UNL     1      -4.194   1.478  14.104  1.00  0.00     0.074 C 
HETATM    4  C4  UNL     1      -4.721   0.964  15.411  1.00  0.00     0.080 C 
HETATM    5  N1  UNL     1      -3.752   2.686  14.056  1.00  0.00    -0.294 N 
ATOM      6  H1  UNL     1      -3.757   3.282  14.884  1.00  0.00     0.187 HD
ENDROOT
BRANCH   5   7
HETATM    7  N2  UNL     1      -3.261   3.159  12.825  1.00  0.00    -0.268 N 
HETATM    8  C5  UNL     1      -2.185   4.071  12.742  1.00  0.00     0.261 C 
HETATM    9  O1  UNL     1      -1.665   4.460  13.818  1.00  0.00    -0.269 OA
ATOM     10  H2  UNL     1      -3.696   2.832  11.963  1.00  0.00     0.190 HD
BRANCH   8  11
HETATM   11  C6  UNL     1      -1.739   4.512  11.392  1.00  0.00     0.206 C 
HETATM   12  C7  UNL     1      -0.321   4.068  11.253  1.00  0.00     0.112 C 
HETATM   13  S1  UNL     1       0.545   5.648  11.626  1.00  0.00    -0.140 SA
HETATM   14  C8  UNL     1      -0.854   6.706  11.121  1.00  0.00     0.166 C 
HETATM   15  C9  UNL     1      -1.172   7.593  12.334  1.00  0.00     0.064 C 
HETATM   16  N4  UNL     1      -1.957   5.828  11.090  1.00  0.00    -0.294 N 
HETATM   17  C10 UNL     1      -2.690   7.630  12.270  1.00  0.00     0.110 C 
HETATM   18  C11 UNL     1      -3.059   8.886  11.478  1.00  0.00     0.034 C 
HETATM   19  N3  UNL     1      -3.079   6.455  11.524  1.00  0.00    -0.257 N 
HETATM   20  C12 UNL     1      -4.417   6.071  11.310  1.00  0.00     0.234 C 
HETATM   21  C13 UNL     1      -5.584   6.851  11.841  1.00  0.00     0.119 C 
HETATM   22  O2  UNL     1      -4.719   5.033  10.650  1.00  0.00    -0.272 OA
ENDBRANCH   8  11
ENDBRANCH   5   7
TORSDOF 2
ENDMDL
MODEL 3
REMARK VINA RESULT: -6.406868536      2.330      5.576
REMARK  2 active torsions:
REMARK  status: ('A' for Active; 'I' for Inactive)
REMARK    1  A    between atoms: N1_5  and  N2_7 
REMARK       I    between atoms: N2_7  and  C5_9 
REMARK    2  A    between atoms: C5_9  and  C6_11 
REMARK       I    between atoms: N3_18  and  C12_19 
ROOT
HETATM    1  C1  UNL     1      -6.145   4.153  14.691  1.00  0.00     0.019 C 
HETATM    2  C2  UNL     1      -5.344   3.272  14.486  1.00  0.00    -0.063 C 
HETATM    3  C3  UNL     1      -4.412   2.208  14.241  1.00  0.00     0.074 C 
HETATM    4  C4  UNL     1      -4.353   1.051  15.195  1.00  0.00     0.080 C 
HETATM    5  N1  UNL     1      -3.618   2.205  13.227  1.00  0.00    -0.294 N 
ATOM      6  H1  UNL     1      -2.964   1.437  13.073  1.00  0.00     0.187 HD
ENDROOT
BRANCH   5   7
HETATM    7  N2  UNL     1      -3.680   3.294  12.338  1.00  0.00    -0.268 N 
HETATM    8  C5  UNL     1      -2.563   3.716  11.582  1.00  0.00     0.261 C 
HETATM    9  O1  UNL     1      -1.488   3.081  11.726  1.00  0.00    -0.269 OA
ATOM     10  H2  UNL     1      -4.562   3.796  12.237  1.00  0.00     0.190 HD
BRANCH   8  11
HETATM   11  C6  UNL     1      -2.731   4.880  10.670  1.00  0.00     0.206 C 
HETATM   12  C7  UNL     1      -2.370   4.398   9.304  1.00  0.00     0.112 C 
HETATM   13  S1  UNL     1      -0.653   5.047   9.182  1.00  0.00    -0.140 SA
HETATM   14  C8  UNL     1      -0.919   6.398  10.379  1.00  0.00     0.166 C 
HETATM   15  C9  UNL     1       0.147   6.213  11.468  1.00  0.00     0.064 C 
HETATM   16  N4  UNL     1      -2.104   6.034  11.051  1.00  0.00    -0.294 N 
HETATM   17  C10 UNL     1      -0.647   6.579  12.711  1.00  0.00     0.110 C 
HETATM   18  C11 UNL     1      -0.393   8.067  12.964  1.00  0.00     0.034 C 
HETATM   19  N3  UNL     1      -2.035   6.377  12.362  1.00  0.00    -0.257 N 
HETATM   20  C12 UNL     1      -3.100   6.525  13.271  1.00  0.00     0.234 C 
HETATM   21  C13 UNL     1      -2.899   6.913  14.707  1.00  0.00     0.119 C 
HETATM   22  O2  UNL     1      -4.305   6.339  12.927  1.00  0.00    -0.272 OA
ENDBRANCH   8  11
ENDBRANCH   5   7
TORSDOF 2
ENDMDL
MODEL 4
REMARK VINA RESULT: -6.400634878      2.804      4.650
REMARK  2 active torsions:
REMARK  status: ('A' for Active; 'I' for Inactive)
REMARK    1  A    between atoms: N1_5  and  N2_7 
REMARK       I    between atoms: N2_7  and  C5_9 
REMARK    2  A    between atoms: C5_9  and  C6_11 
REMARK       I    between atoms: N3_18  and  C12_19 
ROOT
HETATM    1  C1  UNL     1      -5.518   6.837   8.869  1.00  0.00     0.019 C 
HETATM    2  C2  UNL     1      -5.873   7.041  10.005  1.00  0.00    -0.063 C 
HETATM    3  C3  UNL     1      -6.318   7.272  11.350  1.00  0.00     0.074 C 
HETATM    4  C4  UNL     1      -7.538   8.114  11.584  1.00  0.00     0.080 C 
HETATM    5  N1  UNL     1      -5.709   6.783  12.374  1.00  0.00    -0.294 N 
ATOM      6  H1  UNL     1      -6.045   6.960  13.321  1.00  0.00     0.187 HD
ENDROOT
BRANCH   5   7
HETATM    7  N2  UNL     1      -4.566   5.994  12.144  1.00  0.00    -0.268 N 
HETATM    8  C5  UNL     1      -3.658   5.664  13.175  1.00  0.00     0.261 C 
HETATM    9  O1  UNL     1      -3.900   6.101  14.328  1.00  0.00    -0.269 OA
ATOM     10  H2  UNL     1      -4.387   5.650  11.201  1.00  0.00     0.190 HD
BRANCH   8  11
HETATM   11  C6  UNL     1      -2.477   4.825  12.831  1.00  0.00     0.206 C 
HETATM   12  C7  UNL     1      -1.737   5.561  11.764  1.00  0.00     0.112 C 
HETATM   13  S1  UNL     1      -2.328   4.649  10.280  1.00  0.00    -0.140 SA
HETATM   14  C8  UNL     1      -2.708   3.114  11.191  1.00  0.00     0.166 C 
HETATM   15  C9  UNL     1      -4.186   2.808  10.904  1.00  0.00     0.064 C 
HETATM   16  N4  UNL     1      -2.739   3.514  12.543  1.00  0.00    -0.294 N 
HETATM   17  C10 UNL     1      -4.640   2.297  12.261  1.00  0.00     0.110 C 
HETATM   18  C11 UNL     1      -4.500   0.773  12.219  1.00  0.00     0.034 C 
HETATM   19  N3  UNL     1      -3.705   2.843  13.218  1.00  0.00    -0.257 N 
HETATM   20  C12 UNL     1      -3.823   2.674  14.612  1.00  0.00     0.234 C 
HETATM   21  C13 UNL     1      -4.942   1.903  15.248  1.00  0.00     0.119 C 
HETATM   22  O2  UNL     1      -2.982   3.169  15.420  1.00  0.00    -0.272 OA
ENDBRANCH   8  11
ENDBRANCH   5   7
TORSDOF 2
ENDMDL
MODEL 5
REMARK VINA RESULT: -6.293408070      2.242      2.466
REMARK  2 active torsions:
REMARK  status: ('A' for Active; 'I' for Inactive)
REMARK    1  A    between atoms: N1_5  and  N2_7 
REMARK       I    between atoms: N2_7  and  C5_9 
REMARK    2  A    between atoms: C5_9  and  C6_11 
REMARK       I    between atoms: N3_18  and  C12_19 
ROOT
HETATM    1  C1  UNL     1      -4.053   6.047   7.115  1.00  0.00     0.019 C 
HETATM    2  C2  UNL     1      -3.118   5.469   7.615  1.00  0.00    -0.063 C 
HETATM    3  C3  UNL     1      -1.992   4.802   8.206  1.00  0.00     0.074 C 
HETATM    4  C4  UNL     1      -0.734   4.638   7.405  1.00  0.00     0.080 C 
HETATM    5  N1  UNL     1      -2.017   4.336   9.406  1.00  0.00    -0.294 N 
ATOM      6  H1  UNL     1      -1.205   3.866   9.806  1.00  0.00     0.187 HD
ENDROOT
BRANCH   5   7
HETATM    7  N2  UNL     1      -3.202   4.494  10.149  1.00  0.00    -0.268 N 
HETATM    8  C5  UNL     1      -3.201   4.592  11.559  1.00  0.00     0.261 C 
HETATM    9  O1  UNL     1      -2.092   4.532  12.148  1.00  0.00    -0.269 OA
ATOM     10  H2  UNL     1      -4.092   4.541   9.653  1.00  0.00     0.190 HD
BRANCH   8  11
HETATM   11  C6  UNL     1      -4.508   4.758  12.253  1.00  0.00     0.206 C 
HETATM   12  C7  UNL     1      -4.541   6.165  12.752  1.00  0.00     0.112 C 
HETATM   13  S1  UNL     1      -4.085   5.888  14.512  1.00  0.00    -0.140 SA
HETATM   14  C8  UNL     1      -4.684   4.165  14.553  1.00  0.00     0.166 C 
HETATM   15  C9  UNL     1      -3.489   3.313  15.005  1.00  0.00     0.064 C 
HETATM   16  N4  UNL     1      -4.810   3.812  13.194  1.00  0.00    -0.294 N 
HETATM   17  C10 UNL     1      -3.669   2.082  14.132  1.00  0.00     0.110 C 
HETATM   18  C11 UNL     1      -4.472   1.077  14.961  1.00  0.00     0.034 C 
HETATM   19  N3  UNL     1      -4.457   2.516  13.001  1.00  0.00    -0.257 N 
HETATM   20  C12 UNL     1      -4.778   1.689  11.907  1.00  0.00     0.234 C 
HETATM   21  C13 UNL     1      -4.329   0.261  11.805  1.00  0.00     0.119 C 
HETATM   22  O2  UNL     1      -5.471   2.106  10.933  1.00  0.00    -0.272 OA
ENDBRANCH   8  11
ENDBRANCH   5   7
TORSDOF 2
ENDMDL
