MODEL 1
REMARK VINA RESULT: -5.052548377      0.000      0.000
REMARK  3 active torsions:
REMARK  status: ('A' for Active; 'I' for Inactive)
REMARK    1  A    between atoms: N1_2  and  N2_4 
REMARK    2  A    between atoms: N2_4  and  C3_6 
REMARK    3  A    between atoms: C3_6  and  N3_8 
ROOT
HETATM    1  C3  UNL     1      16.303   4.710  14.216  1.00  0.00     0.184 C 
HETATM    2  S1  UNL     1      16.323   6.275  13.723  1.00  0.00    -0.040 SA
ENDROOT
BRANCH   1   3
HETATM    3  N2  UNL     1      16.849   3.672  13.425  1.00  0.00    -0.296 N 
ATOM      4  H2  UNL     1      17.845   3.477  13.524  1.00  0.00     0.183 HD
BRANCH   3   5
HETATM    5  N1  UNL     1      16.133   2.901  12.529  1.00  0.00    -0.238 NA
HETATM    6  C1  UNL     1      16.875   1.682  12.295  1.00  0.00     0.135 C 
HETATM    7  C2  UNL     1      15.768   3.553  11.325  1.00  0.00     0.135 C 
ENDBRANCH   3   5
ENDBRANCH   1   3
BRANCH   1   8
HETATM    8  N3  UNL     1      15.724   4.407  15.462  1.00  0.00    -0.353 N 
HETATM    9  C4  UNL     1      14.891   5.402  16.102  1.00  0.00     0.151 C 
HETATM   10  C5  UNL     1      13.991   4.714  17.092  1.00  0.00     0.187 C 
HETATM   11  O1  UNL     1      14.817   3.999  17.967  1.00  0.00    -0.388 OA
HETATM   12  C6  UNL     1      15.189   2.839  17.289  1.00  0.00     0.187 C 
HETATM   13  C7  UNL     1      15.982   3.118  16.056  1.00  0.00     0.151 C 
ENDBRANCH   1   8
TORSDOF 3
ENDMDL
MODEL 2
REMARK VINA RESULT: -5.015833615      0.487      1.456
REMARK  3 active torsions:
REMARK  status: ('A' for Active; 'I' for Inactive)
REMARK    1  A    between atoms: N1_2  and  N2_4 
REMARK    2  A    between atoms: N2_4  and  C3_6 
REMARK    3  A    between atoms: C3_6  and  N3_8 
ROOT
HETATM    1  C3  UNL     1      16.474   4.698  14.148  1.00  0.00     0.184 C 
HETATM    2  S1  UNL     1      16.844   6.216  13.650  1.00  0.00    -0.040 SA
ENDROOT
BRANCH   1   3
HETATM    3  N2  UNL     1      16.932   3.553  13.453  1.00  0.00    -0.296 N 
ATOM      4  H2  UNL     1      17.871   3.218  13.664  1.00  0.00     0.183 HD
BRANCH   3   5
HETATM    5  N1  UNL     1      16.200   2.855  12.511  1.00  0.00    -0.238 NA
HETATM    6  C1  UNL     1      16.935   1.656  12.172  1.00  0.00     0.135 C 
HETATM    7  C2  UNL     1      15.818   3.599  11.367  1.00  0.00     0.135 C 
ENDBRANCH   3   5
ENDBRANCH   1   3
BRANCH   1   8
HETATM    8  N3  UNL     1      15.679   4.543  15.299  1.00  0.00    -0.353 N 
HETATM    9  C4  UNL     1      15.708   3.277  16.000  1.00  0.00     0.151 C 
HETATM   10  C5  UNL     1      15.242   3.497  17.413  1.00  0.00     0.187 C 
HETATM   11  O1  UNL     1      13.977   4.090  17.338  1.00  0.00    -0.388 OA
HETATM   12  C6  UNL     1      14.197   5.438  17.054  1.00  0.00     0.187 C 
HETATM   13  C7  UNL     1      14.866   5.651  15.738  1.00  0.00     0.151 C 
ENDBRANCH   1   8
TORSDOF 3
ENDMDL
MODEL 3
REMARK VINA RESULT: -4.841836178      2.834      5.105
REMARK  3 active torsions:
REMARK  status: ('A' for Active; 'I' for Inactive)
REMARK    1  A    between atoms: N1_2  and  N2_4 
REMARK    2  A    between atoms: N2_4  and  C3_6 
REMARK    3  A    between atoms: C3_6  and  N3_8 
ROOT
HETATM    1  C3  UNL     1      16.929   5.085  12.948  1.00  0.00     0.184 C 
HETATM    2  S1  UNL     1      16.742   6.599  12.345  1.00  0.00    -0.040 SA
ENDROOT
BRANCH   1   3
HETATM    3  N2  UNL     1      16.902   4.828  14.339  1.00  0.00    -0.296 N 
ATOM      4  H2  UNL     1      17.741   5.044  14.876  1.00  0.00     0.183 HD
BRANCH   3   5
HETATM    5  N1  UNL     1      15.821   4.305  15.025  1.00  0.00    -0.238 NA
HETATM    6  C1  UNL     1      15.046   5.409  15.546  1.00  0.00     0.135 C 
HETATM    7  C2  UNL     1      16.140   3.349  16.021  1.00  0.00     0.135 C 
ENDBRANCH   3   5
ENDBRANCH   1   3
BRANCH   1   8
HETATM    8  N3  UNL     1      17.123   4.022  12.046  1.00  0.00    -0.353 N 
HETATM    9  C4  UNL     1      18.457   3.769  11.546  1.00  0.00     0.151 C 
HETATM   10  C5  UNL     1      18.528   2.347  11.059  1.00  0.00     0.187 C 
HETATM   11  O1  UNL     1      17.512   2.189  10.110  1.00  0.00    -0.388 OA
HETATM   12  C6  UNL     1      16.329   2.030  10.830  1.00  0.00     0.187 C 
HETATM   13  C7  UNL     1      15.986   3.226  11.653  1.00  0.00     0.151 C 
ENDBRANCH   1   8
TORSDOF 3
ENDMDL
MODEL 4
REMARK VINA RESULT: -4.768564911      2.908      5.104
REMARK  3 active torsions:
REMARK  status: ('A' for Active; 'I' for Inactive)
REMARK    1  A    between atoms: N1_2  and  N2_4 
REMARK    2  A    between atoms: N2_4  and  C3_6 
REMARK    3  A    between atoms: C3_6  and  N3_8 
ROOT
HETATM    1  C3  UNL     1      16.985   4.990  12.908  1.00  0.00     0.184 C 
HETATM    2  S1  UNL     1      17.992   6.285  12.891  1.00  0.00    -0.040 SA
ENDROOT
BRANCH   1   3
HETATM    3  N2  UNL     1      15.848   4.941  13.748  1.00  0.00    -0.296 N 
ATOM      4  H2  UNL     1      14.942   4.786  13.307  1.00  0.00     0.183 HD
BRANCH   3   5
HETATM    5  N1  UNL     1      15.873   5.088  15.122  1.00  0.00    -0.238 NA
HETATM    6  C1  UNL     1      15.990   3.771  15.710  1.00  0.00     0.135 C 
HETATM    7  C2  UNL     1      14.801   5.834  15.672  1.00  0.00     0.135 C 
ENDBRANCH   3   5
ENDBRANCH   1   3
BRANCH   1   8
HETATM    8  N3  UNL     1      17.271   3.906  12.058  1.00  0.00    -0.353 N 
HETATM    9  C4  UNL     1      18.560   3.860  11.400  1.00  0.00     0.151 C 
HETATM   10  C5  UNL     1      18.848   2.439  11.000  1.00  0.00     0.187 C 
HETATM   11  O1  UNL     1      17.775   2.012  10.208  1.00  0.00    -0.388 OA
HETATM   12  C6  UNL     1      16.741   1.701  11.090  1.00  0.00     0.187 C 
HETATM   13  C7  UNL     1      16.273   2.882  11.873  1.00  0.00     0.151 C 
ENDBRANCH   1   8
TORSDOF 3
ENDMDL
MODEL 5
REMARK VINA RESULT: -4.744764575      1.355      2.139
REMARK  3 active torsions:
REMARK  status: ('A' for Active; 'I' for Inactive)
REMARK    1  A    between atoms: N1_2  and  N2_4 
REMARK    2  A    between atoms: N2_4  and  C3_6 
REMARK    3  A    between atoms: C3_6  and  N3_8 
ROOT
HETATM    1  C3  UNL     1      16.021   5.239  14.936  1.00  0.00     0.184 C 
HETATM    2  S1  UNL     1      15.340   6.720  14.748  1.00  0.00    -0.040 SA
ENDROOT
BRANCH   1   3
HETATM    3  N2  UNL     1      17.229   4.886  14.289  1.00  0.00    -0.296 N 
ATOM      4  H2  UNL     1      18.088   4.932  14.836  1.00  0.00     0.183 HD
BRANCH   3   5
HETATM    5  N1  UNL     1      17.331   4.483  12.971  1.00  0.00    -0.238 NA
HETATM    6  C1  UNL     1      17.943   5.557  12.220  1.00  0.00     0.135 C 
HETATM    7  C2  UNL     1      16.125   4.027  12.381  1.00  0.00     0.135 C 
ENDBRANCH   3   5
ENDBRANCH   1   3
BRANCH   1   8
HETATM    8  N3  UNL     1      15.376   4.305  15.767  1.00  0.00    -0.353 N 
HETATM    9  C4  UNL     1      15.998   3.015  15.977  1.00  0.00     0.151 C 
HETATM   10  C5  UNL     1      15.455   2.418  17.247  1.00  0.00     0.187 C 
HETATM   11  O1  UNL     1      14.062   2.376  17.115  1.00  0.00    -0.388 OA
HETATM   12  C6  UNL     1      13.610   3.671  17.366  1.00  0.00     0.187 C 
HETATM   13  C7  UNL     1      14.120   4.665  16.378  1.00  0.00     0.151 C 
ENDBRANCH   1   8
TORSDOF 3
ENDMDL
