MODEL 1
REMARK VINA RESULT: -8.710310616      0.000      0.000
REMARK  16 active torsions:
REMARK  status: ('A' for Active; 'I' for Inactive)
REMARK    1  A    between atoms: C2_2  and  N1_4 
REMARK    2  A    between atoms: C12_14  and  C13_15 
REMARK    3  A    between atoms: C13_15  and  C14_16 
REMARK    4  A    between atoms: C14_16  and  C15_17 
REMARK    5  A    between atoms: C15_17  and  N2_20 
REMARK       I    between atoms: N2_20  and  C18_22 
REMARK    6  A    between atoms: C18_22  and  C19_24 
REMARK    7  A    between atoms: C19_24  and  C20_25 
REMARK    8  A    between atoms: C24_33  and  C25_34 
REMARK    9  A    between atoms: C25_34  and  C26_36 
REMARK   10  A    between atoms: C26_36  and  C27_37 
REMARK   11  A    between atoms: C27_37  and  C28_38 
REMARK   12  A    between atoms: C28_38  and  C29_40 
REMARK       I    between atoms: C29_40  and  N5_42 
REMARK   13  A    between atoms: N5_42  and  C30_44 
REMARK   14  A    between atoms: C30_44  and  C31_45 
REMARK   15  A    between atoms: C31_45  and  C32_46 
REMARK   16  A    between atoms: C32_46  and  N6_47 
ROOT
HETATM    1  C19 UNL     1      18.347  -4.237  14.699  1.00  0.00     0.095 A 
HETATM    2  C23 UNL     1      17.237  -3.312  14.243  1.00  0.00     0.040 A 
HETATM    3  C24 UNL     1      16.977  -4.367  15.262  1.00  0.00     0.081 A 
ENDROOT
BRANCH   1   4
HETATM    4  C18 UNL     1      19.339  -3.623  15.653  1.00  0.00     0.234 C 
HETATM    5  N2  UNL     1      20.334  -2.742  15.267  1.00  0.00    -0.352 N 
ATOM      6  H2  UNL     1      20.431  -2.469  14.289  1.00  0.00     0.163 HD
HETATM    7  O2  UNL     1      19.184  -3.986  16.880  1.00  0.00    -0.272 OA
BRANCH   5   8
HETATM    8  C15 UNL     1      21.246  -2.207  16.282  1.00  0.00     0.025 C 
HETATM    9  C16 UNL     1      22.280  -1.393  15.537  1.00  0.00     0.038 C 
HETATM   10  C17 UNL     1      21.962  -3.340  16.986  1.00  0.00     0.038 C 
BRANCH   8  11
HETATM   11  C14 UNL     1      20.555  -1.302  17.270  1.00  0.00     0.031 C 
BRANCH  11  12
HETATM   12  C13 UNL     1      19.481  -0.454  16.658  1.00  0.00     0.012 C 
BRANCH  12  13
HETATM   13  C12 UNL     1      18.682   0.316  17.697  1.00  0.00    -0.038 C 
HETATM   14  C11 UNL     1      19.697   0.957  18.602  1.00  0.00     0.035 C 
HETATM   15  C10 UNL     1      19.276   1.224  19.992  1.00  0.00     0.088 C 
HETATM   16  N1  UNL     1      18.883   2.632  20.200  1.00  0.00    -0.343 N 
HETATM   17  C9  UNL     1      18.163   0.389  20.516  1.00  0.00     0.030 C 
HETATM   18  C4  UNL     1      17.933   3.457  19.534  1.00  0.00     0.220 C 
HETATM   19  O1  UNL     1      17.703   4.496  20.192  1.00  0.00    -0.273 OA
HETATM   20  C5  UNL     1      17.147   3.435  18.294  1.00  0.00     0.107 C 
HETATM   21  C6  UNL     1      16.804   1.996  17.867  1.00  0.00    -0.005 C 
HETATM   22  C7  UNL     1      16.313   1.266  19.051  1.00  0.00     0.009 C 
HETATM   23  C35 UNL     1      17.876   1.404  17.061  1.00  0.00     0.014 C 
HETATM   24  C8  UNL     1      17.095   0.073  19.492  1.00  0.00    -0.012 C 
HETATM   25  C36 UNL     1      17.769  -0.656  18.358  1.00  0.00     0.014 C 
BRANCH  16  26
HETATM   26  C2  UNL     1      19.606   3.274  21.280  1.00  0.00     0.079 C 
HETATM   27  C1  UNL     1      21.086   3.378  21.016  1.00  0.00     0.032 C 
HETATM   28  C3  UNL     1      19.318   2.652  22.633  1.00  0.00     0.032 C 
ENDBRANCH  16  26
ENDBRANCH  12  13
ENDBRANCH  11  12
ENDBRANCH   8  11
ENDBRANCH   5   8
ENDBRANCH   1   4
BRANCH   1  29
HETATM   29  C20 UNL     1      18.912  -5.171  13.721  1.00  0.00     0.044 A 
HETATM   30  C21 UNL     1      19.644  -6.281  14.032  1.00  0.00     0.115 A 
HETATM   31  N3  UNL     1      20.027  -6.891  12.910  1.00  0.00    -0.360 N 
HETATM   32  C22 UNL     1      19.535  -6.163  11.910  1.00  0.00     0.180 A 
ATOM     33  H3  UNL     1      20.583  -7.742  12.834  1.00  0.00     0.166 HD
HETATM   34  N4  UNL     1      18.851  -5.109  12.365  1.00  0.00    -0.353 N 
ATOM     35  H4  UNL     1      18.377  -4.399  11.805  1.00  0.00     0.166 HD
ENDBRANCH   1  29
BRANCH   3  36
HETATM   36  C25 UNL     1      16.082  -5.466  14.984  1.00  0.00     0.133 C 
HETATM   37  O3  UNL     1      16.219  -6.491  15.724  1.00  0.00    -0.298 OA
BRANCH  36  38
HETATM   38  C26 UNL     1      15.030  -5.556  13.966  1.00  0.00     0.086 C 
BRANCH  38  39
HETATM   39  C27 UNL     1      14.821  -7.025  13.538  1.00  0.00     0.096 C 
BRANCH  39  40
HETATM   40  C28 UNL     1      15.905  -7.323  12.552  1.00  0.00     0.216 C 
HETATM   41  O4  UNL     1      16.223  -6.497  11.656  1.00  0.00    -0.287 OA
BRANCH  40  42
HETATM   42  C29 UNL     1      16.611  -8.584  12.618  1.00  0.00     0.287 C 
HETATM   43  O5  UNL     1      16.727  -9.263  11.565  1.00  0.00    -0.264 OA
HETATM   44  N5  UNL     1      17.152  -9.017  13.865  1.00  0.00    -0.354 N 
ATOM     45  H5  UNL     1      17.049  -8.456  14.710  1.00  0.00     0.162 HD
BRANCH  44  46
HETATM   46  C30 UNL     1      17.840 -10.259  13.886  1.00  0.00     0.125 C 
BRANCH  46  47
HETATM   47  C31 UNL     1      19.319 -10.254  13.979  1.00  0.00     0.050 C 
BRANCH  47  48
HETATM   48  C32 UNL     1      19.956 -11.069  15.032  1.00  0.00     0.273 C 
BRANCH  48  49
HETATM   49  N6  UNL     1      21.280 -10.704  15.445  1.00  0.00     0.080 N 
HETATM   50  C33 UNL     1      21.474  -9.245  15.259  1.00  0.00     0.309 C 
HETATM   51  C34 UNL     1      21.441 -10.960  16.903  1.00  0.00     0.309 C 
ENDBRANCH  48  49
ENDBRANCH  47  48
ENDBRANCH  46  47
ENDBRANCH  44  46
ENDBRANCH  40  42
ENDBRANCH  39  40
ENDBRANCH  38  39
ENDBRANCH  36  38
ENDBRANCH   3  36
TORSDOF 16
ENDMDL
MODEL 2
REMARK VINA RESULT: -8.589972542      5.492     10.455
REMARK  16 active torsions:
REMARK  status: ('A' for Active; 'I' for Inactive)
REMARK    1  A    between atoms: C2_2  and  N1_4 
REMARK    2  A    between atoms: C12_14  and  C13_15 
REMARK    3  A    between atoms: C13_15  and  C14_16 
REMARK    4  A    between atoms: C14_16  and  C15_17 
REMARK    5  A    between atoms: C15_17  and  N2_20 
REMARK       I    between atoms: N2_20  and  C18_22 
REMARK    6  A    between atoms: C18_22  and  C19_24 
REMARK    7  A    between atoms: C19_24  and  C20_25 
REMARK    8  A    between atoms: C24_33  and  C25_34 
REMARK    9  A    between atoms: C25_34  and  C26_36 
REMARK   10  A    between atoms: C26_36  and  C27_37 
REMARK   11  A    between atoms: C27_37  and  C28_38 
REMARK   12  A    between atoms: C28_38  and  C29_40 
REMARK       I    between atoms: C29_40  and  N5_42 
REMARK   13  A    between atoms: N5_42  and  C30_44 
REMARK   14  A    between atoms: C30_44  and  C31_45 
REMARK   15  A    between atoms: C31_45  and  C32_46 
REMARK   16  A    between atoms: C32_46  and  N6_47 
ROOT
HETATM    1  C19 UNL     1      20.868  -0.404  17.753  1.00  0.00     0.095 A 
HETATM    2  C23 UNL     1      21.526  -1.512  18.550  1.00  0.00     0.040 A 
HETATM    3  C24 UNL     1      22.228  -0.218  18.322  1.00  0.00     0.081 A 
ENDROOT
BRANCH   1   4
HETATM    4  C18 UNL     1      19.794   0.359  18.485  1.00  0.00     0.234 C 
HETATM    5  N2  UNL     1      18.530  -0.144  18.740  1.00  0.00    -0.352 N 
ATOM      6  H2  UNL     1      18.275  -1.082  18.429  1.00  0.00     0.163 HD
HETATM    7  O2  UNL     1      20.152   1.536  18.867  1.00  0.00    -0.272 OA
BRANCH   5   8
HETATM    8  C15 UNL     1      17.563   0.689  19.461  1.00  0.00     0.025 C 
HETATM    9  C16 UNL     1      16.300  -0.134  19.580  1.00  0.00     0.038 C 
HETATM   10  C17 UNL     1      17.239   1.927  18.653  1.00  0.00     0.038 C 
BRANCH   8  11
HETATM   11  C14 UNL     1      18.024   1.050  20.850  1.00  0.00     0.031 C 
BRANCH  11  12
HETATM   12  C13 UNL     1      17.904   2.511  21.162  1.00  0.00     0.012 C 
BRANCH  12  13
HETATM   13  C12 UNL     1      18.273   2.833  22.601  1.00  0.00    -0.038 C 
HETATM   14  C11 UNL     1      17.244   3.820  23.077  1.00  0.00     0.035 C 
HETATM   15  C10 UNL     1      17.659   4.756  24.142  1.00  0.00     0.088 C 
HETATM   16  N1  UNL     1      17.196   4.329  25.478  1.00  0.00    -0.343 N 
HETATM   17  C9  UNL     1      19.118   5.015  24.259  1.00  0.00     0.030 C 
HETATM   18  C4  UNL     1      17.368   3.111  26.194  1.00  0.00     0.220 C 
HETATM   19  O1  UNL     1      17.063   3.254  27.399  1.00  0.00    -0.273 OA
HETATM   20  C5  UNL     1      17.801   1.735  25.920  1.00  0.00     0.107 C 
HETATM   21  C6  UNL     1      18.835   1.684  24.779  1.00  0.00    -0.005 C 
HETATM   22  C7  UNL     1      19.846   2.728  25.023  1.00  0.00     0.009 C 
HETATM   23  C35 UNL     1      18.184   1.617  23.468  1.00  0.00     0.014 C 
HETATM   24  C8  UNL     1      19.983   3.802  23.994  1.00  0.00    -0.012 C 
HETATM   25  C36 UNL     1      19.675   3.335  22.594  1.00  0.00     0.014 C 
BRANCH  16  26
HETATM   26  C2  UNL     1      16.429   5.346  26.168  1.00  0.00     0.079 C 
HETATM   27  C1  UNL     1      15.062   5.559  25.569  1.00  0.00     0.032 C 
HETATM   28  C3  UNL     1      17.185   6.652  26.322  1.00  0.00     0.032 C 
ENDBRANCH  16  26
ENDBRANCH  12  13
ENDBRANCH  11  12
ENDBRANCH   8  11
ENDBRANCH   5   8
ENDBRANCH   1   4
BRANCH   1  29
HETATM   29  C20 UNL     1      20.611  -0.638  16.329  1.00  0.00     0.044 A 
HETATM   30  C21 UNL     1      20.314   0.336  15.419  1.00  0.00     0.115 A 
HETATM   31  N3  UNL     1      20.112  -0.219  14.223  1.00  0.00    -0.360 N 
HETATM   32  C22 UNL     1      20.283  -1.529  14.393  1.00  0.00     0.180 A 
ATOM     33  H3  UNL     1      19.875   0.262  13.356  1.00  0.00     0.166 HD
HETATM   34  N4  UNL     1      20.588  -1.821  15.660  1.00  0.00    -0.353 N 
ATOM     35  H4  UNL     1      20.767  -2.747  16.049  1.00  0.00     0.166 HD
ENDBRANCH   1  29
BRANCH   3  36
HETATM   36  C25 UNL     1      23.439  -0.156  17.537  1.00  0.00     0.133 C 
HETATM   37  O3  UNL     1      23.449  -0.859  16.479  1.00  0.00    -0.298 OA
BRANCH  36  38
HETATM   38  C26 UNL     1      24.659   0.618  17.795  1.00  0.00     0.086 C 
BRANCH  38  39
HETATM   39  C27 UNL     1      24.771   0.960  19.296  1.00  0.00     0.096 C 
BRANCH  39  40
HETATM   40  C28 UNL     1      24.470   2.420  19.408  1.00  0.00     0.216 C 
HETATM   41  O4  UNL     1      24.856   3.239  18.532  1.00  0.00    -0.287 OA
BRANCH  40  42
HETATM   42  C29 UNL     1      23.721   2.917  20.541  1.00  0.00     0.287 C 
HETATM   43  O5  UNL     1      22.487   3.125  20.401  1.00  0.00    -0.264 OA
HETATM   44  N5  UNL     1      24.396   3.156  21.775  1.00  0.00    -0.354 N 
ATOM     45  H5  UNL     1      25.397   2.984  21.872  1.00  0.00     0.162 HD
BRANCH  44  46
HETATM   46  C30 UNL     1      23.624   3.641  22.863  1.00  0.00     0.125 C 
BRANCH  46  47
HETATM   47  C31 UNL     1      24.242   4.603  23.805  1.00  0.00     0.050 C 
BRANCH  47  48
HETATM   48  C32 UNL     1      23.433   5.091  24.938  1.00  0.00     0.273 C 
BRANCH  48  49
HETATM   49  N6  UNL     1      22.587   6.226  24.711  1.00  0.00     0.080 N 
HETATM   50  C33 UNL     1      22.101   6.753  26.009  1.00  0.00     0.309 C 
HETATM   51  C34 UNL     1      23.375   7.324  24.087  1.00  0.00     0.309 C 
ENDBRANCH  48  49
ENDBRANCH  47  48
ENDBRANCH  46  47
ENDBRANCH  44  46
ENDBRANCH  40  42
ENDBRANCH  39  40
ENDBRANCH  38  39
ENDBRANCH  36  38
ENDBRANCH   3  36
TORSDOF 16
ENDMDL
MODEL 3
REMARK VINA RESULT: -8.476056975      2.827      6.076
REMARK  16 active torsions:
REMARK  status: ('A' for Active; 'I' for Inactive)
REMARK    1  A    between atoms: C2_2  and  N1_4 
REMARK    2  A    between atoms: C12_14  and  C13_15 
REMARK    3  A    between atoms: C13_15  and  C14_16 
REMARK    4  A    between atoms: C14_16  and  C15_17 
REMARK    5  A    between atoms: C15_17  and  N2_20 
REMARK       I    between atoms: N2_20  and  C18_22 
REMARK    6  A    between atoms: C18_22  and  C19_24 
REMARK    7  A    between atoms: C19_24  and  C20_25 
REMARK    8  A    between atoms: C24_33  and  C25_34 
REMARK    9  A    between atoms: C25_34  and  C26_36 
REMARK   10  A    between atoms: C26_36  and  C27_37 
REMARK   11  A    between atoms: C27_37  and  C28_38 
REMARK   12  A    between atoms: C28_38  and  C29_40 
REMARK       I    between atoms: C29_40  and  N5_42 
REMARK   13  A    between atoms: N5_42  and  C30_44 
REMARK   14  A    between atoms: C30_44  and  C31_45 
REMARK   15  A    between atoms: C31_45  and  C32_46 
REMARK   16  A    between atoms: C32_46  and  N6_47 
ROOT
HETATM    1  C19 UNL     1      19.729  -1.587  17.514  1.00  0.00     0.095 A 
HETATM    2  C23 UNL     1      20.101  -2.800  18.342  1.00  0.00     0.040 A 
HETATM    3  C24 UNL     1      21.151  -1.872  17.838  1.00  0.00     0.081 A 
ENDROOT
BRANCH   1   4
HETATM    4  C18 UNL     1      19.148  -0.434  18.293  1.00  0.00     0.234 C 
HETATM    5  N2  UNL     1      17.815  -0.344  18.655  1.00  0.00    -0.352 N 
ATOM      6  H2  UNL     1      17.159  -1.081  18.397  1.00  0.00     0.163 HD
HETATM    7  O2  UNL     1      20.006   0.475  18.606  1.00  0.00    -0.272 OA
BRANCH   5   8
HETATM    8  C15 UNL     1      17.360   0.825  19.412  1.00  0.00     0.025 C 
HETATM    9  C16 UNL     1      15.910   0.569  19.757  1.00  0.00     0.038 C 
HETATM   10  C17 UNL     1      17.422   2.063  18.544  1.00  0.00     0.038 C 
BRANCH   8  11
HETATM   11  C14 UNL     1      18.122   1.022  20.698  1.00  0.00     0.031 C 
BRANCH  11  12
HETATM   12  C13 UNL     1      18.483   2.452  20.969  1.00  0.00     0.012 C 
BRANCH  12  13
HETATM   13  C12 UNL     1      18.562   2.762  22.455  1.00  0.00    -0.038 C 
HETATM   14  C11 UNL     1      17.367   3.623  22.757  1.00  0.00     0.035 C 
HETATM   15  C10 UNL     1      17.490   4.561  23.891  1.00  0.00     0.088 C 
HETATM   16  N1  UNL     1      16.851   4.046  25.119  1.00  0.00    -0.343 N 
HETATM   17  C9  UNL     1      18.872   4.964  24.267  1.00  0.00     0.030 C 
HETATM   18  C4  UNL     1      17.025   2.829  25.836  1.00  0.00     0.220 C 
HETATM   19  O1  UNL     1      16.502   2.901  26.971  1.00  0.00    -0.273 OA
HETATM   20  C5  UNL     1      17.642   1.514  25.623  1.00  0.00     0.107 C 
HETATM   21  C6  UNL     1      18.856   1.606  24.681  1.00  0.00    -0.005 C 
HETATM   22  C7  UNL     1      19.694   2.739  25.113  1.00  0.00     0.009 C 
HETATM   23  C35 UNL     1      18.453   1.515  23.274  1.00  0.00     0.014 C 
HETATM   24  C8  UNL     1      19.893   3.854  24.139  1.00  0.00    -0.012 C 
HETATM   25  C36 UNL     1      19.883   3.404  22.701  1.00  0.00     0.014 C 
BRANCH  16  26
HETATM   26  C2  UNL     1      15.873   4.957  25.678  1.00  0.00     0.079 C 
HETATM   27  C1  UNL     1      14.643   5.100  24.819  1.00  0.00     0.032 C 
HETATM   28  C3  UNL     1      16.464   6.305  26.044  1.00  0.00     0.032 C 
ENDBRANCH  16  26
ENDBRANCH  12  13
ENDBRANCH  11  12
ENDBRANCH   8  11
ENDBRANCH   5   8
ENDBRANCH   1   4
BRANCH   1  29
HETATM   29  C20 UNL     1      19.139  -1.810  16.190  1.00  0.00     0.044 A 
HETATM   30  C21 UNL     1      19.607  -1.271  15.026  1.00  0.00     0.115 A 
HETATM   31  N3  UNL     1      18.827  -1.652  14.014  1.00  0.00    -0.360 N 
HETATM   32  C22 UNL     1      17.882  -2.422  14.550  1.00  0.00     0.180 A 
ATOM     33  H3  UNL     1      18.933  -1.404  13.031  1.00  0.00     0.166 HD
HETATM   34  N4  UNL     1      18.039  -2.541  15.871  1.00  0.00    -0.353 N 
ATOM     35  H4  UNL     1      17.452  -3.075  16.513  1.00  0.00     0.166 HD
ENDBRANCH   1  29
BRANCH   3  36
HETATM   36  C25 UNL     1      22.134  -2.312  16.876  1.00  0.00     0.133 C 
HETATM   37  O3  UNL     1      22.813  -1.394  16.319  1.00  0.00    -0.298 OA
BRANCH  36  38
HETATM   38  C26 UNL     1      22.460  -3.681  16.460  1.00  0.00     0.086 C 
BRANCH  38  39
HETATM   39  C27 UNL     1      22.139  -3.878  14.963  1.00  0.00     0.096 C 
BRANCH  39  40
HETATM   40  C28 UNL     1      21.485  -5.218  14.857  1.00  0.00     0.216 C 
HETATM   41  O4  UNL     1      22.091  -6.273  15.184  1.00  0.00    -0.287 OA
BRANCH  40  42
HETATM   42  C29 UNL     1      20.126  -5.320  14.369  1.00  0.00     0.287 C 
HETATM   43  O5  UNL     1      19.188  -5.347  15.207  1.00  0.00    -0.264 OA
HETATM   44  N5  UNL     1      19.892  -5.387  12.964  1.00  0.00    -0.354 N 
ATOM     45  H5  UNL     1      20.664  -5.365  12.297  1.00  0.00     0.162 HD
BRANCH  44  46
HETATM   46  C30 UNL     1      18.545  -5.484  12.527  1.00  0.00     0.125 C 
BRANCH  46  47
HETATM   47  C31 UNL     1      17.954  -6.828  12.325  1.00  0.00     0.050 C 
BRANCH  47  48
HETATM   48  C32 UNL     1      16.489  -6.935  12.188  1.00  0.00     0.273 C 
BRANCH  48  49
HETATM   49  N6  UNL     1      15.771  -7.603  13.234  1.00  0.00     0.080 N 
HETATM   50  C33 UNL     1      16.496  -8.835  13.628  1.00  0.00     0.309 C 
HETATM   51  C34 UNL     1      15.731  -6.741  14.447  1.00  0.00     0.309 C 
ENDBRANCH  48  49
ENDBRANCH  47  48
ENDBRANCH  46  47
ENDBRANCH  44  46
ENDBRANCH  40  42
ENDBRANCH  39  40
ENDBRANCH  38  39
ENDBRANCH  36  38
ENDBRANCH   3  36
TORSDOF 16
ENDMDL
MODEL 4
REMARK VINA RESULT: -8.447666059      2.647      5.735
REMARK  16 active torsions:
REMARK  status: ('A' for Active; 'I' for Inactive)
REMARK    1  A    between atoms: C2_2  and  N1_4 
REMARK    2  A    between atoms: C12_14  and  C13_15 
REMARK    3  A    between atoms: C13_15  and  C14_16 
REMARK    4  A    between atoms: C14_16  and  C15_17 
REMARK    5  A    between atoms: C15_17  and  N2_20 
REMARK       I    between atoms: N2_20  and  C18_22 
REMARK    6  A    between atoms: C18_22  and  C19_24 
REMARK    7  A    between atoms: C19_24  and  C20_25 
REMARK    8  A    between atoms: C24_33  and  C25_34 
REMARK    9  A    between atoms: C25_34  and  C26_36 
REMARK   10  A    between atoms: C26_36  and  C27_37 
REMARK   11  A    between atoms: C27_37  and  C28_38 
REMARK   12  A    between atoms: C28_38  and  C29_40 
REMARK       I    between atoms: C29_40  and  N5_42 
REMARK   13  A    between atoms: N5_42  and  C30_44 
REMARK   14  A    between atoms: C30_44  and  C31_45 
REMARK   15  A    between atoms: C31_45  and  C32_46 
REMARK   16  A    between atoms: C32_46  and  N6_47 
ROOT
HETATM    1  C19 UNL     1      19.775  -1.653  17.465  1.00  0.00     0.095 A 
HETATM    2  C23 UNL     1      20.132  -2.869  18.295  1.00  0.00     0.040 A 
HETATM    3  C24 UNL     1      21.196  -1.973  17.763  1.00  0.00     0.081 A 
ENDROOT
BRANCH   1   4
HETATM    4  C18 UNL     1      19.241  -0.480  18.247  1.00  0.00     0.234 C 
HETATM    5  N2  UNL     1      17.932  -0.377  18.682  1.00  0.00    -0.352 N 
ATOM      6  H2  UNL     1      17.261  -1.119  18.481  1.00  0.00     0.163 HD
HETATM    7  O2  UNL     1      20.116   0.435  18.487  1.00  0.00    -0.272 OA
BRANCH   5   8
HETATM    8  C15 UNL     1      17.522   0.812  19.435  1.00  0.00     0.025 C 
HETATM    9  C16 UNL     1      16.046   0.646  19.720  1.00  0.00     0.038 C 
HETATM   10  C17 UNL     1      17.695   2.051  18.583  1.00  0.00     0.038 C 
BRANCH   8  11
HETATM   11  C14 UNL     1      18.244   0.949  20.750  1.00  0.00     0.031 C 
BRANCH  11  12
HETATM   12  C13 UNL     1      18.903   2.282  20.938  1.00  0.00     0.012 C 
BRANCH  12  13
HETATM   13  C12 UNL     1      18.717   2.833  22.343  1.00  0.00    -0.038 C 
HETATM   14  C11 UNL     1      19.994   3.556  22.672  1.00  0.00     0.035 C 
HETATM   15  C10 UNL     1      20.360   3.645  24.099  1.00  0.00     0.088 C 
HETATM   16  N1  UNL     1      20.010   4.953  24.690  1.00  0.00    -0.343 N 
HETATM   17  C9  UNL     1      19.786   2.606  24.994  1.00  0.00     0.030 C 
HETATM   18  C4  UNL     1      18.778   5.664  24.747  1.00  0.00     0.220 C 
HETATM   19  O1  UNL     1      18.841   6.600  25.576  1.00  0.00    -0.273 OA
HETATM   20  C5  UNL     1      17.457   5.613  24.110  1.00  0.00     0.107 C 
HETATM   21  C6  UNL     1      17.075   4.175  23.715  1.00  0.00    -0.005 C 
HETATM   22  C7  UNL     1      17.365   3.288  24.856  1.00  0.00     0.009 C 
HETATM   23  C35 UNL     1      17.598   3.825  22.391  1.00  0.00     0.014 C 
HETATM   24  C8  UNL     1      18.370   2.204  24.641  1.00  0.00    -0.012 C 
HETATM   25  C36 UNL     1      18.397   1.680  23.228  1.00  0.00     0.014 C 
BRANCH  16  26
HETATM   26  C2  UNL     1      21.135   5.616  25.317  1.00  0.00     0.079 C 
HETATM   27  C1  UNL     1      22.181   6.063  24.328  1.00  0.00     0.032 C 
HETATM   28  C3  UNL     1      21.740   4.808  26.449  1.00  0.00     0.032 C 
ENDBRANCH  16  26
ENDBRANCH  12  13
ENDBRANCH  11  12
ENDBRANCH   8  11
ENDBRANCH   5   8
ENDBRANCH   1   4
BRANCH   1  29
HETATM   29  C20 UNL     1      19.153  -1.870  16.156  1.00  0.00     0.044 A 
HETATM   30  C21 UNL     1      19.627  -1.377  14.975  1.00  0.00     0.115 A 
HETATM   31  N3  UNL     1      18.811  -1.737  13.983  1.00  0.00    -0.360 N 
HETATM   32  C22 UNL     1      17.838  -2.448  14.548  1.00  0.00     0.180 A 
ATOM     33  H3  UNL     1      18.913  -1.512  12.993  1.00  0.00     0.166 HD
HETATM   34  N4  UNL     1      18.012  -2.550  15.869  1.00  0.00    -0.353 N 
ATOM     35  H4  UNL     1      17.409  -3.042  16.530  1.00  0.00     0.166 HD
ENDBRANCH   1  29
BRANCH   3  36
HETATM   36  C25 UNL     1      22.147  -2.446  16.784  1.00  0.00     0.133 C 
HETATM   37  O3  UNL     1      22.814  -1.548  16.181  1.00  0.00    -0.298 OA
BRANCH  36  38
HETATM   38  C26 UNL     1      22.452  -3.828  16.396  1.00  0.00     0.086 C 
BRANCH  38  39
HETATM   39  C27 UNL     1      22.229  -4.022  14.881  1.00  0.00     0.096 C 
BRANCH  39  40
HETATM   40  C28 UNL     1      21.524  -5.333  14.735  1.00  0.00     0.216 C 
HETATM   41  O4  UNL     1      22.111  -6.424  14.965  1.00  0.00    -0.287 OA
BRANCH  40  42
HETATM   42  C29 UNL     1      20.138  -5.364  14.321  1.00  0.00     0.287 C 
HETATM   43  O5  UNL     1      19.246  -5.329  15.208  1.00  0.00    -0.264 OA
HETATM   44  N5  UNL     1      19.825  -5.432  12.932  1.00  0.00    -0.354 N 
ATOM     45  H5  UNL     1      20.560  -5.462  12.225  1.00  0.00     0.162 HD
BRANCH  44  46
HETATM   46  C30 UNL     1      18.454  -5.458  12.568  1.00  0.00     0.125 C 
BRANCH  46  47
HETATM   47  C31 UNL     1      17.823  -6.761  12.250  1.00  0.00     0.050 C 
BRANCH  47  48
HETATM   48  C32 UNL     1      16.350  -6.832  12.200  1.00  0.00     0.273 C 
BRANCH  48  49
HETATM   49  N6  UNL     1      15.681  -7.506  13.275  1.00  0.00     0.080 N 
HETATM   50  C33 UNL     1      16.311  -8.829  13.501  1.00  0.00     0.309 C 
HETATM   51  C34 UNL     1      15.861  -6.740  14.539  1.00  0.00     0.309 C 
ENDBRANCH  48  49
ENDBRANCH  47  48
ENDBRANCH  46  47
ENDBRANCH  44  46
ENDBRANCH  40  42
ENDBRANCH  39  40
ENDBRANCH  38  39
ENDBRANCH  36  38
ENDBRANCH   3  36
TORSDOF 16
ENDMDL
MODEL 5
REMARK VINA RESULT: -8.374719484      1.434      2.277
REMARK  16 active torsions:
REMARK  status: ('A' for Active; 'I' for Inactive)
REMARK    1  A    between atoms: C2_2  and  N1_4 
REMARK    2  A    between atoms: C12_14  and  C13_15 
REMARK    3  A    between atoms: C13_15  and  C14_16 
REMARK    4  A    between atoms: C14_16  and  C15_17 
REMARK    5  A    between atoms: C15_17  and  N2_20 
REMARK       I    between atoms: N2_20  and  C18_22 
REMARK    6  A    between atoms: C18_22  and  C19_24 
REMARK    7  A    between atoms: C19_24  and  C20_25 
REMARK    8  A    between atoms: C24_33  and  C25_34 
REMARK    9  A    between atoms: C25_34  and  C26_36 
REMARK   10  A    between atoms: C26_36  and  C27_37 
REMARK   11  A    between atoms: C27_37  and  C28_38 
REMARK   12  A    between atoms: C28_38  and  C29_40 
REMARK       I    between atoms: C29_40  and  N5_42 
REMARK   13  A    between atoms: N5_42  and  C30_44 
REMARK   14  A    between atoms: C30_44  and  C31_45 
REMARK   15  A    between atoms: C31_45  and  C32_46 
REMARK   16  A    between atoms: C32_46  and  N6_47 
ROOT
HETATM    1  C19 UNL     1      18.767  -3.479  15.045  1.00  0.00     0.095 A 
HETATM    2  C23 UNL     1      17.681  -2.532  14.575  1.00  0.00     0.040 A 
HETATM    3  C24 UNL     1      17.365  -3.647  15.511  1.00  0.00     0.081 A 
ENDROOT
BRANCH   1   4
HETATM    4  C18 UNL     1      19.693  -2.921  16.095  1.00  0.00     0.234 C 
HETATM    5  N2  UNL     1      20.342  -1.704  15.979  1.00  0.00    -0.352 N 
ATOM      6  H2  UNL     1      20.210  -1.124  15.151  1.00  0.00     0.163 HD
HETATM    7  O2  UNL     1      19.832  -3.676  17.130  1.00  0.00    -0.272 OA
BRANCH   5   8
HETATM    8  C15 UNL     1      21.222  -1.260  17.065  1.00  0.00     0.025 C 
HETATM    9  C16 UNL     1      21.950  -0.040  16.548  1.00  0.00     0.038 C 
HETATM   10  C17 UNL     1      22.253  -2.326  17.366  1.00  0.00     0.038 C 
BRANCH   8  11
HETATM   11  C14 UNL     1      20.465  -0.867  18.308  1.00  0.00     0.031 C 
BRANCH  11  12
HETATM   12  C13 UNL     1      19.215  -0.088  18.028  1.00  0.00     0.012 C 
BRANCH  12  13
HETATM   13  C12 UNL     1      19.171   1.233  18.779  1.00  0.00    -0.038 C 
HETATM   14  C11 UNL     1      18.830   0.885  20.201  1.00  0.00     0.035 C 
HETATM   15  C10 UNL     1      18.127   1.916  20.990  1.00  0.00     0.088 C 
HETATM   16  N1  UNL     1      19.040   2.664  21.878  1.00  0.00    -0.343 N 
HETATM   17  C9  UNL     1      17.360   2.928  20.218  1.00  0.00     0.030 C 
HETATM   18  C4  UNL     1      20.237   3.387  21.611  1.00  0.00     0.220 C 
HETATM   19  O1  UNL     1      20.551   4.106  22.587  1.00  0.00    -0.273 OA
HETATM   20  C5  UNL     1      21.207   3.528  20.518  1.00  0.00     0.107 C 
HETATM   21  C6  UNL     1      20.544   3.321  19.144  1.00  0.00    -0.005 C 
HETATM   22  C7  UNL     1      19.294   4.101  19.110  1.00  0.00     0.009 C 
HETATM   23  C35 UNL     1      20.508   1.903  18.774  1.00  0.00     0.014 C 
HETATM   24  C8  UNL     1      18.020   3.344  18.921  1.00  0.00    -0.012 C 
HETATM   25  C36 UNL     1      18.179   2.100  18.085  1.00  0.00     0.014 C 
BRANCH  16  26
HETATM   26  C2  UNL     1      18.627   2.646  23.267  1.00  0.00     0.079 C 
HETATM   27  C1  UNL     1      18.449   1.252  23.810  1.00  0.00     0.032 C 
HETATM   28  C3  UNL     1      17.411   3.512  23.532  1.00  0.00     0.032 C 
ENDBRANCH  16  26
ENDBRANCH  12  13
ENDBRANCH  11  12
ENDBRANCH   8  11
ENDBRANCH   5   8
ENDBRANCH   1   4
BRANCH   1  29
HETATM   29  C20 UNL     1      19.400  -4.350  14.050  1.00  0.00     0.044 A 
HETATM   30  C21 UNL     1      20.723  -4.685  14.034  1.00  0.00     0.115 A 
HETATM   31  N3  UNL     1      20.972  -5.468  12.983  1.00  0.00    -0.360 N 
HETATM   32  C22 UNL     1      19.808  -5.616  12.353  1.00  0.00     0.180 A 
ATOM     33  H3  UNL     1      21.870  -5.871  12.717  1.00  0.00     0.166 HD
HETATM   34  N4  UNL     1      18.829  -4.951  12.972  1.00  0.00    -0.353 N 
ATOM     35  H4  UNL     1      17.849  -4.903  12.693  1.00  0.00     0.166 HD
ENDBRANCH   1  29
BRANCH   3  36
HETATM   36  C25 UNL     1      16.498  -4.731  15.111  1.00  0.00     0.133 C 
HETATM   37  O3  UNL     1      16.639  -5.818  15.754  1.00  0.00    -0.298 OA
BRANCH  36  38
HETATM   38  C26 UNL     1      15.469  -4.742  14.066  1.00  0.00     0.086 C 
BRANCH  38  39
HETATM   39  C27 UNL     1      14.948  -6.178  13.840  1.00  0.00     0.096 C 
BRANCH  39  40
HETATM   40  C28 UNL     1      15.775  -6.745  12.731  1.00  0.00     0.216 C 
HETATM   41  O4  UNL     1      16.142  -6.035  11.757  1.00  0.00    -0.287 OA
BRANCH  40  42
HETATM   42  C29 UNL     1      16.168  -8.136  12.763  1.00  0.00     0.287 C 
HETATM   43  O5  UNL     1      16.212  -8.722  13.877  1.00  0.00    -0.264 OA
HETATM   44  N5  UNL     1      16.492  -8.800  11.544  1.00  0.00    -0.354 N 
ATOM     45  H5  UNL     1      16.453  -8.311  10.649  1.00  0.00     0.162 HD
BRANCH  44  46
HETATM   46  C30 UNL     1      16.871 -10.166  11.619  1.00  0.00     0.125 C 
BRANCH  46  47
HETATM   47  C31 UNL     1      18.312 -10.505  11.671  1.00  0.00     0.050 C 
BRANCH  47  48
HETATM   48  C32 UNL     1      18.832 -11.171  12.882  1.00  0.00     0.273 C 
BRANCH  48  49
HETATM   49  N6  UNL     1      19.165 -10.342  14.004  1.00  0.00     0.080 N 
HETATM   50  C33 UNL     1      20.002 -11.108  14.958  1.00  0.00     0.309 C 
HETATM   51  C34 UNL     1      19.998  -9.194  13.552  1.00  0.00     0.309 C 
ENDBRANCH  48  49
ENDBRANCH  47  48
ENDBRANCH  46  47
ENDBRANCH  44  46
ENDBRANCH  40  42
ENDBRANCH  39  40
ENDBRANCH  38  39
ENDBRANCH  36  38
ENDBRANCH   3  36
TORSDOF 16
ENDMDL
