MODEL 1
REMARK VINA RESULT: -9.145976757      0.000      0.000
REMARK  14 active torsions:
REMARK  status: ('A' for Active; 'I' for Inactive)
REMARK    1  A    between atoms: C2_2  and  C3_3 
REMARK    2  A    between atoms: C3_3  and  N1_4 
REMARK       I    between atoms: N1_4  and  C4_6 
REMARK    3  A    between atoms: C4_6  and  C5_8 
REMARK    4  A    between atoms: C6_9  and  C7_10 
REMARK       I    between atoms: N2_15  and  C11_16 
REMARK    5  A    between atoms: C11_16  and  C12_18 
REMARK    6  A    between atoms: C12_18  and  C13_19 
REMARK    7  A    between atoms: C12_18  and  N3_23 
REMARK    8  A    between atoms: C13_19  and  C14_20 
REMARK       I    between atoms: N3_23  and  C17_25 
REMARK    9  A    between atoms: C17_25  and  C18_27 
REMARK   10  A    between atoms: C18_27  and  N4_28 
REMARK       I    between atoms: N4_28  and  C19_30 
REMARK   11  A    between atoms: C19_30  and  C20_32 
REMARK   12  A    between atoms: C20_32  and  C21_33 
REMARK   13  A    between atoms: C29_41  and  C30_42 
REMARK       I    between atoms: C30_42  and  N5_44 
REMARK   14  A    between atoms: N5_44  and  C31_46 
ROOT
HETATM    1  N3  UNL     1      19.255  32.120  14.219  1.00  0.00    -0.346 N 
ATOM      2  H3  UNL     1      19.762  32.594  13.470  1.00  0.00     0.163 HD
HETATM    3  C17 UNL     1      19.252  30.710  14.218  1.00  0.00     0.246 C 
HETATM    4  O4  UNL     1      18.667  30.140  15.170  1.00  0.00    -0.271 OA
ENDROOT
BRANCH   3   5
HETATM    5  C18 UNL     1      19.882  29.874  13.176  1.00  0.00     0.114 C 
HETATM    6  C27 UNL     1      19.055  28.558  13.056  1.00  0.00     0.042 C 
HETATM    7  C28 UNL     1      17.753  28.788  12.361  1.00  0.00     0.017 C 
HETATM    8  C29 UNL     1      17.984  29.325  10.950  1.00  0.00     0.078 C 
HETATM    9  C35 UNL     1      19.402  29.729  10.755  1.00  0.00     0.017 C 
HETATM   10  C36 UNL     1      19.879  30.609  11.879  1.00  0.00     0.042 C 
BRANCH   5  11
HETATM   11  N4  UNL     1      21.205  29.409  13.482  1.00  0.00    -0.343 N 
HETATM   12  C19 UNL     1      22.387  30.108  13.701  1.00  0.00     0.218 C 
HETATM   13  O5  UNL     1      22.496  31.342  13.657  1.00  0.00    -0.274 OA
ATOM     14  H4  UNL     1      21.293  28.396  13.551  1.00  0.00     0.163 HD
BRANCH  12  15
HETATM   15  C20 UNL     1      23.624  29.312  14.016  1.00  0.00     0.107 C 
BRANCH  15  16
HETATM   16  C21 UNL     1      24.606  29.218  12.902  1.00  0.00    -0.006 C 
HETATM   17  C22 UNL     1      23.990  29.174  11.538  1.00  0.00     0.005 C 
HETATM   18  C23 UNL     1      23.138  27.918  11.368  1.00  0.00     0.000 C 
HETATM   19  C24 UNL     1      23.837  26.712  11.920  1.00  0.00     0.000 C 
HETATM   20  C25 UNL     1      25.317  26.945  12.063  1.00  0.00     0.000 C 
HETATM   21  C26 UNL     1      25.546  28.053  13.088  1.00  0.00     0.005 C 
ENDBRANCH  15  16
ENDBRANCH  12  15
ENDBRANCH   5  11
BRANCH   8  22
HETATM   22  C30 UNL     1      17.633  28.277   9.950  1.00  0.00     0.222 C 
HETATM   23  O6  UNL     1      16.483  28.265   9.483  1.00  0.00    -0.273 OA
HETATM   24  N5  UNL     1      18.571  27.304   9.527  1.00  0.00    -0.353 N 
ATOM     25  H5  UNL     1      19.507  27.336   9.932  1.00  0.00     0.163 HD
BRANCH  24  26
HETATM   26  C31 UNL     1      18.290  26.271   8.563  1.00  0.00     0.022 C 
HETATM   27  C32 UNL     1      17.248  25.291   9.058  1.00  0.00     0.037 C 
HETATM   28  C33 UNL     1      19.589  25.508   8.286  1.00  0.00     0.037 C 
HETATM   29  C34 UNL     1      17.811  26.825   7.248  1.00  0.00     0.037 C 
ENDBRANCH  24  26
ENDBRANCH   8  22
ENDBRANCH   3   5
BRANCH   1  30
HETATM   30  C12 UNL     1      18.584  32.952  15.218  1.00  0.00     0.177 C 
BRANCH  30  31
HETATM   31  C11 UNL     1      19.554  34.096  15.547  1.00  0.00     0.243 C 
HETATM   32  N2  UNL     1      19.347  34.796  16.755  1.00  0.00    -0.338 N 
HETATM   33  C7  UNL     1      20.097  35.953  17.223  1.00  0.00     0.134 C 
HETATM   34  C10 UNL     1      18.329  34.332  17.677  1.00  0.00     0.153 C 
HETATM   35  C8  UNL     1      19.760  36.064  18.705  1.00  0.00     0.197 C 
HETATM   36  O2  UNL     1      18.396  36.468  18.747  1.00  0.00    -0.387 OA
HETATM   37  C9  UNL     1      17.610  35.411  18.406  1.00  0.00     0.187 C 
HETATM   38  O3  UNL     1      20.471  34.349  14.738  1.00  0.00    -0.271 OA
BRANCH  33  39
HETATM   39  C6  UNL     1      21.492  36.080  16.884  1.00  0.00     0.006 C 
HETATM   40  C5  UNL     1      22.386  37.188  17.042  1.00  0.00     0.072 C 
BRANCH  40  41
HETATM   41  C4  UNL     1      22.255  38.516  16.489  1.00  0.00     0.241 C 
HETATM   42  N1  UNL     1      21.329  38.733  15.399  1.00  0.00    -0.354 N 
ATOM     43  H1  UNL     1      20.760  37.961  15.054  1.00  0.00     0.163 HD
HETATM   44  O1  UNL     1      22.890  39.498  16.884  1.00  0.00    -0.269 OA
BRANCH  42  45
HETATM   45  C3  UNL     1      21.209  40.042  14.799  1.00  0.00     0.149 C 
BRANCH  45  46
HETATM   46  C2  UNL     1      21.637  39.930  13.343  1.00  0.00    -0.018 C 
HETATM   47  C1  UNL     1      22.290  40.876  12.728  1.00  0.00     0.008 C 
ENDBRANCH  45  46
ENDBRANCH  42  45
ENDBRANCH  40  41
ENDBRANCH  33  39
ENDBRANCH  30  31
BRANCH  30  48
HETATM   48  C13 UNL     1      17.419  33.648  14.614  1.00  0.00     0.038 C 
BRANCH  48  49
HETATM   49  C14 UNL     1      16.074  33.327  15.144  1.00  0.00    -0.020 C 
HETATM   50  C15 UNL     1      15.972  32.299  16.201  1.00  0.00     0.009 C 
HETATM   51  C16 UNL     1      15.386  34.609  15.651  1.00  0.00     0.009 C 
ENDBRANCH  48  49
ENDBRANCH  30  48
ENDBRANCH   1  30
TORSDOF 14
ENDMDL
MODEL 2
REMARK VINA RESULT: -8.800331687      1.412      1.772
REMARK  14 active torsions:
REMARK  status: ('A' for Active; 'I' for Inactive)
REMARK    1  A    between atoms: C2_2  and  C3_3 
REMARK    2  A    between atoms: C3_3  and  N1_4 
REMARK       I    between atoms: N1_4  and  C4_6 
REMARK    3  A    between atoms: C4_6  and  C5_8 
REMARK    4  A    between atoms: C6_9  and  C7_10 
REMARK       I    between atoms: N2_15  and  C11_16 
REMARK    5  A    between atoms: C11_16  and  C12_18 
REMARK    6  A    between atoms: C12_18  and  C13_19 
REMARK    7  A    between atoms: C12_18  and  N3_23 
REMARK    8  A    between atoms: C13_19  and  C14_20 
REMARK       I    between atoms: N3_23  and  C17_25 
REMARK    9  A    between atoms: C17_25  and  C18_27 
REMARK   10  A    between atoms: C18_27  and  N4_28 
REMARK       I    between atoms: N4_28  and  C19_30 
REMARK   11  A    between atoms: C19_30  and  C20_32 
REMARK   12  A    between atoms: C20_32  and  C21_33 
REMARK   13  A    between atoms: C29_41  and  C30_42 
REMARK       I    between atoms: C30_42  and  N5_44 
REMARK   14  A    between atoms: N5_44  and  C31_46 
ROOT
HETATM    1  N3  UNL     1      19.194  32.175  14.129  1.00  0.00    -0.346 N 
ATOM      2  H3  UNL     1      19.444  32.616  13.244  1.00  0.00     0.163 HD
HETATM    3  C17 UNL     1      19.479  30.802  14.281  1.00  0.00     0.246 C 
HETATM    4  O4  UNL     1      19.211  30.283  15.391  1.00  0.00    -0.271 OA
ENDROOT
BRANCH   3   5
HETATM    5  C18 UNL     1      20.063  29.949  13.226  1.00  0.00     0.114 C 
HETATM    6  C27 UNL     1      19.203  28.651  13.133  1.00  0.00     0.042 C 
HETATM    7  C28 UNL     1      17.889  28.909  12.472  1.00  0.00     0.017 C 
HETATM    8  C29 UNL     1      18.094  29.436  11.053  1.00  0.00     0.078 C 
HETATM    9  C35 UNL     1      19.514  29.807  10.819  1.00  0.00     0.017 C 
HETATM   10  C36 UNL     1      20.042  30.680  11.927  1.00  0.00     0.042 C 
BRANCH   5  11
HETATM   11  N4  UNL     1      21.382  29.456  13.498  1.00  0.00    -0.343 N 
HETATM   12  C19 UNL     1      22.599  30.122  13.606  1.00  0.00     0.218 C 
HETATM   13  O5  UNL     1      22.748  31.344  13.469  1.00  0.00    -0.274 OA
ATOM     14  H4  UNL     1      21.438  28.447  13.635  1.00  0.00     0.163 HD
BRANCH  12  15
HETATM   15  C20 UNL     1      23.821  29.303  13.916  1.00  0.00     0.107 C 
BRANCH  15  16
HETATM   16  C21 UNL     1      24.749  29.108  12.769  1.00  0.00    -0.006 C 
HETATM   17  C22 UNL     1      24.080  29.098  11.428  1.00  0.00     0.005 C 
HETATM   18  C23 UNL     1      23.116  27.920  11.312  1.00  0.00     0.000 C 
HETATM   19  C24 UNL     1      23.727  26.665  11.858  1.00  0.00     0.000 C 
HETATM   20  C25 UNL     1      25.227  26.770  11.943  1.00  0.00     0.000 C 
HETATM   21  C26 UNL     1      25.590  27.867  12.939  1.00  0.00     0.005 C 
ENDBRANCH  15  16
ENDBRANCH  12  15
ENDBRANCH   5  11
BRANCH   8  22
HETATM   22  C30 UNL     1      17.693  28.392  10.067  1.00  0.00     0.222 C 
HETATM   23  O6  UNL     1      16.532  28.409   9.626  1.00  0.00    -0.273 OA
HETATM   24  N5  UNL     1      18.595  27.392   9.629  1.00  0.00    -0.353 N 
ATOM     25  H5  UNL     1      19.540  27.401  10.013  1.00  0.00     0.163 HD
BRANCH  24  26
HETATM   26  C31 UNL     1      18.265  26.362   8.677  1.00  0.00     0.022 C 
HETATM   27  C32 UNL     1      17.216  25.406   9.205  1.00  0.00     0.037 C 
HETATM   28  C33 UNL     1      19.539  25.571   8.367  1.00  0.00     0.037 C 
HETATM   29  C34 UNL     1      17.761  26.922   7.374  1.00  0.00     0.037 C 
ENDBRANCH  24  26
ENDBRANCH   8  22
ENDBRANCH   3   5
BRANCH   1  30
HETATM   30  C12 UNL     1      18.564  33.011  15.151  1.00  0.00     0.177 C 
BRANCH  30  31
HETATM   31  C11 UNL     1      19.580  34.108  15.495  1.00  0.00     0.243 C 
HETATM   32  N2  UNL     1      19.410  34.791  16.719  1.00  0.00    -0.338 N 
HETATM   33  C7  UNL     1      20.208  35.908  17.205  1.00  0.00     0.134 C 
HETATM   34  C10 UNL     1      18.380  34.349  17.640  1.00  0.00     0.153 C 
HETATM   35  C8  UNL     1      19.885  36.002  18.691  1.00  0.00     0.197 C 
HETATM   36  O2  UNL     1      18.539  36.458  18.752  1.00  0.00    -0.387 OA
HETATM   37  C9  UNL     1      17.709  35.441  18.396  1.00  0.00     0.187 C 
HETATM   38  O3  UNL     1      20.501  34.342  14.685  1.00  0.00    -0.271 OA
BRANCH  33  39
HETATM   39  C6  UNL     1      21.604  35.986  16.858  1.00  0.00     0.006 C 
HETATM   40  C5  UNL     1      22.693  36.623  17.538  1.00  0.00     0.072 C 
BRANCH  40  41
HETATM   41  C4  UNL     1      22.824  38.020  17.883  1.00  0.00     0.241 C 
HETATM   42  N1  UNL     1      24.045  38.716  17.539  1.00  0.00    -0.354 N 
ATOM     43  H1  UNL     1      24.784  38.227  17.034  1.00  0.00     0.163 HD
HETATM   44  O1  UNL     1      21.954  38.676  18.463  1.00  0.00    -0.269 OA
BRANCH  42  45
HETATM   45  C3  UNL     1      24.219  40.102  17.910  1.00  0.00     0.149 C 
BRANCH  45  46
HETATM   46  C2  UNL     1      25.396  40.184  18.870  1.00  0.00    -0.018 C 
HETATM   47  C1  UNL     1      25.631  39.271  19.773  1.00  0.00     0.008 C 
ENDBRANCH  45  46
ENDBRANCH  42  45
ENDBRANCH  40  41
ENDBRANCH  33  39
ENDBRANCH  30  31
BRANCH  30  48
HETATM   48  C13 UNL     1      17.422  33.765  14.572  1.00  0.00     0.038 C 
BRANCH  48  49
HETATM   49  C14 UNL     1      16.068  33.474  15.096  1.00  0.00    -0.020 C 
HETATM   50  C15 UNL     1      15.930  32.405  16.108  1.00  0.00     0.009 C 
HETATM   51  C16 UNL     1      15.434  34.759  15.664  1.00  0.00     0.009 C 
ENDBRANCH  48  49
ENDBRANCH  30  48
ENDBRANCH   1  30
TORSDOF 14
ENDMDL
MODEL 3
REMARK VINA RESULT: -8.645372035      1.608      2.454
REMARK  14 active torsions:
REMARK  status: ('A' for Active; 'I' for Inactive)
REMARK    1  A    between atoms: C2_2  and  C3_3 
REMARK    2  A    between atoms: C3_3  and  N1_4 
REMARK       I    between atoms: N1_4  and  C4_6 
REMARK    3  A    between atoms: C4_6  and  C5_8 
REMARK    4  A    between atoms: C6_9  and  C7_10 
REMARK       I    between atoms: N2_15  and  C11_16 
REMARK    5  A    between atoms: C11_16  and  C12_18 
REMARK    6  A    between atoms: C12_18  and  C13_19 
REMARK    7  A    between atoms: C12_18  and  N3_23 
REMARK    8  A    between atoms: C13_19  and  C14_20 
REMARK       I    between atoms: N3_23  and  C17_25 
REMARK    9  A    between atoms: C17_25  and  C18_27 
REMARK   10  A    between atoms: C18_27  and  N4_28 
REMARK       I    between atoms: N4_28  and  C19_30 
REMARK   11  A    between atoms: C19_30  and  C20_32 
REMARK   12  A    between atoms: C20_32  and  C21_33 
REMARK   13  A    between atoms: C29_41  and  C30_42 
REMARK       I    between atoms: C30_42  and  N5_44 
REMARK   14  A    between atoms: N5_44  and  C31_46 
ROOT
HETATM    1  N3  UNL     1      18.922  31.948  14.249  1.00  0.00    -0.346 N 
ATOM      2  H3  UNL     1      19.321  32.473  13.470  1.00  0.00     0.163 HD
HETATM    3  C17 UNL     1      19.082  30.547  14.246  1.00  0.00     0.246 C 
HETATM    4  O4  UNL     1      18.629  29.919  15.233  1.00  0.00    -0.271 OA
ENDROOT
BRANCH   3   5
HETATM    5  C18 UNL     1      19.736  29.784  13.164  1.00  0.00     0.114 C 
HETATM    6  C27 UNL     1      18.957  28.444  12.988  1.00  0.00     0.042 C 
HETATM    7  C28 UNL     1      17.643  28.656  12.311  1.00  0.00     0.017 C 
HETATM    8  C29 UNL     1      17.844  29.265  10.925  1.00  0.00     0.078 C 
HETATM    9  C35 UNL     1      19.244  29.730  10.741  1.00  0.00     0.017 C 
HETATM   10  C36 UNL     1      19.696  30.576  11.902  1.00  0.00     0.042 C 
BRANCH   5  11
HETATM   11  N4  UNL     1      21.077  29.356  13.441  1.00  0.00    -0.343 N 
HETATM   12  C19 UNL     1      22.269  30.070  13.486  1.00  0.00     0.218 C 
HETATM   13  O5  UNL     1      22.371  31.286  13.271  1.00  0.00    -0.274 OA
ATOM     14  H4  UNL     1      21.172  28.360  13.639  1.00  0.00     0.163 HD
BRANCH  12  15
HETATM   15  C20 UNL     1      23.526  29.316  13.823  1.00  0.00     0.107 C 
BRANCH  15  16
HETATM   16  C21 UNL     1      24.494  29.182  12.700  1.00  0.00    -0.006 C 
HETATM   17  C22 UNL     1      23.859  29.063  11.348  1.00  0.00     0.005 C 
HETATM   18  C23 UNL     1      23.023  27.788  11.253  1.00  0.00     0.000 C 
HETATM   19  C24 UNL     1      23.748  26.621  11.852  1.00  0.00     0.000 C 
HETATM   20  C25 UNL     1      25.226  26.882  11.961  1.00  0.00     0.000 C 
HETATM   21  C26 UNL     1      25.454  28.041  12.927  1.00  0.00     0.005 C 
ENDBRANCH  15  16
ENDBRANCH  12  15
ENDBRANCH   5  11
BRANCH   8  22
HETATM   22  C30 UNL     1      17.526  28.250   9.880  1.00  0.00     0.222 C 
HETATM   23  O6  UNL     1      16.389  28.251   9.380  1.00  0.00    -0.273 OA
HETATM   24  N5  UNL     1      18.479  27.295   9.451  1.00  0.00    -0.353 N 
ATOM     25  H5  UNL     1      19.402  27.316   9.884  1.00  0.00     0.163 HD
BRANCH  24  26
HETATM   26  C31 UNL     1      18.230  26.294   8.445  1.00  0.00     0.022 C 
HETATM   27  C32 UNL     1      17.140  25.326   8.854  1.00  0.00     0.037 C 
HETATM   28  C33 UNL     1      19.525  25.509   8.219  1.00  0.00     0.037 C 
HETATM   29  C34 UNL     1      17.836  26.894   7.121  1.00  0.00     0.037 C 
ENDBRANCH  24  26
ENDBRANCH   8  22
ENDBRANCH   3   5
BRANCH   1  30
HETATM   30  C12 UNL     1      18.226  32.703  15.290  1.00  0.00     0.177 C 
BRANCH  30  31
HETATM   31  C11 UNL     1      19.135  33.888  15.644  1.00  0.00     0.243 C 
HETATM   32  N2  UNL     1      20.442  33.594  16.091  1.00  0.00    -0.338 N 
HETATM   33  C7  UNL     1      21.437  34.554  16.546  1.00  0.00     0.134 C 
HETATM   34  C10 UNL     1      20.903  32.219  16.074  1.00  0.00     0.153 C 
HETATM   35  C8  UNL     1      22.755  33.790  16.526  1.00  0.00     0.197 C 
HETATM   36  O2  UNL     1      22.652  32.840  17.580  1.00  0.00    -0.387 OA
HETATM   37  C9  UNL     1      21.801  31.849  17.202  1.00  0.00     0.187 C 
HETATM   38  O3  UNL     1      18.681  35.044  15.521  1.00  0.00    -0.271 OA
BRANCH  33  39
HETATM   39  C6  UNL     1      21.466  35.874  15.970  1.00  0.00     0.006 C 
HETATM   40  C5  UNL     1      21.441  37.161  16.600  1.00  0.00     0.072 C 
BRANCH  40  41
HETATM   41  C4  UNL     1      20.425  37.697  17.476  1.00  0.00     0.241 C 
HETATM   42  N1  UNL     1      19.033  37.534  17.119  1.00  0.00    -0.354 N 
ATOM     43  H1  UNL     1      18.782  37.020  16.274  1.00  0.00     0.163 HD
HETATM   44  O1  UNL     1      20.663  38.298  18.528  1.00  0.00    -0.269 OA
BRANCH  42  45
HETATM   45  C3  UNL     1      17.999  38.096  17.956  1.00  0.00     0.149 C 
BRANCH  45  46
HETATM   46  C2  UNL     1      16.674  37.951  17.221  1.00  0.00    -0.018 C 
HETATM   47  C1  UNL     1      15.524  38.170  17.796  1.00  0.00     0.008 C 
ENDBRANCH  45  46
ENDBRANCH  42  45
ENDBRANCH  40  41
ENDBRANCH  33  39
ENDBRANCH  30  31
BRANCH  30  48
HETATM   48  C13 UNL     1      17.011  33.353  14.735  1.00  0.00     0.038 C 
BRANCH  48  49
HETATM   49  C14 UNL     1      15.759  33.260  15.521  1.00  0.00    -0.020 C 
HETATM   50  C15 UNL     1      15.716  32.303  16.647  1.00  0.00     0.009 C 
HETATM   51  C16 UNL     1      15.368  34.651  16.057  1.00  0.00     0.009 C 
ENDBRANCH  48  49
ENDBRANCH  30  48
ENDBRANCH   1  30
TORSDOF 14
ENDMDL
MODEL 4
REMARK VINA RESULT: -8.191830859      3.549      8.725
REMARK  14 active torsions:
REMARK  status: ('A' for Active; 'I' for Inactive)
REMARK    1  A    between atoms: C2_2  and  C3_3 
REMARK    2  A    between atoms: C3_3  and  N1_4 
REMARK       I    between atoms: N1_4  and  C4_6 
REMARK    3  A    between atoms: C4_6  and  C5_8 
REMARK    4  A    between atoms: C6_9  and  C7_10 
REMARK       I    between atoms: N2_15  and  C11_16 
REMARK    5  A    between atoms: C11_16  and  C12_18 
REMARK    6  A    between atoms: C12_18  and  C13_19 
REMARK    7  A    between atoms: C12_18  and  N3_23 
REMARK    8  A    between atoms: C13_19  and  C14_20 
REMARK       I    between atoms: N3_23  and  C17_25 
REMARK    9  A    between atoms: C17_25  and  C18_27 
REMARK   10  A    between atoms: C18_27  and  N4_28 
REMARK       I    between atoms: N4_28  and  C19_30 
REMARK   11  A    between atoms: C19_30  and  C20_32 
REMARK   12  A    between atoms: C20_32  and  C21_33 
REMARK   13  A    between atoms: C29_41  and  C30_42 
REMARK       I    between atoms: C30_42  and  N5_44 
REMARK   14  A    between atoms: N5_44  and  C31_46 
ROOT
HETATM    1  N3  UNL     1      21.162  38.251  16.604  1.00  0.00    -0.346 N 
ATOM      2  H3  UNL     1      20.473  38.178  15.855  1.00  0.00     0.163 HD
HETATM    3  C17 UNL     1      21.419  37.098  17.374  1.00  0.00     0.246 C 
HETATM    4  O4  UNL     1      22.303  37.189  18.261  1.00  0.00    -0.271 OA
ENDROOT
BRANCH   3   5
HETATM    5  C18 UNL     1      20.719  35.809  17.206  1.00  0.00     0.114 C 
HETATM    6  C27 UNL     1      20.552  35.554  15.677  1.00  0.00     0.042 C 
HETATM    7  C28 UNL     1      21.844  35.159  15.041  1.00  0.00     0.017 C 
HETATM    8  C29 UNL     1      22.385  33.878  15.672  1.00  0.00     0.078 C 
HETATM    9  C35 UNL     1      21.638  33.533  16.910  1.00  0.00     0.017 C 
HETATM   10  C36 UNL     1      21.524  34.720  17.829  1.00  0.00     0.042 C 
BRANCH   5  11
HETATM   11  N4  UNL     1      19.371  35.776  17.699  1.00  0.00    -0.343 N 
HETATM   12  C19 UNL     1      18.388  36.759  17.724  1.00  0.00     0.218 C 
HETATM   13  O5  UNL     1      18.532  37.912  17.295  1.00  0.00    -0.274 OA
ATOM     14  H4  UNL     1      19.087  34.882  18.098  1.00  0.00     0.163 HD
BRANCH  12  15
HETATM   15  C20 UNL     1      17.050  36.397  18.309  1.00  0.00     0.107 C 
BRANCH  15  16
HETATM   16  C21 UNL     1      15.927  36.373  17.334  1.00  0.00    -0.006 C 
HETATM   17  C22 UNL     1      14.775  35.506  17.739  1.00  0.00     0.005 C 
HETATM   18  C23 UNL     1      15.203  34.043  17.826  1.00  0.00     0.000 C 
HETATM   19  C24 UNL     1      16.061  33.660  16.658  1.00  0.00     0.000 C 
HETATM   20  C25 UNL     1      15.902  34.624  15.513  1.00  0.00     0.000 C 
HETATM   21  C26 UNL     1      16.400  35.998  15.951  1.00  0.00     0.005 C 
ENDBRANCH  15  16
ENDBRANCH  12  15
ENDBRANCH   5  11
BRANCH   8  22
HETATM   22  C30 UNL     1      22.268  32.752  14.702  1.00  0.00     0.222 C 
HETATM   23  O6  UNL     1      22.679  32.923  13.543  1.00  0.00    -0.273 OA
HETATM   24  N5  UNL     1      21.701  31.506  15.067  1.00  0.00    -0.353 N 
ATOM     25  H5  UNL     1      21.367  31.398  16.025  1.00  0.00     0.163 HD
BRANCH  24  26
HETATM   26  C31 UNL     1      21.566  30.384  14.175  1.00  0.00     0.022 C 
HETATM   27  C32 UNL     1      20.949  30.775  12.848  1.00  0.00     0.037 C 
HETATM   28  C33 UNL     1      20.665  29.344  14.848  1.00  0.00     0.037 C 
HETATM   29  C34 UNL     1      22.882  29.713  13.888  1.00  0.00     0.037 C 
ENDBRANCH  24  26
ENDBRANCH   8  22
ENDBRANCH   3   5
BRANCH   1  30
HETATM   30  C12 UNL     1      21.813  39.547  16.804  1.00  0.00     0.177 C 
BRANCH  30  31
HETATM   31  C11 UNL     1      21.790  40.254  15.441  1.00  0.00     0.243 C 
HETATM   32  N2  UNL     1      22.918  41.029  15.093  1.00  0.00    -0.338 N 
HETATM   33  C7  UNL     1      23.073  41.837  13.892  1.00  0.00     0.134 C 
HETATM   34  C10 UNL     1      24.080  41.020  15.961  1.00  0.00     0.153 C 
HETATM   35  C8  UNL     1      24.567  42.127  13.806  1.00  0.00     0.197 C 
HETATM   36  O2  UNL     1      24.836  43.015  14.885  1.00  0.00    -0.387 OA
HETATM   37  C9  UNL     1      24.799  42.319  16.053  1.00  0.00     0.187 C 
HETATM   38  O3  UNL     1      20.786  40.111  14.714  1.00  0.00    -0.271 OA
BRANCH  33  39
HETATM   39  C6  UNL     1      22.444  41.416  12.666  1.00  0.00     0.006 C 
HETATM   40  C5  UNL     1      22.976  40.685  11.554  1.00  0.00     0.072 C 
BRANCH  40  41
HETATM   41  C4  UNL     1      24.095  41.045  10.715  1.00  0.00     0.241 C 
HETATM   42  N1  UNL     1      25.023  40.015  10.303  1.00  0.00    -0.354 N 
ATOM     43  H1  UNL     1      24.865  39.046  10.582  1.00  0.00     0.163 HD
HETATM   44  O1  UNL     1      24.323  42.191  10.316  1.00  0.00    -0.269 OA
BRANCH  42  45
HETATM   45  C3  UNL     1      26.174  40.354   9.498  1.00  0.00     0.149 C 
BRANCH  45  46
HETATM   46  C2  UNL     1      25.927  39.833   8.089  1.00  0.00    -0.018 C 
HETATM   47  C1  UNL     1      25.224  38.760   7.850  1.00  0.00     0.008 C 
ENDBRANCH  45  46
ENDBRANCH  42  45
ENDBRANCH  40  41
ENDBRANCH  33  39
ENDBRANCH  30  31
BRANCH  30  48
HETATM   48  C13 UNL     1      20.974  40.421  17.663  1.00  0.00     0.038 C 
BRANCH  48  49
HETATM   49  C14 UNL     1      21.604  41.016  18.863  1.00  0.00    -0.020 C 
HETATM   50  C15 UNL     1      22.845  40.397  19.376  1.00  0.00     0.009 C 
HETATM   51  C16 UNL     1      21.877  42.515  18.629  1.00  0.00     0.009 C 
ENDBRANCH  48  49
ENDBRANCH  30  48
ENDBRANCH   1  30
TORSDOF 14
ENDMDL
MODEL 5
REMARK VINA RESULT: -8.170187058      3.853     11.176
REMARK  14 active torsions:
REMARK  status: ('A' for Active; 'I' for Inactive)
REMARK    1  A    between atoms: C2_2  and  C3_3 
REMARK    2  A    between atoms: C3_3  and  N1_4 
REMARK       I    between atoms: N1_4  and  C4_6 
REMARK    3  A    between atoms: C4_6  and  C5_8 
REMARK    4  A    between atoms: C6_9  and  C7_10 
REMARK       I    between atoms: N2_15  and  C11_16 
REMARK    5  A    between atoms: C11_16  and  C12_18 
REMARK    6  A    between atoms: C12_18  and  C13_19 
REMARK    7  A    between atoms: C12_18  and  N3_23 
REMARK    8  A    between atoms: C13_19  and  C14_20 
REMARK       I    between atoms: N3_23  and  C17_25 
REMARK    9  A    between atoms: C17_25  and  C18_27 
REMARK   10  A    between atoms: C18_27  and  N4_28 
REMARK       I    between atoms: N4_28  and  C19_30 
REMARK   11  A    between atoms: C19_30  and  C20_32 
REMARK   12  A    between atoms: C20_32  and  C21_33 
REMARK   13  A    between atoms: C29_41  and  C30_42 
REMARK       I    between atoms: C30_42  and  N5_44 
REMARK   14  A    between atoms: N5_44  and  C31_46 
ROOT
HETATM    1  N3  UNL     1      19.842  37.485  16.646  1.00  0.00    -0.346 N 
ATOM      2  H3  UNL     1      19.385  37.390  15.738  1.00  0.00     0.163 HD
HETATM    3  C17 UNL     1      19.028  37.760  17.764  1.00  0.00     0.246 C 
HETATM    4  O4  UNL     1      19.596  37.827  18.881  1.00  0.00    -0.271 OA
ENDROOT
BRANCH   3   5
HETATM    5  C18 UNL     1      17.568  37.974  17.701  1.00  0.00     0.114 C 
HETATM    6  C27 UNL     1      17.119  38.593  19.060  1.00  0.00     0.042 C 
HETATM    7  C28 UNL     1      17.523  40.027  19.171  1.00  0.00     0.017 C 
HETATM    8  C29 UNL     1      16.892  40.852  18.051  1.00  0.00     0.078 C 
HETATM    9  C35 UNL     1      16.288  39.975  17.014  1.00  0.00     0.017 C 
HETATM   10  C36 UNL     1      17.249  38.901  16.578  1.00  0.00     0.042 C 
BRANCH   5  11
HETATM   11  N4  UNL     1      16.778  36.780  17.602  1.00  0.00    -0.343 N 
HETATM   12  C19 UNL     1      16.994  35.502  18.105  1.00  0.00     0.218 C 
HETATM   13  O5  UNL     1      17.985  35.163  18.768  1.00  0.00    -0.274 OA
ATOM     14  H4  UNL     1      15.913  36.887  17.073  1.00  0.00     0.163 HD
BRANCH  12  15
HETATM   15  C20 UNL     1      15.950  34.455  17.829  1.00  0.00     0.107 C 
BRANCH  15  16
HETATM   16  C21 UNL     1      15.654  34.233  16.387  1.00  0.00    -0.006 C 
HETATM   17  C22 UNL     1      15.555  32.792  15.992  1.00  0.00     0.005 C 
HETATM   18  C23 UNL     1      16.891  32.081  16.195  1.00  0.00     0.000 C 
HETATM   19  C24 UNL     1      18.031  32.921  15.703  1.00  0.00     0.000 C 
HETATM   20  C25 UNL     1      17.562  33.990  14.752  1.00  0.00     0.000 C 
HETATM   21  C26 UNL     1      16.642  34.949  15.501  1.00  0.00     0.005 C 
ENDBRANCH  15  16
ENDBRANCH  12  15
ENDBRANCH   5  11
BRANCH   8  22
HETATM   22  C30 UNL     1      15.836  41.740  18.614  1.00  0.00     0.222 C 
HETATM   23  O6  UNL     1      14.766  41.856  17.995  1.00  0.00    -0.273 OA
HETATM   24  N5  UNL     1      16.025  42.451  19.825  1.00  0.00    -0.353 N 
ATOM     25  H5  UNL     1      16.917  42.341  20.308  1.00  0.00     0.163 HD
BRANCH  24  26
HETATM   26  C31 UNL     1      15.041  43.320  20.418  1.00  0.00     0.022 C 
HETATM   27  C32 UNL     1      14.533  44.362  19.444  1.00  0.00     0.037 C 
HETATM   28  C33 UNL     1      15.689  44.035  21.607  1.00  0.00     0.037 C 
HETATM   29  C34 UNL     1      13.850  42.567  20.946  1.00  0.00     0.037 C 
ENDBRANCH  24  26
ENDBRANCH   8  22
ENDBRANCH   3   5
BRANCH   1  30
HETATM   30  C12 UNL     1      21.296  37.328  16.694  1.00  0.00     0.177 C 
BRANCH  30  31
HETATM   31  C11 UNL     1      21.634  36.161  15.756  1.00  0.00     0.243 C 
HETATM   32  N2  UNL     1      21.759  34.878  16.334  1.00  0.00    -0.338 N 
HETATM   33  C7  UNL     1      22.144  33.655  15.646  1.00  0.00     0.134 C 
HETATM   34  C10 UNL     1      21.441  34.699  17.738  1.00  0.00     0.153 C 
HETATM   35  C8  UNL     1      21.743  32.530  16.594  1.00  0.00     0.197 C 
HETATM   36  O2  UNL     1      22.640  32.633  17.694  1.00  0.00    -0.387 OA
HETATM   37  C9  UNL     1      22.295  33.710  18.449  1.00  0.00     0.187 C 
HETATM   38  O3  UNL     1      21.781  36.399  14.540  1.00  0.00    -0.271 OA
BRANCH  33  39
HETATM   39  C6  UNL     1      21.780  33.472  14.264  1.00  0.00     0.006 C 
HETATM   40  C5  UNL     1      21.074  32.400  13.626  1.00  0.00     0.072 C 
BRANCH  40  41
HETATM   41  C4  UNL     1      21.435  31.002  13.590  1.00  0.00     0.241 C 
HETATM   42  N1  UNL     1      22.835  30.639  13.578  1.00  0.00    -0.354 N 
ATOM     43  H1  UNL     1      23.550  31.365  13.625  1.00  0.00     0.163 HD
HETATM   44  O1  UNL     1      20.620  30.075  13.567  1.00  0.00    -0.269 OA
BRANCH  42  45
HETATM   45  C3  UNL     1      23.224  29.249  13.501  1.00  0.00     0.149 C 
BRANCH  45  46
HETATM   46  C2  UNL     1      24.601  29.185  12.857  1.00  0.00    -0.018 C 
HETATM   47  C1  UNL     1      24.785  28.773  11.633  1.00  0.00     0.008 C 
ENDBRANCH  45  46
ENDBRANCH  42  45
ENDBRANCH  40  41
ENDBRANCH  33  39
ENDBRANCH  30  31
BRANCH  30  48
HETATM   48  C13 UNL     1      21.964  38.491  16.056  1.00  0.00     0.038 C 
BRANCH  48  49
HETATM   49  C14 UNL     1      21.111  39.615  15.607  1.00  0.00    -0.020 C 
HETATM   50  C15 UNL     1      21.070  40.833  16.443  1.00  0.00     0.009 C 
HETATM   51  C16 UNL     1      21.494  40.029  14.173  1.00  0.00     0.009 C 
ENDBRANCH  48  49
ENDBRANCH  30  48
ENDBRANCH   1  30
TORSDOF 14
ENDMDL
