MODEL 1
REMARK VINA RESULT: -8.161342847      0.000      0.000
REMARK  16 active torsions:
REMARK  status: ('A' for Active; 'I' for Inactive)
REMARK    1  A    between atoms: C2_2  and  C3_3 
REMARK    2  A    between atoms: C4_4  and  C5_5 
REMARK    3  A    between atoms: C6_6  and  C7_7 
REMARK    4  A    between atoms: C13_13  and  N1_14 
REMARK       I    between atoms: N1_14  and  C14_16 
REMARK    5  A    between atoms: C14_16  and  C15_18 
REMARK    6  A    between atoms: C15_18  and  N2_19 
REMARK    7  A    between atoms: C15_18  and  C21_27 
REMARK       I    between atoms: N2_19  and  C16_21 
REMARK    8  A    between atoms: C16_21  and  C17_23 
REMARK    9  A    between atoms: C17_23  and  C18_24 
REMARK       I    between atoms: C21_27  and  N3_29 
REMARK   10  A    between atoms: N3_29  and  C22_31 
REMARK   11  A    between atoms: C22_31  and  C23_32 
REMARK   12  A    between atoms: C23_32  and  C24_33 
REMARK   13  A    between atoms: C24_33  and  C25_34 
REMARK   14  A    between atoms: N5_44  and  C31_45 
REMARK   15  A    between atoms: C31_45  and  C32_46 
REMARK   16  A    between atoms: C32_46  and  C33_47 
ROOT
HETATM    1  N1  UNL     1      20.266  31.779  12.613  1.00  0.00    -0.353 N 
ATOM      2  H1  UNL     1      21.248  32.048  12.544  1.00  0.00     0.163 HD
HETATM    3  C14 UNL     1      19.615  32.143  13.789  1.00  0.00     0.250 C 
HETATM    4  O1  UNL     1      18.390  31.792  13.952  1.00  0.00    -0.271 OA
ENDROOT
BRANCH   3   5
HETATM    5  C15 UNL     1      20.180  32.915  14.924  1.00  0.00     0.269 C 
BRANCH   5   6
HETATM    6  N2  UNL     1      20.971  34.046  14.533  1.00  0.00    -0.340 N 
HETATM    7  C16 UNL     1      22.050  34.578  15.298  1.00  0.00     0.218 C 
HETATM    8  O2  UNL     1      22.341  34.015  16.373  1.00  0.00    -0.274 OA
ATOM      9  H2  UNL     1      20.747  34.500  13.648  1.00  0.00     0.163 HD
BRANCH   7  10
HETATM   10  C17 UNL     1      22.818  35.762  14.864  1.00  0.00     0.106 C 
BRANCH  10  11
HETATM   11  C18 UNL     1      22.281  37.042  15.499  1.00  0.00    -0.014 C 
HETATM   12  C19 UNL     1      21.901  37.995  14.368  1.00  0.00     0.010 C 
HETATM   13  C20 UNL     1      23.378  37.722  16.296  1.00  0.00     0.010 C 
ENDBRANCH  10  11
ENDBRANCH   7  10
ENDBRANCH   5   6
BRANCH   5  14
HETATM   14  C21 UNL     1      19.167  33.193  15.958  1.00  0.00     0.253 C 
HETATM   15  O3  UNL     1      18.235  32.412  16.246  1.00  0.00    -0.270 OA
HETATM   16  N3  UNL     1      19.208  34.428  16.706  1.00  0.00    -0.339 N 
ATOM     17  H3  UNL     1      19.953  35.092  16.490  1.00  0.00     0.167 HD
BRANCH  16  18
HETATM   18  C22 UNL     1      18.291  34.776  17.711  1.00  0.00     0.064 C 
BRANCH  18  19
HETATM   19  C23 UNL     1      17.139  35.657  17.469  1.00  0.00     0.045 C 
BRANCH  19  20
HETATM   20  C24 UNL     1      15.812  35.013  17.404  1.00  0.00     0.010 C 
BRANCH  20  21
HETATM   21  C25 UNL     1      15.066  35.041  16.117  1.00  0.00    -0.011 C 
HETATM   22  C26 UNL     1      14.138  33.834  16.059  1.00  0.00     0.032 C 
HETATM   23  C27 UNL     1      14.920  32.576  15.885  1.00  0.00     0.232 C 
HETATM   24  N4  UNL     1      15.552  32.549  14.593  1.00  0.00    -0.075 N 
HETATM   25  C28 UNL     1      15.709  33.843  13.987  1.00  0.00     0.232 C 
ATOM     26  H42 UNL     1      16.449  32.068  14.645  1.00  0.00     0.277 HD
ATOM     27  H41 UNL     1      15.054  31.920  13.964  1.00  0.00     0.277 HD
HETATM   28  C29 UNL     1      16.101  34.892  15.009  1.00  0.00     0.032 C 
ENDBRANCH  20  21
ENDBRANCH  19  20
ENDBRANCH  18  19
ENDBRANCH  16  18
ENDBRANCH   5  14
ENDBRANCH   3   5
BRANCH   1  29
HETATM   29  C13 UNL     1      19.719  31.065  11.476  1.00  0.00     0.104 A 
HETATM   30  C11 UNL     1      20.055  29.620  11.220  1.00  0.00     0.073 A 
HETATM   31  C4  UNL     1      20.638  28.799  12.307  1.00  0.00     0.055 C 
HETATM   32  C12 UNL     1      20.740  30.649  10.413  1.00  0.00     0.048 A 
HETATM   33  C30 UNL     1      19.088  28.730  10.560  1.00  0.00     0.236 C 
HETATM   34  C3  UNL     1      19.858  27.540  12.369  1.00  0.00     0.123 C 
HETATM   35  N5  UNL     1      18.839  27.596  11.363  1.00  0.00    -0.319 N 
HETATM   36  O4  UNL     1      18.542  28.928   9.430  1.00  0.00    -0.272 OA
BRANCH  31  37
HETATM   37  C5  UNL     1      22.098  28.643  12.041  1.00  0.00    -0.022 C 
HETATM   38  C6  UNL     1      22.754  27.635  11.602  1.00  0.00    -0.022 C 
BRANCH  38  39
HETATM   39  C7  UNL     1      24.239  27.706  11.411  1.00  0.00    -0.034 C 
HETATM   40  C8  UNL     1      24.826  26.293  11.377  1.00  0.00     0.018 C 
HETATM   41  C9  UNL     1      24.904  28.534  12.468  1.00  0.00     0.018 C 
HETATM   42  C10 UNL     1      24.589  28.316  10.051  1.00  0.00     0.018 C 
ENDBRANCH  38  39
ENDBRANCH  31  37
BRANCH  34  43
HETATM   43  C2  UNL     1      19.068  27.582  13.683  1.00  0.00    -0.011 C 
HETATM   44  C1  UNL     1      19.383  28.455  14.618  1.00  0.00     0.009 C 
ENDBRANCH  34  43
BRANCH  35  45
HETATM   45  C31 UNL     1      17.696  26.746  11.253  1.00  0.00     0.091 C 
BRANCH  45  46
HETATM   46  C32 UNL     1      17.804  25.293  11.172  1.00  0.00    -0.005 C 
BRANCH  46  47
HETATM   47  C33 UNL     1      18.798  24.590  10.353  1.00  0.00     0.009 C 
HETATM   48  C34 UNL     1      20.059  24.295  11.070  1.00  0.00     0.008 C 
HETATM   49  C35 UNL     1      21.209  24.697  10.171  1.00  0.00     0.001 C 
HETATM   50  C36 UNL     1      20.652  25.206   8.883  1.00  0.00     0.001 C 
HETATM   51  C37 UNL     1      19.192  25.383   9.115  1.00  0.00     0.008 C 
ENDBRANCH  46  47
ENDBRANCH  45  46
ENDBRANCH  35  45
ENDBRANCH   1  29
TORSDOF 16
ENDMDL
MODEL 2
REMARK VINA RESULT: -7.917055055      1.663      2.563
REMARK  16 active torsions:
REMARK  status: ('A' for Active; 'I' for Inactive)
REMARK    1  A    between atoms: C2_2  and  C3_3 
REMARK    2  A    between atoms: C4_4  and  C5_5 
REMARK    3  A    between atoms: C6_6  and  C7_7 
REMARK    4  A    between atoms: C13_13  and  N1_14 
REMARK       I    between atoms: N1_14  and  C14_16 
REMARK    5  A    between atoms: C14_16  and  C15_18 
REMARK    6  A    between atoms: C15_18  and  N2_19 
REMARK    7  A    between atoms: C15_18  and  C21_27 
REMARK       I    between atoms: N2_19  and  C16_21 
REMARK    8  A    between atoms: C16_21  and  C17_23 
REMARK    9  A    between atoms: C17_23  and  C18_24 
REMARK       I    between atoms: C21_27  and  N3_29 
REMARK   10  A    between atoms: N3_29  and  C22_31 
REMARK   11  A    between atoms: C22_31  and  C23_32 
REMARK   12  A    between atoms: C23_32  and  C24_33 
REMARK   13  A    between atoms: C24_33  and  C25_34 
REMARK   14  A    between atoms: N5_44  and  C31_45 
REMARK   15  A    between atoms: C31_45  and  C32_46 
REMARK   16  A    between atoms: C32_46  and  C33_47 
ROOT
HETATM    1  N1  UNL     1      19.774  31.790  12.740  1.00  0.00    -0.353 N 
ATOM      2  H1  UNL     1      20.776  31.977  12.794  1.00  0.00     0.163 HD
HETATM    3  C14 UNL     1      19.011  32.243  13.813  1.00  0.00     0.250 C 
HETATM    4  O1  UNL     1      17.750  31.998  13.823  1.00  0.00    -0.271 OA
ENDROOT
BRANCH   3   5
HETATM    5  C15 UNL     1      19.489  33.006  14.994  1.00  0.00     0.269 C 
BRANCH   5   6
HETATM    6  N2  UNL     1      20.473  34.005  14.693  1.00  0.00    -0.340 N 
HETATM    7  C16 UNL     1      21.645  34.241  15.470  1.00  0.00     0.218 C 
HETATM    8  O2  UNL     1      21.842  33.520  16.469  1.00  0.00    -0.274 OA
ATOM      9  H2  UNL     1      20.324  34.587  13.869  1.00  0.00     0.163 HD
BRANCH   7  10
HETATM   10  C17 UNL     1      22.615  35.302  15.133  1.00  0.00     0.106 C 
BRANCH  10  11
HETATM   11  C18 UNL     1      22.181  36.656  15.687  1.00  0.00    -0.014 C 
HETATM   12  C19 UNL     1      21.858  37.559  14.499  1.00  0.00     0.010 C 
HETATM   13  C20 UNL     1      23.333  37.303  16.431  1.00  0.00     0.010 C 
ENDBRANCH  10  11
ENDBRANCH   7  10
ENDBRANCH   5   6
BRANCH   5  14
HETATM   14  C21 UNL     1      18.372  33.466  15.839  1.00  0.00     0.253 C 
HETATM   15  O3  UNL     1      18.261  33.194  17.054  1.00  0.00    -0.270 OA
HETATM   16  N3  UNL     1      17.317  34.277  15.275  1.00  0.00    -0.339 N 
ATOM     17  H3  UNL     1      17.374  34.510  14.284  1.00  0.00     0.167 HD
BRANCH  16  18
HETATM   18  C22 UNL     1      16.219  34.764  16.003  1.00  0.00     0.064 C 
BRANCH  18  19
HETATM   19  C23 UNL     1      16.328  35.866  16.970  1.00  0.00     0.045 C 
BRANCH  19  20
HETATM   20  C24 UNL     1      16.992  37.098  16.501  1.00  0.00     0.010 C 
BRANCH  20  21
HETATM   21  C25 UNL     1      16.286  38.397  16.667  1.00  0.00    -0.011 C 
HETATM   22  C26 UNL     1      17.311  39.523  16.631  1.00  0.00     0.032 C 
HETATM   23  C27 UNL     1      18.146  39.516  17.868  1.00  0.00     0.232 C 
HETATM   24  N4  UNL     1      17.348  39.852  19.017  1.00  0.00    -0.075 N 
HETATM   25  C28 UNL     1      15.937  39.646  18.836  1.00  0.00     0.232 C 
ATOM     26  H42 UNL     1      17.679  39.350  19.841  1.00  0.00     0.277 HD
ATOM     27  H41 UNL     1      17.534  40.810  19.313  1.00  0.00     0.277 HD
HETATM   28  C29 UNL     1      15.656  38.378  18.054  1.00  0.00     0.032 C 
ENDBRANCH  20  21
ENDBRANCH  19  20
ENDBRANCH  18  19
ENDBRANCH  16  18
ENDBRANCH   5  14
ENDBRANCH   3   5
BRANCH   1  29
HETATM   29  C13 UNL     1      19.320  31.085  11.558  1.00  0.00     0.104 A 
HETATM   30  C11 UNL     1      19.745  29.668  11.276  1.00  0.00     0.073 A 
HETATM   31  C4  UNL     1      20.321  28.845  12.365  1.00  0.00     0.055 C 
HETATM   32  C12 UNL     1      20.409  30.757  10.533  1.00  0.00     0.048 A 
HETATM   33  C30 UNL     1      18.859  28.750  10.545  1.00  0.00     0.236 C 
HETATM   34  C3  UNL     1      19.608  27.545  12.353  1.00  0.00     0.123 C 
HETATM   35  N5  UNL     1      18.635  27.580  11.301  1.00  0.00    -0.319 N 
HETATM   36  O4  UNL     1      18.356  28.955   9.397  1.00  0.00    -0.272 OA
BRANCH  31  37
HETATM   37  C5  UNL     1      21.798  28.775  12.164  1.00  0.00    -0.022 C 
HETATM   38  C6  UNL     1      22.525  27.825  11.707  1.00  0.00    -0.022 C 
BRANCH  38  39
HETATM   39  C7  UNL     1      24.012  27.978  11.594  1.00  0.00    -0.034 C 
HETATM   40  C8  UNL     1      24.675  26.599  11.567  1.00  0.00     0.018 C 
HETATM   41  C9  UNL     1      24.577  28.820  12.698  1.00  0.00     0.018 C 
HETATM   42  C10 UNL     1      24.396  28.632  10.264  1.00  0.00     0.018 C 
ENDBRANCH  38  39
ENDBRANCH  31  37
BRANCH  34  43
HETATM   43  C2  UNL     1      18.757  27.503  13.629  1.00  0.00    -0.011 C 
HETATM   44  C1  UNL     1      18.525  28.609  14.305  1.00  0.00     0.009 C 
ENDBRANCH  34  43
BRANCH  35  45
HETATM   45  C31 UNL     1      17.546  26.675  11.112  1.00  0.00     0.091 C 
BRANCH  45  46
HETATM   46  C32 UNL     1      17.729  25.227  11.062  1.00  0.00    -0.005 C 
BRANCH  46  47
HETATM   47  C33 UNL     1      18.806  24.563  10.322  1.00  0.00     0.009 C 
HETATM   48  C34 UNL     1      19.978  24.216  11.157  1.00  0.00     0.008 C 
HETATM   49  C35 UNL     1      21.223  24.658  10.418  1.00  0.00     0.001 C 
HETATM   50  C36 UNL     1      20.816  25.244   9.106  1.00  0.00     0.001 C 
HETATM   51  C37 UNL     1      19.339  25.421   9.183  1.00  0.00     0.008 C 
ENDBRANCH  46  47
ENDBRANCH  45  46
ENDBRANCH  35  45
ENDBRANCH   1  29
TORSDOF 16
ENDMDL
MODEL 3
REMARK VINA RESULT: -7.889840744      1.324      2.299
REMARK  16 active torsions:
REMARK  status: ('A' for Active; 'I' for Inactive)
REMARK    1  A    between atoms: C2_2  and  C3_3 
REMARK    2  A    between atoms: C4_4  and  C5_5 
REMARK    3  A    between atoms: C6_6  and  C7_7 
REMARK    4  A    between atoms: C13_13  and  N1_14 
REMARK       I    between atoms: N1_14  and  C14_16 
REMARK    5  A    between atoms: C14_16  and  C15_18 
REMARK    6  A    between atoms: C15_18  and  N2_19 
REMARK    7  A    between atoms: C15_18  and  C21_27 
REMARK       I    between atoms: N2_19  and  C16_21 
REMARK    8  A    between atoms: C16_21  and  C17_23 
REMARK    9  A    between atoms: C17_23  and  C18_24 
REMARK       I    between atoms: C21_27  and  N3_29 
REMARK   10  A    between atoms: N3_29  and  C22_31 
REMARK   11  A    between atoms: C22_31  and  C23_32 
REMARK   12  A    between atoms: C23_32  and  C24_33 
REMARK   13  A    between atoms: C24_33  and  C25_34 
REMARK   14  A    between atoms: N5_44  and  C31_45 
REMARK   15  A    between atoms: C31_45  and  C32_46 
REMARK   16  A    between atoms: C32_46  and  C33_47 
ROOT
HETATM    1  N1  UNL     1      19.838  31.837  12.679  1.00  0.00    -0.353 N 
ATOM      2  H1  UNL     1      20.802  32.166  12.623  1.00  0.00     0.163 HD
HETATM    3  C14 UNL     1      19.157  32.138  13.856  1.00  0.00     0.250 C 
HETATM    4  O1  UNL     1      17.955  31.712  14.002  1.00  0.00    -0.271 OA
ENDROOT
BRANCH   3   5
HETATM    5  C15 UNL     1      19.666  32.922  15.010  1.00  0.00     0.269 C 
BRANCH   5   6
HETATM    6  N2  UNL     1      20.576  33.973  14.656  1.00  0.00    -0.340 N 
HETATM    7  C16 UNL     1      21.749  34.306  15.394  1.00  0.00     0.218 C 
HETATM    8  O2  UNL     1      22.017  33.629  16.407  1.00  0.00    -0.274 OA
ATOM      9  H2  UNL     1      20.369  34.519  13.819  1.00  0.00     0.163 HD
BRANCH   7  10
HETATM   10  C17 UNL     1      22.640  35.416  15.001  1.00  0.00     0.106 C 
BRANCH  10  11
HETATM   11  C18 UNL     1      22.202  36.736  15.631  1.00  0.00    -0.014 C 
HETATM   12  C19 UNL     1      21.862  37.699  14.497  1.00  0.00     0.010 C 
HETATM   13  C20 UNL     1      23.357  37.350  16.399  1.00  0.00     0.010 C 
ENDBRANCH  10  11
ENDBRANCH   7  10
ENDBRANCH   5   6
BRANCH   5  14
HETATM   14  C21 UNL     1      18.581  33.320  15.925  1.00  0.00     0.253 C 
HETATM   15  O3  UNL     1      18.757  33.611  17.127  1.00  0.00    -0.270 OA
HETATM   16  N3  UNL     1      17.217  33.385  15.453  1.00  0.00    -0.339 N 
ATOM     17  H3  UNL     1      17.038  33.146  14.478  1.00  0.00     0.167 HD
BRANCH  16  18
HETATM   18  C22 UNL     1      16.122  33.758  16.250  1.00  0.00     0.064 C 
BRANCH  18  19
HETATM   19  C23 UNL     1      15.449  35.059  16.122  1.00  0.00     0.045 C 
BRANCH  19  20
HETATM   20  C24 UNL     1      16.316  36.247  15.999  1.00  0.00     0.010 C 
BRANCH  20  21
HETATM   21  C25 UNL     1      16.926  36.817  17.231  1.00  0.00    -0.011 C 
HETATM   22  C26 UNL     1      16.242  38.140  17.552  1.00  0.00     0.032 C 
HETATM   23  C27 UNL     1      16.624  39.186  16.559  1.00  0.00     0.232 C 
HETATM   24  N4  UNL     1      18.019  39.514  16.682  1.00  0.00    -0.075 N 
HETATM   25  C28 UNL     1      18.808  38.500  17.328  1.00  0.00     0.232 C 
ATOM     26  H42 UNL     1      18.413  39.746  15.771  1.00  0.00     0.277 HD
ATOM     27  H41 UNL     1      18.135  40.410  17.154  1.00  0.00     0.277 HD
HETATM   28  C29 UNL     1      18.384  37.109  16.900  1.00  0.00     0.032 C 
ENDBRANCH  20  21
ENDBRANCH  19  20
ENDBRANCH  18  19
ENDBRANCH  16  18
ENDBRANCH   5  14
ENDBRANCH   3   5
BRANCH   1  29
HETATM   29  C13 UNL     1      19.344  31.114  11.524  1.00  0.00     0.104 A 
HETATM   30  C11 UNL     1      19.772  29.699  11.241  1.00  0.00     0.073 A 
HETATM   31  C4  UNL     1      20.400  28.894  12.314  1.00  0.00     0.055 C 
HETATM   32  C12 UNL     1      20.395  30.785  10.460  1.00  0.00     0.048 A 
HETATM   33  C30 UNL     1      18.867  28.763  10.556  1.00  0.00     0.236 C 
HETATM   34  C3  UNL     1      19.701  27.587  12.346  1.00  0.00     0.123 C 
HETATM   35  N5  UNL     1      18.686  27.600  11.334  1.00  0.00    -0.319 N 
HETATM   36  O4  UNL     1      18.316  28.950   9.427  1.00  0.00    -0.272 OA
BRANCH  31  37
HETATM   37  C5  UNL     1      21.868  28.836  12.055  1.00  0.00    -0.022 C 
HETATM   38  C6  UNL     1      22.612  27.845  11.734  1.00  0.00    -0.022 C 
BRANCH  38  39
HETATM   39  C7  UNL     1      24.085  28.022  11.522  1.00  0.00    -0.034 C 
HETATM   40  C8  UNL     1      24.679  28.845  12.667  1.00  0.00     0.018 C 
HETATM   41  C9  UNL     1      24.391  28.653  10.198  1.00  0.00     0.018 C 
HETATM   42  C10 UNL     1      24.813  26.677  11.577  1.00  0.00     0.018 C 
ENDBRANCH  38  39
ENDBRANCH  31  37
BRANCH  34  43
HETATM   43  C2  UNL     1      18.902  27.552  13.655  1.00  0.00    -0.011 C 
HETATM   44  C1  UNL     1      19.126  28.450  14.592  1.00  0.00     0.009 C 
ENDBRANCH  34  43
BRANCH  35  45
HETATM   45  C31 UNL     1      17.599  26.682  11.199  1.00  0.00     0.091 C 
BRANCH  45  46
HETATM   46  C32 UNL     1      17.797  25.236  11.143  1.00  0.00    -0.005 C 
BRANCH  46  47
HETATM   47  C33 UNL     1      18.833  24.581  10.339  1.00  0.00     0.009 C 
HETATM   48  C34 UNL     1      20.051  24.233  11.105  1.00  0.00     0.008 C 
HETATM   49  C35 UNL     1      21.251  24.686  10.302  1.00  0.00     0.001 C 
HETATM   50  C36 UNL     1      20.771  25.279   9.019  1.00  0.00     0.001 C 
HETATM   51  C37 UNL     1      19.300  25.450   9.179  1.00  0.00     0.008 C 
ENDBRANCH  46  47
ENDBRANCH  45  46
ENDBRANCH  35  45
ENDBRANCH   1  29
TORSDOF 16
ENDMDL
MODEL 4
REMARK VINA RESULT: -7.673660813      4.818     11.339
REMARK  16 active torsions:
REMARK  status: ('A' for Active; 'I' for Inactive)
REMARK    1  A    between atoms: C2_2  and  C3_3 
REMARK    2  A    between atoms: C4_4  and  C5_5 
REMARK    3  A    between atoms: C6_6  and  C7_7 
REMARK    4  A    between atoms: C13_13  and  N1_14 
REMARK       I    between atoms: N1_14  and  C14_16 
REMARK    5  A    between atoms: C14_16  and  C15_18 
REMARK    6  A    between atoms: C15_18  and  N2_19 
REMARK    7  A    between atoms: C15_18  and  C21_27 
REMARK       I    between atoms: N2_19  and  C16_21 
REMARK    8  A    between atoms: C16_21  and  C17_23 
REMARK    9  A    between atoms: C17_23  and  C18_24 
REMARK       I    between atoms: C21_27  and  N3_29 
REMARK   10  A    between atoms: N3_29  and  C22_31 
REMARK   11  A    between atoms: C22_31  and  C23_32 
REMARK   12  A    between atoms: C23_32  and  C24_33 
REMARK   13  A    between atoms: C24_33  and  C25_34 
REMARK   14  A    between atoms: N5_44  and  C31_45 
REMARK   15  A    between atoms: C31_45  and  C32_46 
REMARK   16  A    between atoms: C32_46  and  C33_47 
ROOT
HETATM    1  N1  UNL     1      19.261  25.676   6.910  1.00  0.00    -0.353 N 
ATOM      2  H1  UNL     1      19.937  26.429   6.782  1.00  0.00     0.163 HD
HETATM    3  C14 UNL     1      18.501  25.339   5.792  1.00  0.00     0.250 C 
HETATM    4  O1  UNL     1      17.603  24.428   5.906  1.00  0.00    -0.271 OA
ENDROOT
BRANCH   3   5
HETATM    5  C15 UNL     1      18.603  25.924   4.432  1.00  0.00     0.269 C 
BRANCH   5   6
HETATM    6  N2  UNL     1      18.564  27.357   4.400  1.00  0.00    -0.340 N 
HETATM    7  C16 UNL     1      18.026  28.125   3.326  1.00  0.00     0.218 C 
HETATM    8  O2  UNL     1      17.538  27.514   2.354  1.00  0.00    -0.274 OA
ATOM      9  H2  UNL     1      18.948  27.862   5.199  1.00  0.00     0.163 HD
BRANCH   7  10
HETATM   10  C17 UNL     1      18.034  29.602   3.330  1.00  0.00     0.106 C 
BRANCH  10  11
HETATM   11  C18 UNL     1      17.274  30.170   2.134  1.00  0.00    -0.014 C 
HETATM   12  C19 UNL     1      18.116  31.300   1.547  1.00  0.00     0.010 C 
HETATM   13  C20 UNL     1      15.969  30.789   2.598  1.00  0.00     0.010 C 
ENDBRANCH  10  11
ENDBRANCH   7  10
ENDBRANCH   5   6
BRANCH   5  14
HETATM   14  C21 UNL     1      19.696  25.314   3.652  1.00  0.00     0.253 C 
HETATM   15  O3  UNL     1      19.535  24.366   2.853  1.00  0.00    -0.270 OA
HETATM   16  N3  UNL     1      21.049  25.800   3.789  1.00  0.00    -0.339 N 
ATOM     17  H3  UNL     1      21.216  26.569   4.439  1.00  0.00     0.167 HD
BRANCH  16  18
HETATM   18  C22 UNL     1      22.150  25.285   3.085  1.00  0.00     0.064 C 
BRANCH  18  19
HETATM   19  C23 UNL     1      23.059  24.279   3.652  1.00  0.00     0.045 C 
BRANCH  19  20
HETATM   20  C24 UNL     1      24.358  24.766   4.157  1.00  0.00     0.010 C 
BRANCH  20  21
HETATM   21  C25 UNL     1      24.567  24.852   5.628  1.00  0.00    -0.011 C 
HETATM   22  C26 UNL     1      25.701  23.914   6.020  1.00  0.00     0.032 C 
HETATM   23  C27 UNL     1      25.273  22.490   5.896  1.00  0.00     0.232 C 
HETATM   24  N4  UNL     1      24.258  22.181   6.868  1.00  0.00    -0.075 N 
HETATM   25  C28 UNL     1      23.559  23.330   7.374  1.00  0.00     0.232 C 
ATOM     26  H42 UNL     1      23.599  21.500   6.491  1.00  0.00     0.277 HD
ATOM     27  H41 UNL     1      24.652  21.636   7.635  1.00  0.00     0.277 HD
HETATM   28  C29 UNL     1      23.288  24.344   6.281  1.00  0.00     0.032 C 
ENDBRANCH  20  21
ENDBRANCH  19  20
ENDBRANCH  18  19
ENDBRANCH  16  18
ENDBRANCH   5  14
ENDBRANCH   3   5
BRANCH   1  29
HETATM   29  C13 UNL     1      19.208  25.086   8.233  1.00  0.00     0.104 A 
HETATM   30  C11 UNL     1      19.820  25.773   9.425  1.00  0.00     0.073 A 
HETATM   31  C4  UNL     1      20.153  27.214   9.349  1.00  0.00     0.055 C 
HETATM   32  C12 UNL     1      20.558  24.652   8.811  1.00  0.00     0.048 A 
HETATM   33  C30 UNL     1      19.251  25.594  10.769  1.00  0.00     0.236 C 
HETATM   34  C3  UNL     1      19.591  27.857  10.562  1.00  0.00     0.123 C 
HETATM   35  N5  UNL     1      18.938  26.845  11.340  1.00  0.00    -0.319 N 
HETATM   36  O4  UNL     1      19.060  24.483  11.356  1.00  0.00    -0.272 OA
BRANCH  31  37
HETATM   37  C5  UNL     1      21.629  27.342   9.175  1.00  0.00    -0.022 C 
HETATM   38  C6  UNL     1      22.558  27.450  10.050  1.00  0.00    -0.022 C 
BRANCH  38  39
HETATM   39  C7  UNL     1      23.995  27.569   9.639  1.00  0.00    -0.034 C 
HETATM   40  C8  UNL     1      24.794  28.267  10.742  1.00  0.00     0.018 C 
HETATM   41  C9  UNL     1      24.149  28.288   8.333  1.00  0.00     0.018 C 
HETATM   42  C10 UNL     1      24.640  26.189   9.491  1.00  0.00     0.018 C 
ENDBRANCH  38  39
ENDBRANCH  31  37
BRANCH  34  43
HETATM   43  C2  UNL     1      18.435  28.746  10.086  1.00  0.00    -0.011 C 
HETATM   44  C1  UNL     1      17.623  28.326   9.138  1.00  0.00     0.009 C 
ENDBRANCH  34  43
BRANCH  35  45
HETATM   45  C31 UNL     1      18.027  27.052  12.421  1.00  0.00     0.091 C 
BRANCH  45  46
HETATM   46  C32 UNL     1      18.411  27.741  13.649  1.00  0.00    -0.005 C 
BRANCH  46  47
HETATM   47  C33 UNL     1      19.274  28.926  13.689  1.00  0.00     0.009 C 
HETATM   48  C34 UNL     1      20.293  28.886  14.761  1.00  0.00     0.008 C 
HETATM   49  C35 UNL     1      20.273  30.222  15.472  1.00  0.00     0.001 C 
HETATM   50  C36 UNL     1      19.264  31.100  14.809  1.00  0.00     0.001 C 
HETATM   51  C37 UNL     1      18.484  30.209  13.907  1.00  0.00     0.008 C 
ENDBRANCH  46  47
ENDBRANCH  45  46
ENDBRANCH  35  45
ENDBRANCH   1  29
TORSDOF 16
ENDMDL
MODEL 5
REMARK VINA RESULT: -7.645120788      2.164      3.505
REMARK  16 active torsions:
REMARK  status: ('A' for Active; 'I' for Inactive)
REMARK    1  A    between atoms: C2_2  and  C3_3 
REMARK    2  A    between atoms: C4_4  and  C5_5 
REMARK    3  A    between atoms: C6_6  and  C7_7 
REMARK    4  A    between atoms: C13_13  and  N1_14 
REMARK       I    between atoms: N1_14  and  C14_16 
REMARK    5  A    between atoms: C14_16  and  C15_18 
REMARK    6  A    between atoms: C15_18  and  N2_19 
REMARK    7  A    between atoms: C15_18  and  C21_27 
REMARK       I    between atoms: N2_19  and  C16_21 
REMARK    8  A    between atoms: C16_21  and  C17_23 
REMARK    9  A    between atoms: C17_23  and  C18_24 
REMARK       I    between atoms: C21_27  and  N3_29 
REMARK   10  A    between atoms: N3_29  and  C22_31 
REMARK   11  A    between atoms: C22_31  and  C23_32 
REMARK   12  A    between atoms: C23_32  and  C24_33 
REMARK   13  A    between atoms: C24_33  and  C25_34 
REMARK   14  A    between atoms: N5_44  and  C31_45 
REMARK   15  A    between atoms: C31_45  and  C32_46 
REMARK   16  A    between atoms: C32_46  and  C33_47 
ROOT
HETATM    1  N1  UNL     1      19.734  29.318  12.018  1.00  0.00    -0.353 N 
ATOM      2  H1  UNL     1      20.054  28.558  12.619  1.00  0.00     0.163 HD
HETATM    3  C14 UNL     1      19.569  30.556  12.633  1.00  0.00     0.250 C 
HETATM    4  O1  UNL     1      19.125  31.539  11.936  1.00  0.00    -0.271 OA
ENDROOT
BRANCH   3   5
HETATM    5  C15 UNL     1      19.851  30.896  14.050  1.00  0.00     0.269 C 
BRANCH   5   6
HETATM    6  N2  UNL     1      20.823  31.936  14.226  1.00  0.00    -0.340 N 
HETATM    7  C16 UNL     1      21.715  32.027  15.334  1.00  0.00     0.218 C 
HETATM    8  O2  UNL     1      21.663  31.134  16.205  1.00  0.00    -0.274 OA
ATOM      9  H2  UNL     1      20.880  32.660  13.510  1.00  0.00     0.163 HD
BRANCH   7  10
HETATM   10  C17 UNL     1      22.681  33.134  15.482  1.00  0.00     0.106 C 
BRANCH  10  11
HETATM   11  C18 UNL     1      22.644  34.075  14.281  1.00  0.00    -0.014 C 
HETATM   12  C19 UNL     1      23.897  33.811  13.449  1.00  0.00     0.010 C 
HETATM   13  C20 UNL     1      22.722  35.515  14.750  1.00  0.00     0.010 C 
ENDBRANCH  10  11
ENDBRANCH   7  10
ENDBRANCH   5   6
BRANCH   5  14
HETATM   14  C21 UNL     1      18.613  31.064  14.833  1.00  0.00     0.253 C 
HETATM   15  O3  UNL     1      18.505  30.753  16.038  1.00  0.00    -0.270 OA
HETATM   16  N3  UNL     1      17.427  31.608  14.213  1.00  0.00    -0.339 N 
ATOM     17  H3  UNL     1      17.480  31.864  13.226  1.00  0.00     0.167 HD
BRANCH  16  18
HETATM   18  C22 UNL     1      16.207  31.807  14.878  1.00  0.00     0.064 C 
BRANCH  18  19
HETATM   19  C23 UNL     1      15.448  33.064  14.796  1.00  0.00     0.045 C 
BRANCH  19  20
HETATM   20  C24 UNL     1      16.110  34.275  15.319  1.00  0.00     0.010 C 
BRANCH  20  21
HETATM   21  C25 UNL     1      16.554  34.290  16.739  1.00  0.00    -0.011 C 
HETATM   22  C26 UNL     1      16.089  35.588  17.387  1.00  0.00     0.032 C 
HETATM   23  C27 UNL     1      16.861  36.749  16.855  1.00  0.00     0.232 C 
HETATM   24  N4  UNL     1      18.238  36.669  17.264  1.00  0.00    -0.075 N 
HETATM   25  C28 UNL     1      18.666  35.349  17.635  1.00  0.00     0.232 C 
ATOM     26  H42 UNL     1      18.847  37.052  16.541  1.00  0.00     0.277 HD
ATOM     27  H41 UNL     1      18.426  37.331  18.017  1.00  0.00     0.277 HD
HETATM   28  C29 UNL     1      18.078  34.294  16.720  1.00  0.00     0.032 C 
ENDBRANCH  20  21
ENDBRANCH  19  20
ENDBRANCH  18  19
ENDBRANCH  16  18
ENDBRANCH   5  14
ENDBRANCH   3   5
BRANCH   1  29
HETATM   29  C13 UNL     1      19.507  28.977  10.627  1.00  0.00     0.104 A 
HETATM   30  C11 UNL     1      20.179  27.790   9.989  1.00  0.00     0.073 A 
HETATM   31  C4  UNL     1      20.779  26.740  10.844  1.00  0.00     0.055 C 
HETATM   32  C12 UNL     1      20.723  29.133   9.709  1.00  0.00     0.048 A 
HETATM   33  C30 UNL     1      19.521  27.052   8.900  1.00  0.00     0.236 C 
HETATM   34  C3  UNL     1      20.289  25.435  10.341  1.00  0.00     0.123 C 
HETATM   35  N5  UNL     1      19.422  25.683   9.228  1.00  0.00    -0.319 N 
HETATM   36  O4  UNL     1      19.097  27.549   7.811  1.00  0.00    -0.272 OA
BRANCH  31  37
HETATM   37  C5  UNL     1      22.260  26.922  10.834  1.00  0.00    -0.022 C 
HETATM   38  C6  UNL     1      23.040  27.393  11.734  1.00  0.00    -0.022 C 
BRANCH  38  39
HETATM   39  C7  UNL     1      24.518  27.484  11.503  1.00  0.00    -0.034 C 
HETATM   40  C8  UNL     1      24.793  28.204  10.180  1.00  0.00     0.018 C 
HETATM   41  C9  UNL     1      25.176  26.137  11.523  1.00  0.00     0.018 C 
HETATM   42  C10 UNL     1      25.189  28.347  12.574  1.00  0.00     0.018 C 
ENDBRANCH  38  39
ENDBRANCH  31  37
BRANCH  34  43
HETATM   43  C2  UNL     1      19.344  24.881  11.416  1.00  0.00    -0.011 C 
HETATM   44  C1  UNL     1      19.519  23.664  11.888  1.00  0.00     0.009 C 
ENDBRANCH  34  43
BRANCH  35  45
HETATM   45  C31 UNL     1      18.514  24.758   8.626  1.00  0.00     0.091 C 
BRANCH  45  46
HETATM   46  C32 UNL     1      18.555  24.431   7.204  1.00  0.00    -0.005 C 
BRANCH  46  47
HETATM   47  C33 UNL     1      17.623  24.975   6.211  1.00  0.00     0.009 C 
HETATM   48  C34 UNL     1      16.713  23.963   5.630  1.00  0.00     0.008 C 
HETATM   49  C35 UNL     1      16.711  24.147   4.127  1.00  0.00     0.001 C 
HETATM   50  C36 UNL     1      17.594  25.301   3.787  1.00  0.00     0.001 C 
HETATM   51  C37 UNL     1      18.344  25.618   5.034  1.00  0.00     0.008 C 
ENDBRANCH  46  47
ENDBRANCH  45  46
ENDBRANCH  35  45
ENDBRANCH   1  29
TORSDOF 16
ENDMDL
