MODEL 1
REMARK VINA RESULT: -9.479158748      0.000      0.000
REMARK  15 active torsions:
REMARK  status: ('A' for Active; 'I' for Inactive)
REMARK    1  A    between atoms: C2_2  and  N1_3 
REMARK       I    between atoms: N1_3  and  C3_5 
REMARK    2  A    between atoms: C3_5  and  C4_7 
REMARK       I    between atoms: N2_12  and  C9_13 
REMARK    3  A    between atoms: C9_13  and  C10_15 
REMARK    4  A    between atoms: C10_15  and  C11_17 
REMARK    5  A    between atoms: C11_17  and  N3_18 
REMARK    6  A    between atoms: C11_17  and  C25_36 
REMARK       I    between atoms: N3_18  and  C12_20 
REMARK       I    between atoms: C12_20  and  N4_22 
REMARK    7  A    between atoms: N4_22  and  C13_24 
REMARK    8  A    between atoms: C13_24  and  C14_25 
REMARK    9  A    between atoms: C14_25  and  C15_26 
REMARK   10  A    between atoms: C15_26  and  C16_27 
REMARK   11  A    between atoms: C16_27  and  C17_28 
REMARK   12  A    between atoms: C17_28  and  C18_29 
REMARK   13  A    between atoms: C18_29  and  C19_30 
REMARK   14  A    between atoms: C19_30  and  C20_31 
REMARK       I    between atoms: C25_36  and  N5_38 
REMARK   15  A    between atoms: N5_38  and  C26_40 
ROOT
HETATM    1  C11 UNL     1      21.018  34.767  16.216  1.00  0.00     0.258 C 
ENDROOT
BRANCH   1   2
HETATM    2  C10 UNL     1      19.998  35.203  17.228  1.00  0.00     0.248 C 
HETATM    3  O3  UNL     1      20.371  35.518  18.377  1.00  0.00    -0.284 OA
BRANCH   2   4
HETATM    4  C9  UNL     1      18.580  35.249  16.828  1.00  0.00     0.293 C 
HETATM    5  N2  UNL     1      17.737  36.356  16.887  1.00  0.00    -0.332 N 
HETATM    6  C4  UNL     1      16.347  36.376  16.674  1.00  0.00     0.179 C 
HETATM    7  C8  UNL     1      18.356  37.677  17.106  1.00  0.00     0.127 C 
HETATM    8  C5  UNL     1      15.827  37.496  17.640  1.00  0.00     0.035 C 
HETATM    9  C6  UNL     1      16.126  38.790  16.928  1.00  0.00     0.004 C 
HETATM   10  C7  UNL     1      17.548  38.759  16.393  1.00  0.00     0.020 C 
HETATM   11  O2  UNL     1      18.188  34.087  16.401  1.00  0.00    -0.264 OA
BRANCH   6  12
HETATM   12  C3  UNL     1      15.516  35.207  16.872  1.00  0.00     0.240 C 
HETATM   13  N1  UNL     1      15.229  34.425  15.704  1.00  0.00    -0.360 N 
ATOM     14  H1  UNL     1      15.613  34.735  14.811  1.00  0.00     0.162 HD
HETATM   15  O1  UNL     1      15.035  34.813  17.925  1.00  0.00    -0.271 OA
BRANCH  13  16
HETATM   16  C2  UNL     1      14.435  33.237  15.720  1.00  0.00     0.118 C 
HETATM   17  C1  UNL     1      15.063  32.050  15.032  1.00  0.00     0.026 C 
ENDBRANCH  13  16
ENDBRANCH   6  12
ENDBRANCH   2   4
ENDBRANCH   1   2
BRANCH   1  18
HETATM   18  N3  UNL     1      20.359  34.110  15.135  1.00  0.00    -0.323 N 
HETATM   19  C12 UNL     1      20.727  32.812  14.707  1.00  0.00     0.317 C 
HETATM   20  O4  UNL     1      21.684  32.288  15.386  1.00  0.00    -0.247 OA
HETATM   21  N4  UNL     1      20.087  32.190  13.648  1.00  0.00    -0.334 N 
ATOM     22  H4  UNL     1      19.348  32.713  13.177  1.00  0.00     0.165 HD
ATOM     23  H3  UNL     1      19.598  34.591  14.655  1.00  0.00     0.165 HD
BRANCH  21  24
HETATM   24  C13 UNL     1      20.374  30.878  13.157  1.00  0.00     0.035 A 
HETATM   25  C23 UNL     1      19.915  29.673  13.842  1.00  0.00     0.033 A 
HETATM   26  C24 UNL     1      19.131  30.092  12.682  1.00  0.00     0.033 A 
BRANCH  24  27
HETATM   27  C14 UNL     1      21.548  30.764  12.160  1.00  0.00     0.031 C 
BRANCH  27  28
HETATM   28  C15 UNL     1      22.806  30.281  12.781  1.00  0.00     0.002 C 
BRANCH  28  29
HETATM   29  C16 UNL     1      23.375  29.014  12.188  1.00  0.00     0.000 C 
BRANCH  29  30
HETATM   30  C17 UNL     1      22.697  28.648  10.891  1.00  0.00     0.000 C 
BRANCH  30  31
HETATM   31  C18 UNL     1      23.790  28.442   9.845  1.00  0.00     0.000 C 
BRANCH  31  32
HETATM   32  C19 UNL     1      25.096  28.125  10.563  1.00  0.00     0.004 C 
BRANCH  32  33
HETATM   33  C20 UNL     1      25.549  26.765  10.152  1.00  0.00    -0.023 C 
HETATM   34  C21 UNL     1      25.098  25.741  11.189  1.00  0.00     0.009 C 
HETATM   35  C22 UNL     1      24.928  26.396   8.811  1.00  0.00     0.009 C 
ENDBRANCH  32  33
ENDBRANCH  31  32
ENDBRANCH  30  31
ENDBRANCH  29  30
ENDBRANCH  28  29
ENDBRANCH  27  28
ENDBRANCH  24  27
ENDBRANCH  21  24
ENDBRANCH   1  18
BRANCH   1  36
HETATM   36  C25 UNL     1      21.860  35.894  15.773  1.00  0.00     0.248 C 
HETATM   37  O5  UNL     1      22.995  35.660  15.321  1.00  0.00    -0.271 OA
HETATM   38  N5  UNL     1      21.402  37.211  15.849  1.00  0.00    -0.354 N 
ATOM     39  H5  UNL     1      20.466  37.369  16.223  1.00  0.00     0.163 HD
BRANCH  38  40
HETATM   40  C26 UNL     1      22.170  38.372  15.430  1.00  0.00     0.092 C 
HETATM   41  C27 UNL     1      22.562  39.291  16.533  1.00  0.00     0.009 C 
HETATM   42  C28 UNL     1      23.601  40.260  15.948  1.00  0.00     0.011 C 
HETATM   43  C32 UNL     1      21.447  40.172  17.047  1.00  0.00     0.011 C 
HETATM   44  C29 UNL     1      22.929  41.037  14.841  1.00  0.00    -0.013 C 
HETATM   45  C30 UNL     1      21.747  41.846  15.312  1.00  0.00     0.009 C 
HETATM   46  C35 UNL     1      22.481  40.094  13.750  1.00  0.00     0.011 C 
HETATM   47  C31 UNL     1      20.728  40.867  15.911  1.00  0.00    -0.013 C 
HETATM   48  C33 UNL     1      20.296  39.933  14.819  1.00  0.00     0.011 C 
HETATM   49  C34 UNL     1      21.461  39.131  14.325  1.00  0.00     0.009 C 
ENDBRANCH  38  40
ENDBRANCH   1  36
TORSDOF 15
ENDMDL
MODEL 2
REMARK VINA RESULT: -9.332495927      0.780      1.140
REMARK  15 active torsions:
REMARK  status: ('A' for Active; 'I' for Inactive)
REMARK    1  A    between atoms: C2_2  and  N1_3 
REMARK       I    between atoms: N1_3  and  C3_5 
REMARK    2  A    between atoms: C3_5  and  C4_7 
REMARK       I    between atoms: N2_12  and  C9_13 
REMARK    3  A    between atoms: C9_13  and  C10_15 
REMARK    4  A    between atoms: C10_15  and  C11_17 
REMARK    5  A    between atoms: C11_17  and  N3_18 
REMARK    6  A    between atoms: C11_17  and  C25_36 
REMARK       I    between atoms: N3_18  and  C12_20 
REMARK       I    between atoms: C12_20  and  N4_22 
REMARK    7  A    between atoms: N4_22  and  C13_24 
REMARK    8  A    between atoms: C13_24  and  C14_25 
REMARK    9  A    between atoms: C14_25  and  C15_26 
REMARK   10  A    between atoms: C15_26  and  C16_27 
REMARK   11  A    between atoms: C16_27  and  C17_28 
REMARK   12  A    between atoms: C17_28  and  C18_29 
REMARK   13  A    between atoms: C18_29  and  C19_30 
REMARK   14  A    between atoms: C19_30  and  C20_31 
REMARK       I    between atoms: C25_36  and  N5_38 
REMARK   15  A    between atoms: N5_38  and  C26_40 
ROOT
HETATM    1  C11 UNL     1      21.116  34.930  16.143  1.00  0.00     0.258 C 
ENDROOT
BRANCH   1   2
HETATM    2  C10 UNL     1      20.102  35.169  17.225  1.00  0.00     0.248 C 
HETATM    3  O3  UNL     1      20.484  35.273  18.410  1.00  0.00    -0.284 OA
BRANCH   2   4
HETATM    4  C9  UNL     1      18.681  35.278  16.851  1.00  0.00     0.293 C 
HETATM    5  N2  UNL     1      17.908  36.437  16.862  1.00  0.00    -0.332 N 
HETATM    6  C4  UNL     1      16.516  36.529  16.675  1.00  0.00     0.179 C 
HETATM    7  C8  UNL     1      18.609  37.728  16.991  1.00  0.00     0.127 C 
HETATM    8  C5  UNL     1      16.087  37.732  17.584  1.00  0.00     0.035 C 
HETATM    9  C6  UNL     1      16.446  38.962  16.791  1.00  0.00     0.004 C 
HETATM   10  C7  UNL     1      17.851  38.815  16.231  1.00  0.00     0.020 C 
HETATM   11  O2  UNL     1      18.211  34.120  16.501  1.00  0.00    -0.264 OA
BRANCH   6  12
HETATM   12  C3  UNL     1      15.622  35.426  16.957  1.00  0.00     0.240 C 
HETATM   13  N1  UNL     1      15.327  34.549  15.860  1.00  0.00    -0.360 N 
ATOM     14  H1  UNL     1      15.751  34.752  14.955  1.00  0.00     0.162 HD
HETATM   15  O1  UNL     1      15.093  35.159  18.027  1.00  0.00    -0.271 OA
BRANCH  13  16
HETATM   16  C2  UNL     1      14.473  33.408  15.964  1.00  0.00     0.118 C 
HETATM   17  C1  UNL     1      14.926  32.208  15.169  1.00  0.00     0.026 C 
ENDBRANCH  13  16
ENDBRANCH   6  12
ENDBRANCH   2   4
ENDBRANCH   1   2
BRANCH   1  18
HETATM   18  N3  UNL     1      20.511  34.188  15.086  1.00  0.00    -0.323 N 
HETATM   19  C12 UNL     1      20.935  32.882  14.745  1.00  0.00     0.317 C 
HETATM   20  O4  UNL     1      21.891  32.433  15.478  1.00  0.00    -0.247 OA
HETATM   21  N4  UNL     1      20.347  32.178  13.708  1.00  0.00    -0.334 N 
ATOM     22  H4  UNL     1      19.604  32.645  13.188  1.00  0.00     0.165 HD
ATOM     23  H3  UNL     1      19.747  34.613  14.559  1.00  0.00     0.165 HD
BRANCH  21  24
HETATM   24  C13 UNL     1      20.694  30.851  13.302  1.00  0.00     0.035 A 
HETATM   25  C23 UNL     1      20.226  29.670  14.023  1.00  0.00     0.033 A 
HETATM   26  C24 UNL     1      19.498  30.008  12.803  1.00  0.00     0.033 A 
BRANCH  24  27
HETATM   27  C14 UNL     1      21.923  30.718  12.378  1.00  0.00     0.031 C 
BRANCH  27  28
HETATM   28  C15 UNL     1      23.069  30.023  13.014  1.00  0.00     0.002 C 
BRANCH  28  29
HETATM   29  C16 UNL     1      23.618  28.844  12.245  1.00  0.00     0.000 C 
BRANCH  29  30
HETATM   30  C17 UNL     1      22.901  28.648  10.931  1.00  0.00     0.000 C 
BRANCH  30  31
HETATM   31  C18 UNL     1      23.964  28.446   9.855  1.00  0.00     0.000 C 
BRANCH  31  32
HETATM   32  C19 UNL     1      25.215  27.869  10.509  1.00  0.00     0.004 C 
BRANCH  32  33
HETATM   33  C20 UNL     1      25.408  26.474  10.020  1.00  0.00    -0.023 C 
HETATM   34  C21 UNL     1      24.641  25.507  10.916  1.00  0.00     0.009 C 
HETATM   35  C22 UNL     1      24.870  26.343   8.601  1.00  0.00     0.009 C 
ENDBRANCH  32  33
ENDBRANCH  31  32
ENDBRANCH  30  31
ENDBRANCH  29  30
ENDBRANCH  28  29
ENDBRANCH  27  28
ENDBRANCH  24  27
ENDBRANCH  21  24
ENDBRANCH   1  18
BRANCH   1  36
HETATM   36  C25 UNL     1      21.726  36.191  15.682  1.00  0.00     0.248 C 
HETATM   37  O5  UNL     1      21.913  36.363  14.464  1.00  0.00    -0.271 OA
HETATM   38  N5  UNL     1      22.089  37.191  16.587  1.00  0.00    -0.354 N 
ATOM     39  H5  UNL     1      21.921  37.019  17.579  1.00  0.00     0.163 HD
BRANCH  38  40
HETATM   40  C26 UNL     1      22.691  38.459  16.210  1.00  0.00     0.092 C 
HETATM   41  C27 UNL     1      23.956  38.785  16.923  1.00  0.00     0.009 C 
HETATM   42  C28 UNL     1      24.581  39.978  16.183  1.00  0.00     0.011 C 
HETATM   43  C32 UNL     1      23.776  39.255  18.347  1.00  0.00     0.011 C 
HETATM   44  C29 UNL     1      23.617  41.136  16.285  1.00  0.00    -0.013 C 
HETATM   45  C30 UNL     1      23.341  41.558  17.706  1.00  0.00     0.009 C 
HETATM   46  C35 UNL     1      22.313  40.779  15.611  1.00  0.00     0.011 C 
HETATM   47  C31 UNL     1      22.736  40.351  18.436  1.00  0.00    -0.013 C 
HETATM   48  C33 UNL     1      21.445  40.005  17.753  1.00  0.00     0.011 C 
HETATM   49  C34 UNL     1      21.697  39.598  16.333  1.00  0.00     0.009 C 
ENDBRANCH  38  40
ENDBRANCH   1  36
TORSDOF 15
ENDMDL
MODEL 3
REMARK VINA RESULT: -9.289545826      1.482      2.432
REMARK  15 active torsions:
REMARK  status: ('A' for Active; 'I' for Inactive)
REMARK    1  A    between atoms: C2_2  and  N1_3 
REMARK       I    between atoms: N1_3  and  C3_5 
REMARK    2  A    between atoms: C3_5  and  C4_7 
REMARK       I    between atoms: N2_12  and  C9_13 
REMARK    3  A    between atoms: C9_13  and  C10_15 
REMARK    4  A    between atoms: C10_15  and  C11_17 
REMARK    5  A    between atoms: C11_17  and  N3_18 
REMARK    6  A    between atoms: C11_17  and  C25_36 
REMARK       I    between atoms: N3_18  and  C12_20 
REMARK       I    between atoms: C12_20  and  N4_22 
REMARK    7  A    between atoms: N4_22  and  C13_24 
REMARK    8  A    between atoms: C13_24  and  C14_25 
REMARK    9  A    between atoms: C14_25  and  C15_26 
REMARK   10  A    between atoms: C15_26  and  C16_27 
REMARK   11  A    between atoms: C16_27  and  C17_28 
REMARK   12  A    between atoms: C17_28  and  C18_29 
REMARK   13  A    between atoms: C18_29  and  C19_30 
REMARK   14  A    between atoms: C19_30  and  C20_31 
REMARK       I    between atoms: C25_36  and  N5_38 
REMARK   15  A    between atoms: N5_38  and  C26_40 
ROOT
HETATM    1  C11 UNL     1      21.108  34.988  16.615  1.00  0.00     0.258 C 
ENDROOT
BRANCH   1   2
HETATM    2  C10 UNL     1      19.985  35.151  17.598  1.00  0.00     0.248 C 
HETATM    3  O3  UNL     1      20.244  35.219  18.818  1.00  0.00    -0.284 OA
BRANCH   2   4
HETATM    4  C9  UNL     1      18.604  35.230  17.088  1.00  0.00     0.293 C 
HETATM    5  N2  UNL     1      17.814  36.375  17.011  1.00  0.00    -0.332 N 
HETATM    6  C4  UNL     1      16.445  36.440  16.690  1.00  0.00     0.179 C 
HETATM    7  C8  UNL     1      18.478  37.680  17.190  1.00  0.00     0.127 C 
HETATM    8  C5  UNL     1      15.910  37.644  17.539  1.00  0.00     0.035 C 
HETATM    9  C6  UNL     1      16.323  38.872  16.769  1.00  0.00     0.004 C 
HETATM   10  C7  UNL     1      17.777  38.744  16.347  1.00  0.00     0.020 C 
HETATM   11  O2  UNL     1      18.190  34.060  16.709  1.00  0.00    -0.264 OA
BRANCH   6  12
HETATM   12  C3  UNL     1      15.547  35.324  16.900  1.00  0.00     0.240 C 
HETATM   13  N1  UNL     1      15.299  34.485  15.763  1.00  0.00    -0.360 N 
ATOM     14  H1  UNL     1      15.756  34.721  14.882  1.00  0.00     0.162 HD
HETATM   15  O1  UNL     1      14.979  35.018  17.939  1.00  0.00    -0.271 OA
BRANCH  13  16
HETATM   16  C2  UNL     1      14.448  33.336  15.794  1.00  0.00     0.118 C 
HETATM   17  C1  UNL     1      15.011  32.116  15.108  1.00  0.00     0.026 C 
ENDBRANCH  13  16
ENDBRANCH   6  12
ENDBRANCH   2   4
ENDBRANCH   1   2
BRANCH   1  18
HETATM   18  N3  UNL     1      20.577  34.568  15.359  1.00  0.00    -0.323 N 
HETATM   19  C12 UNL     1      20.638  33.221  14.930  1.00  0.00     0.317 C 
HETATM   20  O4  UNL     1      21.193  32.427  15.773  1.00  0.00    -0.247 OA
HETATM   21  N4  UNL     1      20.130  32.829  13.702  1.00  0.00    -0.334 N 
ATOM     22  H4  UNL     1      19.723  33.555  13.112  1.00  0.00     0.165 HD
ATOM     23  H3  UNL     1      20.140  35.261  14.752  1.00  0.00     0.165 HD
BRANCH  21  24
HETATM   24  C13 UNL     1      20.129  31.493  13.191  1.00  0.00     0.035 A 
HETATM   25  C23 UNL     1      19.183  30.483  13.657  1.00  0.00     0.033 A 
HETATM   26  C24 UNL     1      18.863  31.124  12.385  1.00  0.00     0.033 A 
BRANCH  24  27
HETATM   27  C14 UNL     1      21.421  31.030  12.485  1.00  0.00     0.031 C 
BRANCH  27  28
HETATM   28  C15 UNL     1      22.141  29.958  13.214  1.00  0.00     0.002 C 
BRANCH  28  29
HETATM   29  C16 UNL     1      22.160  28.611  12.529  1.00  0.00     0.000 C 
BRANCH  29  30
HETATM   30  C17 UNL     1      21.400  28.634  11.225  1.00  0.00     0.000 C 
BRANCH  30  31
HETATM   31  C18 UNL     1      20.231  27.662  11.359  1.00  0.00     0.000 C 
BRANCH  31  32
HETATM   32  C19 UNL     1      19.170  28.032  10.328  1.00  0.00     0.004 C 
BRANCH  32  33
HETATM   33  C20 UNL     1      17.827  27.936  10.969  1.00  0.00    -0.023 C 
HETATM   34  C21 UNL     1      16.742  28.076   9.906  1.00  0.00     0.009 C 
HETATM   35  C22 UNL     1      17.670  26.578  11.640  1.00  0.00     0.009 C 
ENDBRANCH  32  33
ENDBRANCH  31  32
ENDBRANCH  30  31
ENDBRANCH  29  30
ENDBRANCH  28  29
ENDBRANCH  27  28
ENDBRANCH  24  27
ENDBRANCH  21  24
ENDBRANCH   1  18
BRANCH   1  36
HETATM   36  C25 UNL     1      21.922  36.214  16.512  1.00  0.00     0.248 C 
HETATM   37  O5  UNL     1      22.889  36.364  17.280  1.00  0.00    -0.271 OA
HETATM   38  N5  UNL     1      21.627  37.199  15.567  1.00  0.00    -0.354 N 
ATOM     39  H5  UNL     1      20.829  37.044  14.951  1.00  0.00     0.163 HD
BRANCH  38  40
HETATM   40  C26 UNL     1      22.384  38.429  15.402  1.00  0.00     0.092 C 
HETATM   41  C27 UNL     1      22.491  39.264  16.629  1.00  0.00     0.009 C 
HETATM   42  C28 UNL     1      23.557  40.332  16.341  1.00  0.00     0.011 C 
HETATM   43  C32 UNL     1      21.242  40.038  16.978  1.00  0.00     0.011 C 
HETATM   44  C29 UNL     1      23.064  41.171  15.188  1.00  0.00    -0.013 C 
HETATM   45  C30 UNL     1      21.762  41.875  15.475  1.00  0.00     0.009 C 
HETATM   46  C35 UNL     1      22.901  40.309  13.958  1.00  0.00     0.011 C 
HETATM   47  C31 UNL     1      20.713  40.797  15.780  1.00  0.00    -0.013 C 
HETATM   48  C33 UNL     1      20.565  39.944  14.553  1.00  0.00     0.011 C 
HETATM   49  C34 UNL     1      21.855  39.248  14.240  1.00  0.00     0.009 C 
ENDBRANCH  38  40
ENDBRANCH   1  36
TORSDOF 15
ENDMDL
MODEL 4
REMARK VINA RESULT: -8.845595287      2.893      8.058
REMARK  15 active torsions:
REMARK  status: ('A' for Active; 'I' for Inactive)
REMARK    1  A    between atoms: C2_2  and  N1_3 
REMARK       I    between atoms: N1_3  and  C3_5 
REMARK    2  A    between atoms: C3_5  and  C4_7 
REMARK       I    between atoms: N2_12  and  C9_13 
REMARK    3  A    between atoms: C9_13  and  C10_15 
REMARK    4  A    between atoms: C10_15  and  C11_17 
REMARK    5  A    between atoms: C11_17  and  N3_18 
REMARK    6  A    between atoms: C11_17  and  C25_36 
REMARK       I    between atoms: N3_18  and  C12_20 
REMARK       I    between atoms: C12_20  and  N4_22 
REMARK    7  A    between atoms: N4_22  and  C13_24 
REMARK    8  A    between atoms: C13_24  and  C14_25 
REMARK    9  A    between atoms: C14_25  and  C15_26 
REMARK   10  A    between atoms: C15_26  and  C16_27 
REMARK   11  A    between atoms: C16_27  and  C17_28 
REMARK   12  A    between atoms: C17_28  and  C18_29 
REMARK   13  A    between atoms: C18_29  and  C19_30 
REMARK   14  A    between atoms: C19_30  and  C20_31 
REMARK       I    between atoms: C25_36  and  N5_38 
REMARK   15  A    between atoms: N5_38  and  C26_40 
ROOT
HETATM    1  C11 UNL     1      20.830  30.817  13.871  1.00  0.00     0.258 C 
ENDROOT
BRANCH   1   2
HETATM    2  C10 UNL     1      20.293  31.060  15.252  1.00  0.00     0.248 C 
HETATM    3  O3  UNL     1      20.283  30.125  16.079  1.00  0.00    -0.284 OA
BRANCH   2   4
HETATM    4  C9  UNL     1      19.795  32.405  15.590  1.00  0.00     0.293 C 
HETATM    5  N2  UNL     1      20.568  33.534  15.852  1.00  0.00    -0.332 N 
HETATM    6  C4  UNL     1      20.119  34.775  16.340  1.00  0.00     0.179 C 
HETATM    7  C8  UNL     1      22.000  33.480  15.502  1.00  0.00     0.127 C 
HETATM    8  C5  UNL     1      21.309  35.293  17.219  1.00  0.00     0.035 C 
HETATM    9  C6  UNL     1      22.304  35.849  16.233  1.00  0.00     0.004 C 
HETATM   10  C7  UNL     1      22.492  34.866  15.090  1.00  0.00     0.020 C 
HETATM   11  O2  UNL     1      18.497  32.416  15.623  1.00  0.00    -0.264 OA
BRANCH   6  12
HETATM   12  C3  UNL     1      18.908  34.906  17.123  1.00  0.00     0.240 C 
HETATM   13  N1  UNL     1      17.730  35.308  16.409  1.00  0.00    -0.360 N 
ATOM     14  H1  UNL     1      17.811  35.483  15.407  1.00  0.00     0.162 HD
HETATM   15  O1  UNL     1      18.779  34.711  18.323  1.00  0.00    -0.271 OA
BRANCH  13  16
HETATM   16  C2  UNL     1      16.450  35.477  17.021  1.00  0.00     0.118 C 
HETATM   17  C1  UNL     1      15.472  34.358  16.756  1.00  0.00     0.026 C 
ENDBRANCH  13  16
ENDBRANCH   6  12
ENDBRANCH   2   4
ENDBRANCH   1   2
BRANCH   1  18
HETATM   18  N3  UNL     1      21.858  29.831  13.932  1.00  0.00    -0.323 N 
HETATM   19  C12 UNL     1      22.552  29.395  12.779  1.00  0.00     0.317 C 
HETATM   20  O4  UNL     1      22.182  29.975  11.694  1.00  0.00    -0.247 OA
HETATM   21  N4  UNL     1      23.540  28.427  12.850  1.00  0.00    -0.334 N 
ATOM     22  H4  UNL     1      23.738  28.029  13.769  1.00  0.00     0.165 HD
ATOM     23  H3  UNL     1      22.102  29.427  14.837  1.00  0.00     0.165 HD
BRANCH  21  24
HETATM   24  C13 UNL     1      24.306  27.937  11.747  1.00  0.00     0.035 A 
HETATM   25  C23 UNL     1      25.626  28.470  11.418  1.00  0.00     0.033 A 
HETATM   26  C24 UNL     1      25.607  27.207  12.151  1.00  0.00     0.033 A 
BRANCH  24  27
HETATM   27  C14 UNL     1      23.525  27.168  10.660  1.00  0.00     0.031 C 
BRANCH  27  28
HETATM   28  C15 UNL     1      23.320  27.948   9.415  1.00  0.00     0.002 C 
BRANCH  28  29
HETATM   29  C16 UNL     1      24.122  27.484   8.222  1.00  0.00     0.000 C 
BRANCH  29  30
HETATM   30  C17 UNL     1      24.912  26.235   8.528  1.00  0.00     0.000 C 
BRANCH  30  31
HETATM   31  C18 UNL     1      24.667  25.248   7.390  1.00  0.00     0.000 C 
BRANCH  31  32
HETATM   32  C19 UNL     1      23.821  24.095   7.920  1.00  0.00     0.004 C 
BRANCH  32  33
HETATM   33  C20 UNL     1      22.588  23.987   7.089  1.00  0.00    -0.023 C 
HETATM   34  C21 UNL     1      21.475  24.824   7.712  1.00  0.00     0.009 C 
HETATM   35  C22 UNL     1      22.860  24.516   5.687  1.00  0.00     0.009 C 
ENDBRANCH  32  33
ENDBRANCH  31  32
ENDBRANCH  30  31
ENDBRANCH  29  30
ENDBRANCH  28  29
ENDBRANCH  27  28
ENDBRANCH  24  27
ENDBRANCH  21  24
ENDBRANCH   1  18
BRANCH   1  36
HETATM   36  C25 UNL     1      19.755  30.465  12.925  1.00  0.00     0.248 C 
HETATM   37  O5  UNL     1      19.155  31.376  12.326  1.00  0.00    -0.271 OA
HETATM   38  N5  UNL     1      19.407  29.134  12.688  1.00  0.00    -0.354 N 
ATOM     39  H5  UNL     1      19.920  28.411  13.194  1.00  0.00     0.163 HD
BRANCH  38  40
HETATM   40  C26 UNL     1      18.364  28.709  11.769  1.00  0.00     0.092 C 
HETATM   41  C27 UNL     1      17.849  27.333  12.005  1.00  0.00     0.009 C 
HETATM   42  C28 UNL     1      16.575  27.191  11.157  1.00  0.00     0.011 C 
HETATM   43  C32 UNL     1      18.763  26.227  11.532  1.00  0.00     0.011 C 
HETATM   44  C29 UNL     1      16.969  27.354   9.709  1.00  0.00    -0.013 C 
HETATM   45  C30 UNL     1      17.962  26.321   9.240  1.00  0.00     0.009 C 
HETATM   46  C35 UNL     1      17.546  28.732   9.486  1.00  0.00     0.011 C 
HETATM   47  C31 UNL     1      19.219  26.462  10.109  1.00  0.00    -0.013 C 
HETATM   48  C33 UNL     1      19.778  27.837   9.882  1.00  0.00     0.011 C 
HETATM   49  C34 UNL     1      18.798  28.880  10.327  1.00  0.00     0.009 C 
ENDBRANCH  38  40
ENDBRANCH   1  36
TORSDOF 15
ENDMDL
MODEL 5
REMARK VINA RESULT: -8.824320887      1.100      2.030
REMARK  15 active torsions:
REMARK  status: ('A' for Active; 'I' for Inactive)
REMARK    1  A    between atoms: C2_2  and  N1_3 
REMARK       I    between atoms: N1_3  and  C3_5 
REMARK    2  A    between atoms: C3_5  and  C4_7 
REMARK       I    between atoms: N2_12  and  C9_13 
REMARK    3  A    between atoms: C9_13  and  C10_15 
REMARK    4  A    between atoms: C10_15  and  C11_17 
REMARK    5  A    between atoms: C11_17  and  N3_18 
REMARK    6  A    between atoms: C11_17  and  C25_36 
REMARK       I    between atoms: N3_18  and  C12_20 
REMARK       I    between atoms: C12_20  and  N4_22 
REMARK    7  A    between atoms: N4_22  and  C13_24 
REMARK    8  A    between atoms: C13_24  and  C14_25 
REMARK    9  A    between atoms: C14_25  and  C15_26 
REMARK   10  A    between atoms: C15_26  and  C16_27 
REMARK   11  A    between atoms: C16_27  and  C17_28 
REMARK   12  A    between atoms: C17_28  and  C18_29 
REMARK   13  A    between atoms: C18_29  and  C19_30 
REMARK   14  A    between atoms: C19_30  and  C20_31 
REMARK       I    between atoms: C25_36  and  N5_38 
REMARK   15  A    between atoms: N5_38  and  C26_40 
ROOT
HETATM    1  C11 UNL     1      21.047  34.753  16.136  1.00  0.00     0.258 C 
ENDROOT
BRANCH   1   2
HETATM    2  C10 UNL     1      20.036  35.161  17.169  1.00  0.00     0.248 C 
HETATM    3  O3  UNL     1      20.421  35.449  18.322  1.00  0.00    -0.284 OA
BRANCH   2   4
HETATM    4  C9  UNL     1      18.614  35.211  16.786  1.00  0.00     0.293 C 
HETATM    5  N2  UNL     1      17.773  36.319  16.866  1.00  0.00    -0.332 N 
HETATM    6  C4  UNL     1      16.380  36.342  16.669  1.00  0.00     0.179 C 
HETATM    7  C8  UNL     1      18.396  37.637  17.091  1.00  0.00     0.127 C 
HETATM    8  C5  UNL     1      15.872  37.452  17.652  1.00  0.00     0.035 C 
HETATM    9  C6  UNL     1      16.165  38.753  16.950  1.00  0.00     0.004 C 
HETATM   10  C7  UNL     1      17.580  38.727  16.398  1.00  0.00     0.020 C 
HETATM   11  O2  UNL     1      18.217  34.054  16.352  1.00  0.00    -0.264 OA
BRANCH   6  12
HETATM   12  C3  UNL     1      15.551  35.171  16.865  1.00  0.00     0.240 C 
HETATM   13  N1  UNL     1      15.258  34.396  15.694  1.00  0.00    -0.360 N 
ATOM     14  H1  UNL     1      15.638  34.711  14.801  1.00  0.00     0.162 HD
HETATM   15  O1  UNL     1      15.075  34.771  17.918  1.00  0.00    -0.271 OA
BRANCH  13  16
HETATM   16  C2  UNL     1      14.464  33.207  15.707  1.00  0.00     0.118 C 
HETATM   17  C1  UNL     1      15.081  32.030  14.992  1.00  0.00     0.026 C 
ENDBRANCH  13  16
ENDBRANCH   6  12
ENDBRANCH   2   4
ENDBRANCH   1   2
BRANCH   1  18
HETATM   18  N3  UNL     1      20.377  34.135  15.040  1.00  0.00    -0.323 N 
HETATM   19  C12 UNL     1      20.759  32.866  14.543  1.00  0.00     0.317 C 
HETATM   20  O4  UNL     1      21.740  32.329  15.176  1.00  0.00    -0.247 OA
HETATM   21  N4  UNL     1      20.108  32.283  13.469  1.00  0.00    -0.334 N 
ATOM     22  H4  UNL     1      19.349  32.812  13.039  1.00  0.00     0.165 HD
ATOM     23  H3  UNL     1      19.597  34.624  14.599  1.00  0.00     0.165 HD
BRANCH  21  24
HETATM   24  C13 UNL     1      20.408  31.001  12.910  1.00  0.00     0.035 A 
HETATM   25  C23 UNL     1      20.695  30.819  11.490  1.00  0.00     0.033 A 
HETATM   26  C24 UNL     1      21.853  30.863  12.379  1.00  0.00     0.033 A 
BRANCH  24  27
HETATM   27  C14 UNL     1      19.978  29.775  13.744  1.00  0.00     0.031 C 
BRANCH  27  28
HETATM   28  C15 UNL     1      18.629  29.266  13.395  1.00  0.00     0.002 C 
BRANCH  28  29
HETATM   29  C16 UNL     1      18.547  27.782  13.126  1.00  0.00     0.000 C 
BRANCH  29  30
HETATM   30  C17 UNL     1      18.251  27.490  11.675  1.00  0.00     0.000 C 
BRANCH  30  31
HETATM   31  C18 UNL     1      19.414  26.666  11.127  1.00  0.00     0.000 C 
BRANCH  31  32
HETATM   32  C19 UNL     1      20.187  27.520  10.130  1.00  0.00     0.004 C 
BRANCH  32  33
HETATM   33  C20 UNL     1      21.636  27.182  10.234  1.00  0.00    -0.023 C 
HETATM   34  C21 UNL     1      22.456  28.196   9.444  1.00  0.00     0.009 C 
HETATM   35  C22 UNL     1      22.077  27.237  11.690  1.00  0.00     0.009 C 
ENDBRANCH  32  33
ENDBRANCH  31  32
ENDBRANCH  30  31
ENDBRANCH  29  30
ENDBRANCH  28  29
ENDBRANCH  27  28
ENDBRANCH  24  27
ENDBRANCH  21  24
ENDBRANCH   1  18
BRANCH   1  36
HETATM   36  C25 UNL     1      21.891  35.890  15.725  1.00  0.00     0.248 C 
HETATM   37  O5  UNL     1      23.046  35.670  15.317  1.00  0.00    -0.271 OA
HETATM   38  N5  UNL     1      21.414  37.201  15.780  1.00  0.00    -0.354 N 
ATOM     39  H5  UNL     1      20.463  37.348  16.117  1.00  0.00     0.163 HD
BRANCH  38  40
HETATM   40  C26 UNL     1      22.184  38.371  15.389  1.00  0.00     0.092 C 
HETATM   41  C27 UNL     1      22.569  39.268  16.513  1.00  0.00     0.009 C 
HETATM   42  C28 UNL     1      23.610  40.249  15.953  1.00  0.00     0.011 C 
HETATM   43  C32 UNL     1      21.451  40.136  17.039  1.00  0.00     0.011 C 
HETATM   44  C29 UNL     1      22.943  41.049  14.859  1.00  0.00    -0.013 C 
HETATM   45  C30 UNL     1      21.758  41.847  15.341  1.00  0.00     0.009 C 
HETATM   46  C35 UNL     1      22.501  40.127  13.747  1.00  0.00     0.011 C 
HETATM   47  C31 UNL     1      20.738  40.855  15.915  1.00  0.00    -0.013 C 
HETATM   48  C33 UNL     1      20.312  39.943  14.801  1.00  0.00     0.011 C 
HETATM   49  C34 UNL     1      21.480  39.152  14.296  1.00  0.00     0.009 C 
ENDBRANCH  38  40
ENDBRANCH   1  36
TORSDOF 15
ENDMDL
