MODEL 1
REMARK VINA RESULT: -8.740486403      0.000      0.000
REMARK  17 active torsions:
REMARK  status: ('A' for Active; 'I' for Inactive)
REMARK    1  A    between atoms: C2_2  and  C3_3 
REMARK    2  A    between atoms: C3_3  and  C5_5 
REMARK    3  A    between atoms: C5_5  and  N1_6 
REMARK    4  A    between atoms: N1_6  and  C6_7 
REMARK    5  A    between atoms: N1_6  and  C9_10 
REMARK    6  A    between atoms: C9_10  and  C10_11 
REMARK       I    between atoms: C10_11  and  N2_13 
REMARK    7  A    between atoms: N2_13  and  C11_15 
REMARK    8  A    between atoms: C11_15  and  C12_16 
REMARK    9  A    between atoms: C12_16  and  C13_17 
REMARK   10  A    between atoms: C13_17  and  C14_18 
REMARK   11  A    between atoms: C17_23  and  C18_24 
REMARK       I    between atoms: C18_24  and  N3_26 
REMARK   12  A    between atoms: N3_26  and  C19_28 
REMARK   13  A    between atoms: C19_28  and  C20_29 
REMARK   14  A    between atoms: C19_28  and  C22_31 
REMARK   15  A    between atoms: C22_31  and  N4_34 
REMARK   16  A    between atoms: C28_38  and  C29_39 
REMARK       I    between atoms: C29_39  and  N5_41 
REMARK   17  A    between atoms: N5_41  and  C30_43 
ROOT
HETATM    1  C9  UNL     1      20.786  32.857  15.317  1.00  0.00     0.117 C 
HETATM    2  C15 UNL     1      21.479  31.726  15.997  1.00  0.00     0.042 C 
HETATM    3  C16 UNL     1      22.222  30.754  15.067  1.00  0.00     0.017 C 
HETATM    4  C17 UNL     1      21.323  30.198  14.028  1.00  0.00     0.078 C 
HETATM    5  C34 UNL     1      20.710  31.333  13.295  1.00  0.00     0.017 C 
HETATM    6  C35 UNL     1      21.180  32.685  13.832  1.00  0.00     0.042 C 
ENDROOT
BRANCH   4   7
HETATM    7  C18 UNL     1      22.063  29.216  13.160  1.00  0.00     0.222 C 
HETATM    8  O4  UNL     1      21.902  28.008  13.554  1.00  0.00    -0.273 OA
HETATM    9  N3  UNL     1      22.824  29.558  12.065  1.00  0.00    -0.354 N 
ATOM     10  H3  UNL     1      22.823  30.564  11.894  1.00  0.00     0.163 HD
BRANCH   9  11
HETATM   11  C19 UNL     1      23.618  28.846  11.106  1.00  0.00     0.111 C 
BRANCH  11  12
HETATM   12  C20 UNL     1      24.521  27.794  11.780  1.00  0.00     0.023 C 
HETATM   13  C21 UNL     1      25.595  28.366  12.638  1.00  0.00     0.007 C 
ENDBRANCH  11  12
BRANCH  11  14
HETATM   14  C22 UNL     1      22.810  28.185  10.059  1.00  0.00     0.042 C 
HETATM   15  C23 UNL     1      21.856  29.206   9.471  1.00  0.00     0.040 C 
HETATM   16  C24 UNL     1      23.836  28.063   8.838  1.00  0.00     0.040 C 
BRANCH  14  17
HETATM   17  N4  UNL     1      22.279  26.937  10.190  1.00  0.00    -0.390 N 
HETATM   18  C25 UNL     1      22.403  26.023  11.207  1.00  0.00     0.118 C 
HETATM   19  C26 UNL     1      21.851  24.674  10.709  1.00  0.00     0.022 C 
HETATM   20  C27 UNL     1      21.537  24.937   9.283  1.00  0.00     0.036 C 
HETATM   21  C28 UNL     1      21.287  26.468   9.250  1.00  0.00     0.172 C 
BRANCH  21  22
HETATM   22  C29 UNL     1      19.928  26.619   9.813  1.00  0.00     0.240 C 
HETATM   23  O5  UNL     1      18.958  26.137   9.161  1.00  0.00    -0.271 OA
HETATM   24  N5  UNL     1      19.723  27.290  11.056  1.00  0.00    -0.351 N 
ATOM     25  H5  UNL     1      20.527  27.672  11.553  1.00  0.00     0.163 HD
BRANCH  24  26
HETATM   26  C30 UNL     1      18.399  27.442  11.631  1.00  0.00     0.022 C 
HETATM   27  C31 UNL     1      18.566  27.826  13.073  1.00  0.00     0.037 C 
HETATM   28  C32 UNL     1      17.646  26.122  11.579  1.00  0.00     0.037 C 
HETATM   29  C33 UNL     1      17.666  28.525  10.895  1.00  0.00     0.037 C 
ENDBRANCH  24  26
ENDBRANCH  21  22
ENDBRANCH  14  17
ENDBRANCH  11  14
ENDBRANCH   9  11
ENDBRANCH   4   7
BRANCH   1  30
HETATM   30  N1  UNL     1      21.052  34.169  15.801  1.00  0.00    -0.346 N 
BRANCH  30  31
HETATM   31  C5  UNL     1      22.351  34.611  15.659  1.00  0.00     0.094 C 
BRANCH  31  32
HETATM   32  C3  UNL     1      22.786  35.973  15.266  1.00  0.00    -0.069 C 
HETATM   33  C4  UNL     1      23.164  36.931  16.370  1.00  0.00     0.044 C 
BRANCH  32  34
HETATM   34  C2  UNL     1      21.967  36.662  14.204  1.00  0.00     0.030 C 
HETATM   35  C1  UNL     1      21.636  38.094  14.536  1.00  0.00     0.010 C 
ENDBRANCH  32  34
ENDBRANCH  31  32
ENDBRANCH  30  31
BRANCH  30  36
HETATM   36  C6  UNL     1      20.278  34.664  16.860  1.00  0.00    -0.018 C 
HETATM   37  C7  UNL     1      19.447  35.877  16.760  1.00  0.00     0.063 C 
HETATM   38  C8  UNL     1      20.982  34.739  18.192  1.00  0.00     0.063 C 
ENDBRANCH  30  36
ENDBRANCH   1  30
BRANCH   1  39
HETATM   39  C10 UNL     1      19.294  32.606  15.166  1.00  0.00     0.246 C 
HETATM   40  O1  UNL     1      18.671  31.777  15.872  1.00  0.00    -0.271 OA
HETATM   41  N2  UNL     1      18.551  33.306  14.212  1.00  0.00    -0.359 N 
ATOM     42  H2  UNL     1      19.032  33.981  13.618  1.00  0.00     0.162 HD
BRANCH  41  43
HETATM   43  C11 UNL     1      17.109  33.112  14.027  1.00  0.00     0.123 C 
BRANCH  43  44
HETATM   44  C12 UNL     1      16.285  34.128  14.759  1.00  0.00     0.030 C 
BRANCH  44  45
HETATM   45  C13 UNL     1      15.178  33.434  15.521  1.00  0.00     0.114 C 
BRANCH  45  46
HETATM   46  C14 UNL     1      14.681  34.233  16.656  1.00  0.00     0.172 C 
HETATM   47  O2  UNL     1      13.523  34.709  16.600  1.00  0.00    -0.648 OA
HETATM   48  O3  UNL     1      15.419  34.502  17.793  1.00  0.00    -0.648 OA
ENDBRANCH  45  46
ENDBRANCH  44  45
ENDBRANCH  43  44
ENDBRANCH  41  43
ENDBRANCH   1  39
TORSDOF 17
ENDMDL
MODEL 2
REMARK VINA RESULT: -8.642658226      2.113      3.879
REMARK  17 active torsions:
REMARK  status: ('A' for Active; 'I' for Inactive)
REMARK    1  A    between atoms: C2_2  and  C3_3 
REMARK    2  A    between atoms: C3_3  and  C5_5 
REMARK    3  A    between atoms: C5_5  and  N1_6 
REMARK    4  A    between atoms: N1_6  and  C6_7 
REMARK    5  A    between atoms: N1_6  and  C9_10 
REMARK    6  A    between atoms: C9_10  and  C10_11 
REMARK       I    between atoms: C10_11  and  N2_13 
REMARK    7  A    between atoms: N2_13  and  C11_15 
REMARK    8  A    between atoms: C11_15  and  C12_16 
REMARK    9  A    between atoms: C12_16  and  C13_17 
REMARK   10  A    between atoms: C13_17  and  C14_18 
REMARK   11  A    between atoms: C17_23  and  C18_24 
REMARK       I    between atoms: C18_24  and  N3_26 
REMARK   12  A    between atoms: N3_26  and  C19_28 
REMARK   13  A    between atoms: C19_28  and  C20_29 
REMARK   14  A    between atoms: C19_28  and  C22_31 
REMARK   15  A    between atoms: C22_31  and  N4_34 
REMARK   16  A    between atoms: C28_38  and  C29_39 
REMARK       I    between atoms: C29_39  and  N5_41 
REMARK   17  A    between atoms: N5_41  and  C30_43 
ROOT
HETATM    1  C9  UNL     1      19.104  32.521  14.864  1.00  0.00     0.117 C 
HETATM    2  C15 UNL     1      19.132  31.254  15.649  1.00  0.00     0.042 C 
HETATM    3  C16 UNL     1      19.605  30.011  14.878  1.00  0.00     0.017 C 
HETATM    4  C17 UNL     1      18.800  29.789  13.655  1.00  0.00     0.078 C 
HETATM    5  C34 UNL     1      18.857  31.024  12.835  1.00  0.00     0.017 C 
HETATM    6  C35 UNL     1      19.701  32.114  13.497  1.00  0.00     0.042 C 
ENDROOT
BRANCH   4   7
HETATM    7  C18 UNL     1      19.253  28.542  12.944  1.00  0.00     0.222 C 
HETATM    8  O4  UNL     1      18.515  27.533  13.222  1.00  0.00    -0.273 OA
HETATM    9  N3  UNL     1      20.330  28.477  12.088  1.00  0.00    -0.354 N 
ATOM     10  H3  UNL     1      20.787  29.382  11.975  1.00  0.00     0.163 HD
BRANCH   9  11
HETATM   11  C19 UNL     1      20.965  27.448  11.317  1.00  0.00     0.111 C 
BRANCH  11  12
HETATM   12  C20 UNL     1      20.032  26.896  10.221  1.00  0.00     0.023 C 
HETATM   13  C21 UNL     1      19.586  25.494  10.445  1.00  0.00     0.007 C 
ENDBRANCH  11  12
BRANCH  11  14
HETATM   14  C22 UNL     1      22.231  27.887  10.693  1.00  0.00     0.042 C 
HETATM   15  C23 UNL     1      21.902  28.712   9.465  1.00  0.00     0.040 C 
HETATM   16  C24 UNL     1      22.723  29.060  11.663  1.00  0.00     0.040 C 
BRANCH  14  17
HETATM   17  N4  UNL     1      23.320  27.081  10.546  1.00  0.00    -0.390 N 
HETATM   18  C25 UNL     1      23.740  26.012  11.299  1.00  0.00     0.118 C 
HETATM   19  C26 UNL     1      25.178  25.661  10.873  1.00  0.00     0.022 C 
HETATM   20  C27 UNL     1      25.521  26.732   9.905  1.00  0.00     0.036 C 
HETATM   21  C28 UNL     1      24.138  27.173   9.358  1.00  0.00     0.172 C 
BRANCH  21  22
HETATM   22  C29 UNL     1      23.777  26.107   8.398  1.00  0.00     0.240 C 
HETATM   23  O5  UNL     1      22.555  25.805   8.279  1.00  0.00    -0.271 OA
HETATM   24  N5  UNL     1      24.782  25.441   7.634  1.00  0.00    -0.351 N 
ATOM     25  H5  UNL     1      25.759  25.705   7.761  1.00  0.00     0.163 HD
BRANCH  24  26
HETATM   26  C30 UNL     1      24.449  24.399   6.682  1.00  0.00     0.022 C 
HETATM   27  C31 UNL     1      25.735  23.812   6.175  1.00  0.00     0.037 C 
HETATM   28  C32 UNL     1      23.700  24.986   5.496  1.00  0.00     0.037 C 
HETATM   29  C33 UNL     1      23.642  23.341   7.375  1.00  0.00     0.037 C 
ENDBRANCH  24  26
ENDBRANCH  21  22
ENDBRANCH  14  17
ENDBRANCH  11  14
ENDBRANCH   9  11
ENDBRANCH   4   7
BRANCH   1  30
HETATM   30  N1  UNL     1      19.762  33.651  15.428  1.00  0.00    -0.346 N 
BRANCH  30  31
HETATM   31  C5  UNL     1      21.133  33.683  15.286  1.00  0.00     0.094 C 
BRANCH  31  32
HETATM   32  C3  UNL     1      21.907  34.512  14.331  1.00  0.00    -0.069 C 
HETATM   33  C4  UNL     1      23.269  34.011  13.917  1.00  0.00     0.044 C 
BRANCH  32  34
HETATM   34  C2  UNL     1      21.927  35.997  14.591  1.00  0.00     0.030 C 
HETATM   35  C1  UNL     1      22.729  36.382  15.808  1.00  0.00     0.010 C 
ENDBRANCH  32  34
ENDBRANCH  31  32
ENDBRANCH  30  31
BRANCH  30  36
HETATM   36  C6  UNL     1      19.178  34.283  16.535  1.00  0.00    -0.018 C 
HETATM   37  C7  UNL     1      18.243  35.417  16.422  1.00  0.00     0.063 C 
HETATM   38  C8  UNL     1      20.127  34.625  17.657  1.00  0.00     0.063 C 
ENDBRANCH  30  36
ENDBRANCH   1  30
BRANCH   1  39
HETATM   39  C10 UNL     1      17.704  32.867  14.386  1.00  0.00     0.246 C 
HETATM   40  O1  UNL     1      17.488  33.598  13.389  1.00  0.00    -0.271 OA
HETATM   41  N2  UNL     1      16.583  32.374  15.059  1.00  0.00    -0.359 N 
ATOM     42  H2  UNL     1      16.726  31.783  15.878  1.00  0.00     0.162 HD
BRANCH  41  43
HETATM   43  C11 UNL     1      15.209  32.668  14.639  1.00  0.00     0.123 C 
BRANCH  43  44
HETATM   44  C12 UNL     1      14.229  32.616  15.771  1.00  0.00     0.030 C 
BRANCH  44  45
HETATM   45  C13 UNL     1      13.743  34.013  16.090  1.00  0.00     0.114 C 
BRANCH  45  46
HETATM   46  C14 UNL     1      14.647  34.735  17.003  1.00  0.00     0.172 C 
HETATM   47  O2  UNL     1      15.508  34.085  17.642  1.00  0.00    -0.648 OA
HETATM   48  O3  UNL     1      14.607  36.101  17.208  1.00  0.00    -0.648 OA
ENDBRANCH  45  46
ENDBRANCH  44  45
ENDBRANCH  43  44
ENDBRANCH  41  43
ENDBRANCH   1  39
TORSDOF 17
ENDMDL
MODEL 3
REMARK VINA RESULT: -8.626079881      2.006      4.121
REMARK  17 active torsions:
REMARK  status: ('A' for Active; 'I' for Inactive)
REMARK    1  A    between atoms: C2_2  and  C3_3 
REMARK    2  A    between atoms: C3_3  and  C5_5 
REMARK    3  A    between atoms: C5_5  and  N1_6 
REMARK    4  A    between atoms: N1_6  and  C6_7 
REMARK    5  A    between atoms: N1_6  and  C9_10 
REMARK    6  A    between atoms: C9_10  and  C10_11 
REMARK       I    between atoms: C10_11  and  N2_13 
REMARK    7  A    between atoms: N2_13  and  C11_15 
REMARK    8  A    between atoms: C11_15  and  C12_16 
REMARK    9  A    between atoms: C12_16  and  C13_17 
REMARK   10  A    between atoms: C13_17  and  C14_18 
REMARK   11  A    between atoms: C17_23  and  C18_24 
REMARK       I    between atoms: C18_24  and  N3_26 
REMARK   12  A    between atoms: N3_26  and  C19_28 
REMARK   13  A    between atoms: C19_28  and  C20_29 
REMARK   14  A    between atoms: C19_28  and  C22_31 
REMARK   15  A    between atoms: C22_31  and  N4_34 
REMARK   16  A    between atoms: C28_38  and  C29_39 
REMARK       I    between atoms: C29_39  and  N5_41 
REMARK   17  A    between atoms: N5_41  and  C30_43 
ROOT
HETATM    1  C9  UNL     1      21.510  36.379  16.436  1.00  0.00     0.117 C 
HETATM    2  C15 UNL     1      22.446  35.421  17.092  1.00  0.00     0.042 C 
HETATM    3  C16 UNL     1      22.653  34.091  16.350  1.00  0.00     0.017 C 
HETATM    4  C17 UNL     1      21.367  33.398  16.103  1.00  0.00     0.078 C 
HETATM    5  C34 UNL     1      20.476  34.328  15.367  1.00  0.00     0.017 C 
HETATM    6  C35 UNL     1      21.145  35.679  15.108  1.00  0.00     0.042 C 
ENDROOT
BRANCH   4   7
HETATM    7  C18 UNL     1      21.601  32.079  15.417  1.00  0.00     0.222 C 
HETATM    8  O4  UNL     1      22.382  31.318  16.088  1.00  0.00    -0.273 OA
HETATM    9  N3  UNL     1      21.045  31.714  14.210  1.00  0.00    -0.354 N 
ATOM     10  H3  UNL     1      20.437  32.440  13.832  1.00  0.00     0.163 HD
BRANCH   9  11
HETATM   11  C19 UNL     1      21.112  30.564  13.358  1.00  0.00     0.111 C 
BRANCH  11  12
HETATM   12  C20 UNL     1      22.420  29.775  13.563  1.00  0.00     0.023 C 
HETATM   13  C21 UNL     1      23.416  29.945  12.470  1.00  0.00     0.007 C 
ENDBRANCH  11  12
BRANCH  11  14
HETATM   14  C22 UNL     1      19.966  29.645  13.530  1.00  0.00     0.042 C 
HETATM   15  C23 UNL     1      20.311  28.644  14.614  1.00  0.00     0.040 C 
HETATM   16  C24 UNL     1      18.908  30.536  14.334  1.00  0.00     0.040 C 
BRANCH  14  17
HETATM   17  N4  UNL     1      19.257  29.119  12.492  1.00  0.00    -0.390 N 
HETATM   18  C25 UNL     1      18.791  29.714  11.345  1.00  0.00     0.118 C 
HETATM   19  C26 UNL     1      17.803  28.744  10.670  1.00  0.00     0.022 C 
HETATM   20  C27 UNL     1      17.699  27.628  11.641  1.00  0.00     0.036 C 
HETATM   21  C28 UNL     1      19.049  27.692  12.403  1.00  0.00     0.172 C 
BRANCH  21  22
HETATM   22  C29 UNL     1      20.017  27.086  11.463  1.00  0.00     0.240 C 
HETATM   23  O5  UNL     1      19.574  26.612  10.378  1.00  0.00    -0.271 OA
HETATM   24  N5  UNL     1      21.409  27.040  11.777  1.00  0.00    -0.351 N 
ATOM     25  H5  UNL     1      21.731  27.425  12.664  1.00  0.00     0.163 HD
BRANCH  24  26
HETATM   26  C30 UNL     1      22.376  26.458  10.866  1.00  0.00     0.022 C 
HETATM   27  C31 UNL     1      23.739  26.628  11.473  1.00  0.00     0.037 C 
HETATM   28  C32 UNL     1      22.359  27.193   9.536  1.00  0.00     0.037 C 
HETATM   29  C33 UNL     1      22.072  24.998  10.693  1.00  0.00     0.037 C 
ENDBRANCH  24  26
ENDBRANCH  21  22
ENDBRANCH  14  17
ENDBRANCH  11  14
ENDBRANCH   9  11
ENDBRANCH   4   7
BRANCH   1  30
HETATM   30  N1  UNL     1      21.974  37.710  16.239  1.00  0.00    -0.346 N 
BRANCH  30  31
HETATM   31  C5  UNL     1      22.134  38.104  14.927  1.00  0.00     0.094 C 
BRANCH  31  32
HETATM   32  C3  UNL     1      21.660  39.370  14.317  1.00  0.00    -0.069 C 
HETATM   33  C4  UNL     1      20.385  39.970  14.857  1.00  0.00     0.044 C 
BRANCH  32  34
HETATM   34  C2  UNL     1      21.709  39.452  12.813  1.00  0.00     0.030 C 
HETATM   35  C1  UNL     1      22.767  40.392  12.297  1.00  0.00     0.010 C 
ENDBRANCH  32  34
ENDBRANCH  31  32
ENDBRANCH  30  31
BRANCH  30  36
HETATM   36  C6  UNL     1      22.781  38.292  17.226  1.00  0.00    -0.018 C 
HETATM   37  C7  UNL     1      22.422  39.530  17.942  1.00  0.00     0.063 C 
HETATM   38  C8  UNL     1      24.244  38.414  16.875  1.00  0.00     0.063 C 
ENDBRANCH  30  36
ENDBRANCH   1  30
BRANCH   1  39
HETATM   39  C10 UNL     1      20.129  36.354  17.071  1.00  0.00     0.246 C 
HETATM   40  O1  UNL     1      19.904  35.825  18.186  1.00  0.00    -0.271 OA
HETATM   41  N2  UNL     1      19.038  36.932  16.416  1.00  0.00    -0.359 N 
ATOM     42  H2  UNL     1      19.188  37.362  15.504  1.00  0.00     0.162 HD
BRANCH  41  43
HETATM   43  C11 UNL     1      17.685  36.945  16.983  1.00  0.00     0.123 C 
BRANCH  43  44
HETATM   44  C12 UNL     1      16.681  36.250  16.115  1.00  0.00     0.030 C 
BRANCH  44  45
HETATM   45  C13 UNL     1      16.856  34.752  16.232  1.00  0.00     0.114 C 
BRANCH  45  46
HETATM   46  C14 UNL     1      15.612  34.063  16.620  1.00  0.00     0.172 C 
HETATM   47  O2  UNL     1      15.077  34.349  17.716  1.00  0.00    -0.648 OA
HETATM   48  O3  UNL     1      14.988  33.104  15.845  1.00  0.00    -0.648 OA
ENDBRANCH  45  46
ENDBRANCH  44  45
ENDBRANCH  43  44
ENDBRANCH  41  43
ENDBRANCH   1  39
TORSDOF 17
ENDMDL
MODEL 4
REMARK VINA RESULT: -8.549503829      2.086      3.982
REMARK  17 active torsions:
REMARK  status: ('A' for Active; 'I' for Inactive)
REMARK    1  A    between atoms: C2_2  and  C3_3 
REMARK    2  A    between atoms: C3_3  and  C5_5 
REMARK    3  A    between atoms: C5_5  and  N1_6 
REMARK    4  A    between atoms: N1_6  and  C6_7 
REMARK    5  A    between atoms: N1_6  and  C9_10 
REMARK    6  A    between atoms: C9_10  and  C10_11 
REMARK       I    between atoms: C10_11  and  N2_13 
REMARK    7  A    between atoms: N2_13  and  C11_15 
REMARK    8  A    between atoms: C11_15  and  C12_16 
REMARK    9  A    between atoms: C12_16  and  C13_17 
REMARK   10  A    between atoms: C13_17  and  C14_18 
REMARK   11  A    between atoms: C17_23  and  C18_24 
REMARK       I    between atoms: C18_24  and  N3_26 
REMARK   12  A    between atoms: N3_26  and  C19_28 
REMARK   13  A    between atoms: C19_28  and  C20_29 
REMARK   14  A    between atoms: C19_28  and  C22_31 
REMARK   15  A    between atoms: C22_31  and  N4_34 
REMARK   16  A    between atoms: C28_38  and  C29_39 
REMARK       I    between atoms: C29_39  and  N5_41 
REMARK   17  A    between atoms: N5_41  and  C30_43 
ROOT
HETATM    1  C9  UNL     1      21.507  36.598  16.488  1.00  0.00     0.117 C 
HETATM    2  C15 UNL     1      22.343  35.644  17.271  1.00  0.00     0.042 C 
HETATM    3  C16 UNL     1      22.484  34.240  16.663  1.00  0.00     0.017 C 
HETATM    4  C17 UNL     1      21.163  33.616  16.418  1.00  0.00     0.078 C 
HETATM    5  C34 UNL     1      20.373  34.532  15.559  1.00  0.00     0.017 C 
HETATM    6  C35 UNL     1      21.148  35.804  15.212  1.00  0.00     0.042 C 
ENDROOT
BRANCH   4   7
HETATM    7  C18 UNL     1      21.330  32.226  15.866  1.00  0.00     0.222 C 
HETATM    8  O4  UNL     1      22.244  31.571  16.477  1.00  0.00    -0.273 OA
HETATM    9  N3  UNL     1      20.590  31.702  14.828  1.00  0.00    -0.354 N 
ATOM     10  H3  UNL     1      19.897  32.363  14.477  1.00  0.00     0.163 HD
BRANCH   9  11
HETATM   11  C19 UNL     1      20.557  30.455  14.122  1.00  0.00     0.111 C 
BRANCH  11  12
HETATM   12  C20 UNL     1      19.114  29.954  13.912  1.00  0.00     0.023 C 
HETATM   13  C21 UNL     1      18.072  30.794  14.564  1.00  0.00     0.007 C 
ENDBRANCH  11  12
BRANCH  11  14
HETATM   14  C22 UNL     1      21.240  30.510  12.812  1.00  0.00     0.042 C 
HETATM   15  C23 UNL     1      20.332  31.214  11.825  1.00  0.00     0.040 C 
HETATM   16  C24 UNL     1      22.329  31.662  13.023  1.00  0.00     0.040 C 
BRANCH  14  17
HETATM   17  N4  UNL     1      21.939  29.468  12.281  1.00  0.00    -0.390 N 
HETATM   18  C25 UNL     1      22.557  28.408  12.898  1.00  0.00     0.118 C 
HETATM   19  C26 UNL     1      23.447  27.701  11.859  1.00  0.00     0.022 C 
HETATM   20  C27 UNL     1      23.334  28.569  10.661  1.00  0.00     0.036 C 
HETATM   21  C28 UNL     1      21.957  29.258  10.851  1.00  0.00     0.172 C 
BRANCH  21  22
HETATM   22  C29 UNL     1      20.980  28.215  10.469  1.00  0.00     0.240 C 
HETATM   23  O5  UNL     1      21.201  27.554   9.414  1.00  0.00    -0.271 OA
HETATM   24  N5  UNL     1      19.825  27.968  11.270  1.00  0.00    -0.351 N 
ATOM     25  H5  UNL     1      19.675  28.525  12.111  1.00  0.00     0.163 HD
BRANCH  24  26
HETATM   26  C30 UNL     1      18.859  26.944  10.918  1.00  0.00     0.022 C 
HETATM   27  C31 UNL     1      17.820  26.901  12.002  1.00  0.00     0.037 C 
HETATM   28  C32 UNL     1      19.532  25.582  10.855  1.00  0.00     0.037 C 
HETATM   29  C33 UNL     1      18.218  27.304   9.609  1.00  0.00     0.037 C 
ENDBRANCH  24  26
ENDBRANCH  21  22
ENDBRANCH  14  17
ENDBRANCH  11  14
ENDBRANCH   9  11
ENDBRANCH   4   7
BRANCH   1  30
HETATM   30  N1  UNL     1      22.074  37.871  16.194  1.00  0.00    -0.346 N 
BRANCH  30  31
HETATM   31  C5  UNL     1      22.279  38.145  14.858  1.00  0.00     0.094 C 
BRANCH  31  32
HETATM   32  C3  UNL     1      21.509  39.095  14.020  1.00  0.00    -0.069 C 
HETATM   33  C4  UNL     1      21.940  39.265  12.583  1.00  0.00     0.044 C 
BRANCH  32  34
HETATM   34  C2  UNL     1      21.168  40.423  14.648  1.00  0.00     0.030 C 
HETATM   35  C1  UNL     1      22.306  41.410  14.619  1.00  0.00     0.010 C 
ENDBRANCH  32  34
ENDBRANCH  31  32
ENDBRANCH  30  31
BRANCH  30  36
HETATM   36  C6  UNL     1      22.912  38.468  17.146  1.00  0.00    -0.018 C 
HETATM   37  C7  UNL     1      22.506  39.615  17.979  1.00  0.00     0.063 C 
HETATM   38  C8  UNL     1      24.316  38.760  16.677  1.00  0.00     0.063 C 
ENDBRANCH  30  36
ENDBRANCH   1  30
BRANCH   1  39
HETATM   39  C10 UNL     1      20.103  36.727  17.056  1.00  0.00     0.246 C 
HETATM   40  O1  UNL     1      19.736  36.135  18.099  1.00  0.00    -0.271 OA
HETATM   41  N2  UNL     1      19.151  37.527  16.417  1.00  0.00    -0.359 N 
ATOM     42  H2  UNL     1      19.418  38.014  15.562  1.00  0.00     0.162 HD
BRANCH  41  43
HETATM   43  C11 UNL     1      17.785  37.695  16.922  1.00  0.00     0.123 C 
BRANCH  43  44
HETATM   44  C12 UNL     1      16.779  36.877  16.171  1.00  0.00     0.030 C 
BRANCH  44  45
HETATM   45  C13 UNL     1      15.804  36.249  17.142  1.00  0.00     0.114 C 
BRANCH  45  46
HETATM   46  C14 UNL     1      16.026  34.801  17.314  1.00  0.00     0.172 C 
HETATM   47  O2  UNL     1      15.063  34.078  17.660  1.00  0.00    -0.648 OA
HETATM   48  O3  UNL     1      17.244  34.179  17.121  1.00  0.00    -0.648 OA
ENDBRANCH  45  46
ENDBRANCH  44  45
ENDBRANCH  43  44
ENDBRANCH  41  43
ENDBRANCH   1  39
TORSDOF 17
ENDMDL
MODEL 5
REMARK VINA RESULT: -8.509784791      2.011      4.129
REMARK  17 active torsions:
REMARK  status: ('A' for Active; 'I' for Inactive)
REMARK    1  A    between atoms: C2_2  and  C3_3 
REMARK    2  A    between atoms: C3_3  and  C5_5 
REMARK    3  A    between atoms: C5_5  and  N1_6 
REMARK    4  A    between atoms: N1_6  and  C6_7 
REMARK    5  A    between atoms: N1_6  and  C9_10 
REMARK    6  A    between atoms: C9_10  and  C10_11 
REMARK       I    between atoms: C10_11  and  N2_13 
REMARK    7  A    between atoms: N2_13  and  C11_15 
REMARK    8  A    between atoms: C11_15  and  C12_16 
REMARK    9  A    between atoms: C12_16  and  C13_17 
REMARK   10  A    between atoms: C13_17  and  C14_18 
REMARK   11  A    between atoms: C17_23  and  C18_24 
REMARK       I    between atoms: C18_24  and  N3_26 
REMARK   12  A    between atoms: N3_26  and  C19_28 
REMARK   13  A    between atoms: C19_28  and  C20_29 
REMARK   14  A    between atoms: C19_28  and  C22_31 
REMARK   15  A    between atoms: C22_31  and  N4_34 
REMARK   16  A    between atoms: C28_38  and  C29_39 
REMARK       I    between atoms: C29_39  and  N5_41 
REMARK   17  A    between atoms: N5_41  and  C30_43 
ROOT
HETATM    1  C9  UNL     1      21.512  36.386  16.555  1.00  0.00     0.117 C 
HETATM    2  C15 UNL     1      22.441  35.452  17.252  1.00  0.00     0.042 C 
HETATM    3  C16 UNL     1      22.616  34.078  16.585  1.00  0.00     0.017 C 
HETATM    4  C17 UNL     1      21.316  33.394  16.396  1.00  0.00     0.078 C 
HETATM    5  C34 UNL     1      20.430  34.295  15.619  1.00  0.00     0.017 C 
HETATM    6  C35 UNL     1      21.117  35.617  15.274  1.00  0.00     0.042 C 
ENDROOT
BRANCH   4   7
HETATM    7  C18 UNL     1      21.520  32.033  15.784  1.00  0.00     0.222 C 
HETATM    8  O4  UNL     1      22.453  31.378  16.367  1.00  0.00    -0.273 OA
HETATM    9  N3  UNL     1      20.794  31.535  14.725  1.00  0.00    -0.354 N 
ATOM     10  H3  UNL     1      20.083  32.192  14.402  1.00  0.00     0.163 HD
BRANCH   9  11
HETATM   11  C19 UNL     1      20.794  30.319  13.965  1.00  0.00     0.111 C 
BRANCH  11  12
HETATM   12  C20 UNL     1      19.363  29.838  13.655  1.00  0.00     0.023 C 
HETATM   13  C21 UNL     1      18.292  30.631  14.319  1.00  0.00     0.007 C 
ENDBRANCH  11  12
BRANCH  11  14
HETATM   14  C22 UNL     1      21.549  30.425  12.699  1.00  0.00     0.042 C 
HETATM   15  C23 UNL     1      20.610  30.919  11.617  1.00  0.00     0.040 C 
HETATM   16  C24 UNL     1      22.417  31.752  12.907  1.00  0.00     0.040 C 
BRANCH  14  17
HETATM   17  N4  UNL     1      22.445  29.490  12.273  1.00  0.00    -0.390 N 
HETATM   18  C25 UNL     1      23.354  28.745  12.984  1.00  0.00     0.118 C 
HETATM   19  C26 UNL     1      24.311  28.073  11.981  1.00  0.00     0.022 C 
HETATM   20  C27 UNL     1      23.893  28.638  10.675  1.00  0.00     0.036 C 
HETATM   21  C28 UNL     1      22.406  29.013  10.909  1.00  0.00     0.172 C 
BRANCH  21  22
HETATM   22  C29 UNL     1      21.695  27.718  10.834  1.00  0.00     0.240 C 
HETATM   23  O5  UNL     1      20.829  27.465  11.720  1.00  0.00    -0.271 OA
HETATM   24  N5  UNL     1      21.984  26.786   9.793  1.00  0.00    -0.351 N 
ATOM     25  H5  UNL     1      22.694  27.020   9.100  1.00  0.00     0.163 HD
BRANCH  24  26
HETATM   26  C30 UNL     1      21.293  25.514   9.697  1.00  0.00     0.022 C 
HETATM   27  C31 UNL     1      21.788  24.815   8.463  1.00  0.00     0.037 C 
HETATM   28  C32 UNL     1      19.797  25.735   9.544  1.00  0.00     0.037 C 
HETATM   29  C33 UNL     1      21.609  24.691  10.912  1.00  0.00     0.037 C 
ENDBRANCH  24  26
ENDBRANCH  21  22
ENDBRANCH  14  17
ENDBRANCH  11  14
ENDBRANCH   9  11
ENDBRANCH   4   7
BRANCH   1  30
HETATM   30  N1  UNL     1      21.994  37.696  16.275  1.00  0.00    -0.346 N 
BRANCH  30  31
HETATM   31  C5  UNL     1      22.095  38.028  14.941  1.00  0.00     0.094 C 
BRANCH  31  32
HETATM   32  C3  UNL     1      21.466  39.190  14.266  1.00  0.00    -0.069 C 
HETATM   33  C4  UNL     1      22.380  40.180  13.586  1.00  0.00     0.044 C 
BRANCH  32  34
HETATM   34  C2  UNL     1      20.365  39.891  15.020  1.00  0.00     0.030 C 
HETATM   35  C1  UNL     1      20.711  41.306  15.408  1.00  0.00     0.010 C 
ENDBRANCH  32  34
ENDBRANCH  31  32
ENDBRANCH  30  31
BRANCH  30  36
HETATM   36  C6  UNL     1      22.863  38.301  17.194  1.00  0.00    -0.018 C 
HETATM   37  C7  UNL     1      22.520  39.514  17.958  1.00  0.00     0.063 C 
HETATM   38  C8  UNL     1      24.281  38.489  16.712  1.00  0.00     0.063 C 
ENDBRANCH  30  36
ENDBRANCH   1  30
BRANCH   1  39
HETATM   39  C10 UNL     1      20.140  36.421  17.209  1.00  0.00     0.246 C 
HETATM   40  O1  UNL     1      19.897  35.866  18.307  1.00  0.00    -0.271 OA
HETATM   41  N2  UNL     1      19.077  37.086  16.591  1.00  0.00    -0.359 N 
ATOM     42  H2  UNL     1      19.242  37.540  15.692  1.00  0.00     0.162 HD
BRANCH  41  43
HETATM   43  C11 UNL     1      17.735  37.160  17.177  1.00  0.00     0.123 C 
BRANCH  43  44
HETATM   44  C12 UNL     1      16.645  36.978  16.165  1.00  0.00     0.030 C 
BRANCH  44  45
HETATM   45  C13 UNL     1      16.216  35.527  16.132  1.00  0.00     0.114 C 
BRANCH  45  46
HETATM   46  C14 UNL     1      15.325  35.173  17.251  1.00  0.00     0.172 C 
HETATM   47  O2  UNL     1      15.202  33.966  17.569  1.00  0.00    -0.648 OA
HETATM   48  O3  UNL     1      14.600  36.094  17.982  1.00  0.00    -0.648 OA
ENDBRANCH  45  46
ENDBRANCH  44  45
ENDBRANCH  43  44
ENDBRANCH  41  43
ENDBRANCH   1  39
TORSDOF 17
ENDMDL
