MODEL 1
REMARK VINA RESULT: -11.317768417      0.000      0.000
REMARK  10 active torsions:
REMARK  status: ('A' for Active; 'I' for Inactive)
REMARK    1  A    between atoms: C5_5  and  S1_6 
REMARK    2  A    between atoms: S1_6  and  N1_9 
REMARK    3  A    between atoms: N1_9  and  C6_11 
REMARK    4  A    between atoms: C8_15  and  C9_16 
REMARK    5  A    between atoms: C9_16  and  C10_17 
REMARK    6  A    between atoms: C9_16  and  C20_34 
REMARK    7  A    between atoms: C10_17  and  N3_18 
REMARK    8  A    between atoms: N3_18  and  C11_20 
REMARK    9  A    between atoms: C11_20  and  C12_21 
REMARK   10  A    between atoms: C12_21  and  C13_22 
ROOT
HETATM    1  C9  UNL     1     -12.968  55.645   2.730  1.00  0.00     0.089 C 
ENDROOT
BRANCH   1   2
HETATM    2  C8  UNL     1     -13.056  54.468   1.827  1.00  0.00     0.035 A 
HETATM    3  N2  UNL     1     -14.202  54.228   1.183  1.00  0.00    -0.364 N 
HETATM    4  C7  UNL     1     -14.358  53.195   0.319  1.00  0.00     0.137 A 
ATOM      5  H2  UNL     1     -14.994  54.849   1.348  1.00  0.00     0.165 HD
HETATM    6  C6  UNL     1     -13.324  52.346   0.072  1.00  0.00     0.130 A 
HETATM    7  N7  UNL     1     -12.148  52.578   0.725  1.00  0.00    -0.349 N 
HETATM    8  C28 UNL     1     -12.016  53.604   1.574  1.00  0.00     0.115 A 
ATOM      9  H7  UNL     1     -11.355  51.956   0.563  1.00  0.00     0.167 HD
BRANCH   6  10
HETATM   10  N1  UNL     1     -13.423  51.383  -0.746  1.00  0.00    -0.265 N 
ATOM     11  H1  UNL     1     -13.784  51.633  -1.668  1.00  0.00     0.180 HD
BRANCH  10  12
HETATM   12  S1  UNL     1     -13.047  49.739  -0.541  1.00  0.00     0.264 S 
HETATM   13  O1  UNL     1     -13.765  48.846  -1.502  1.00  0.00    -0.200 OA
HETATM   14  O2  UNL     1     -11.558  49.518  -0.783  1.00  0.00    -0.200 OA
BRANCH  12  15
HETATM   15  C5  UNL     1     -13.389  49.276   1.131  1.00  0.00     0.079 A 
HETATM   16  C4  UNL     1     -14.686  49.370   1.586  1.00  0.00     0.026 A 
HETATM   17  C3  UNL     1     -15.004  49.016   2.873  1.00  0.00     0.008 A 
HETATM   18  C2  UNL     1     -14.002  48.571   3.692  1.00  0.00    -0.062 A 
HETATM   19  C1  UNL     1     -14.327  48.192   5.073  1.00  0.00     0.048 C 
HETATM   20  C30 UNL     1     -12.694  48.470   3.255  1.00  0.00     0.008 A 
HETATM   21  C29 UNL     1     -12.379  48.831   1.947  1.00  0.00     0.026 A 
ENDBRANCH  12  15
ENDBRANCH  10  12
ENDBRANCH   6  10
ENDBRANCH   1   2
BRANCH   1  22
HETATM   22  C10 UNL     1     -14.265  56.364   2.852  1.00  0.00     0.129 C 
BRANCH  22  23
HETATM   23  N3  UNL     1     -14.066  57.779   2.906  1.00  0.00    -0.420 N 
ATOM     24  H3  UNL     1     -13.294  58.237   2.422  1.00  0.00     0.153 HD
BRANCH  23  25
HETATM   25  C11 UNL     1     -15.016  58.510   3.681  1.00  0.00     0.118 C 
BRANCH  25  26
HETATM   26  C12 UNL     1     -14.369  59.810   4.151  1.00  0.00     0.058 C 
BRANCH  26  27
HETATM   27  C13 UNL     1     -13.566  59.528   5.390  1.00  0.00    -0.054 A 
HETATM   28  C14 UNL     1     -12.396  60.213   5.595  1.00  0.00     0.009 A 
HETATM   29  C15 UNL     1     -11.652  59.928   6.740  1.00  0.00     0.032 A 
HETATM   30  C16 UNL     1     -12.084  58.977   7.648  1.00  0.00     0.063 A 
HETATM   31  N4  UNL     1     -11.597  58.494   8.809  1.00  0.00    -0.307 N 
HETATM   32  C18 UNL     1     -13.268  58.292   7.431  1.00  0.00     0.063 A 
HETATM   33  C17 UNL     1     -12.399  57.556   9.328  1.00  0.00     0.325 A 
ATOM     34  H4  UNL     1     -10.726  58.805   9.239  1.00  0.00     0.170 HD
HETATM   35  O3  UNL     1     -12.287  56.876  10.395  1.00  0.00    -0.247 OA
HETATM   36  N5  UNL     1     -13.438  57.447   8.449  1.00  0.00    -0.306 N 
ATOM     37  H5  UNL     1     -14.229  56.812   8.556  1.00  0.00     0.170 HD
HETATM   38  C19 UNL     1     -14.011  58.567   6.302  1.00  0.00     0.039 A 
ENDBRANCH  26  27
ENDBRANCH  25  26
ENDBRANCH  23  25
ENDBRANCH  22  23
ENDBRANCH   1  22
BRANCH   1  39
HETATM   39  C20 UNL     1     -12.518  55.161   4.057  1.00  0.00    -0.019 A 
HETATM   40  C21 UNL     1     -11.611  55.718   4.932  1.00  0.00     0.097 A 
HETATM   41  N6  UNL     1     -11.520  54.956   6.037  1.00  0.00    -0.365 N 
HETATM   42  C22 UNL     1     -12.340  53.896   5.936  1.00  0.00     0.042 A 
ATOM     43  H6  UNL     1     -10.917  55.154   6.835  1.00  0.00     0.165 HD
HETATM   44  C23 UNL     1     -12.629  52.823   6.762  1.00  0.00     0.030 A 
HETATM   45  C27 UNL     1     -12.975  54.014   4.694  1.00  0.00    -0.001 A 
HETATM   46  C24 UNL     1     -13.554  51.876   6.335  1.00  0.00     0.002 A 
HETATM   47  C25 UNL     1     -14.187  51.972   5.121  1.00  0.00     0.001 A 
HETATM   48  C26 UNL     1     -13.893  53.041   4.310  1.00  0.00     0.014 A 
ENDBRANCH   1  39
TORSDOF 10
ENDMDL
MODEL 2
REMARK VINA RESULT: -11.314992292      2.624      9.557
REMARK  10 active torsions:
REMARK  status: ('A' for Active; 'I' for Inactive)
REMARK    1  A    between atoms: C5_5  and  S1_6 
REMARK    2  A    between atoms: S1_6  and  N1_9 
REMARK    3  A    between atoms: N1_9  and  C6_11 
REMARK    4  A    between atoms: C8_15  and  C9_16 
REMARK    5  A    between atoms: C9_16  and  C10_17 
REMARK    6  A    between atoms: C9_16  and  C20_34 
REMARK    7  A    between atoms: C10_17  and  N3_18 
REMARK    8  A    between atoms: N3_18  and  C11_20 
REMARK    9  A    between atoms: C11_20  and  C12_21 
REMARK   10  A    between atoms: C12_21  and  C13_22 
ROOT
HETATM    1  C9  UNL     1     -12.957  52.625   5.316  1.00  0.00     0.089 C 
ENDROOT
BRANCH   1   2
HETATM    2  C8  UNL     1     -13.041  53.805   6.216  1.00  0.00     0.035 A 
HETATM    3  N2  UNL     1     -14.191  54.058   6.848  1.00  0.00    -0.364 N 
HETATM    4  C7  UNL     1     -14.345  55.094   7.708  1.00  0.00     0.137 A 
ATOM      5  H2  UNL     1     -14.988  53.445   6.675  1.00  0.00     0.165 HD
HETATM    6  C6  UNL     1     -13.305  55.933   7.964  1.00  0.00     0.130 A 
HETATM    7  N7  UNL     1     -12.125  55.688   7.323  1.00  0.00    -0.349 N 
HETATM    8  C28 UNL     1     -11.995  54.658   6.477  1.00  0.00     0.115 A 
ATOM      9  H7  UNL     1     -11.327  56.301   7.492  1.00  0.00     0.167 HD
BRANCH   6  10
HETATM   10  N1  UNL     1     -13.402  56.899   8.779  1.00  0.00    -0.265 N 
ATOM     11  H1  UNL     1     -13.748  56.649   9.706  1.00  0.00     0.180 HD
BRANCH  10  12
HETATM   12  S1  UNL     1     -13.044  58.545   8.562  1.00  0.00     0.264 S 
HETATM   13  O1  UNL     1     -13.774  59.437   9.515  1.00  0.00    -0.200 OA
HETATM   14  O2  UNL     1     -11.558  58.784   8.804  1.00  0.00    -0.200 OA
BRANCH  12  15
HETATM   15  C5  UNL     1     -13.390  58.991   6.885  1.00  0.00     0.079 A 
HETATM   16  C4  UNL     1     -14.681  58.859   6.424  1.00  0.00     0.026 A 
HETATM   17  C3  UNL     1     -15.001  59.198   5.134  1.00  0.00     0.008 A 
HETATM   18  C2  UNL     1     -14.007  59.668   4.318  1.00  0.00    -0.062 A 
HETATM   19  C1  UNL     1     -14.335  60.032   2.934  1.00  0.00     0.048 C 
HETATM   20  C30 UNL     1     -12.705  59.808   4.763  1.00  0.00     0.008 A 
HETATM   21  C29 UNL     1     -12.388  59.462   6.074  1.00  0.00     0.026 A 
ENDBRANCH  12  15
ENDBRANCH  10  12
ENDBRANCH   6  10
ENDBRANCH   1   2
BRANCH   1  22
HETATM   22  C10 UNL     1     -14.254  51.907   5.199  1.00  0.00     0.129 C 
BRANCH  22  23
HETATM   23  N3  UNL     1     -14.058  50.490   5.179  1.00  0.00    -0.420 N 
ATOM     24  H3  UNL     1     -13.291  50.041   5.679  1.00  0.00     0.153 HD
BRANCH  23  25
HETATM   25  C11 UNL     1     -15.005  49.744   4.414  1.00  0.00     0.118 C 
BRANCH  25  26
HETATM   26  C12 UNL     1     -14.346  48.448   3.947  1.00  0.00     0.058 C 
BRANCH  26  27
HETATM   27  C13 UNL     1     -13.551  48.733   2.704  1.00  0.00    -0.054 A 
HETATM   28  C14 UNL     1     -12.378  48.055   2.495  1.00  0.00     0.009 A 
HETATM   29  C15 UNL     1     -11.640  48.343   1.346  1.00  0.00     0.032 A 
HETATM   30  C16 UNL     1     -12.082  49.290   0.439  1.00  0.00     0.063 A 
HETATM   31  N4  UNL     1     -11.603  49.775  -0.725  1.00  0.00    -0.307 N 
HETATM   32  C18 UNL     1     -13.269  49.969   0.661  1.00  0.00     0.063 A 
HETATM   33  C17 UNL     1     -12.412  50.707  -1.241  1.00  0.00     0.325 A 
ATOM     34  H4  UNL     1     -10.732  49.468  -1.158  1.00  0.00     0.170 HD
HETATM   35  O3  UNL     1     -12.309  51.387  -2.309  1.00  0.00    -0.247 OA
HETATM   36  N5  UNL     1     -13.448  50.812  -0.358  1.00  0.00    -0.306 N 
ATOM     37  H5  UNL     1     -14.243  51.442  -0.462  1.00  0.00     0.170 HD
HETATM   38  C19 UNL     1     -14.005  49.691   1.793  1.00  0.00     0.039 A 
ENDBRANCH  26  27
ENDBRANCH  25  26
ENDBRANCH  23  25
ENDBRANCH  22  23
ENDBRANCH   1  22
BRANCH   1  39
HETATM   39  C20 UNL     1     -12.510  53.104   3.986  1.00  0.00    -0.019 A 
HETATM   40  C21 UNL     1     -11.601  52.547   3.113  1.00  0.00     0.097 A 
HETATM   41  N6  UNL     1     -11.513  53.304   2.005  1.00  0.00    -0.365 N 
HETATM   42  C22 UNL     1     -12.337  54.361   2.102  1.00  0.00     0.042 A 
ATOM     43  H6  UNL     1     -10.910  53.105   1.208  1.00  0.00     0.165 HD
HETATM   44  C23 UNL     1     -12.631  55.430   1.271  1.00  0.00     0.030 A 
HETATM   45  C27 UNL     1     -12.970  54.247   3.344  1.00  0.00    -0.001 A 
HETATM   46  C24 UNL     1     -13.559  56.375   1.695  1.00  0.00     0.002 A 
HETATM   47  C25 UNL     1     -14.191  56.282   2.909  1.00  0.00     0.001 A 
HETATM   48  C26 UNL     1     -13.892  55.218   3.725  1.00  0.00     0.014 A 
ENDBRANCH   1  39
TORSDOF 10
ENDMDL
MODEL 3
REMARK VINA RESULT: -10.910367210      1.127      1.562
REMARK  10 active torsions:
REMARK  status: ('A' for Active; 'I' for Inactive)
REMARK    1  A    between atoms: C5_5  and  S1_6 
REMARK    2  A    between atoms: S1_6  and  N1_9 
REMARK    3  A    between atoms: N1_9  and  C6_11 
REMARK    4  A    between atoms: C8_15  and  C9_16 
REMARK    5  A    between atoms: C9_16  and  C10_17 
REMARK    6  A    between atoms: C9_16  and  C20_34 
REMARK    7  A    between atoms: C10_17  and  N3_18 
REMARK    8  A    between atoms: N3_18  and  C11_20 
REMARK    9  A    between atoms: C11_20  and  C12_21 
REMARK   10  A    between atoms: C12_21  and  C13_22 
ROOT
HETATM    1  C9  UNL     1     -12.958  55.535   2.569  1.00  0.00     0.089 C 
ENDROOT
BRANCH   1   2
HETATM    2  C8  UNL     1     -13.169  54.414   1.616  1.00  0.00     0.035 A 
HETATM    3  N2  UNL     1     -12.143  53.609   1.324  1.00  0.00    -0.364 N 
HETATM    4  C7  UNL     1     -12.257  52.547   0.489  1.00  0.00     0.137 A 
ATOM      5  H2  UNL     1     -11.236  53.802   1.746  1.00  0.00     0.165 HD
HETATM    6  C6  UNL     1     -13.452  52.258  -0.094  1.00  0.00     0.130 A 
HETATM    7  N7  UNL     1     -14.508  53.074   0.194  1.00  0.00    -0.349 N 
HETATM    8  C28 UNL     1     -14.373  54.117   1.022  1.00  0.00     0.115 A 
ATOM      9  H7  UNL     1     -15.417  52.884  -0.229  1.00  0.00     0.167 HD
BRANCH   6  10
HETATM   10  N1  UNL     1     -13.604  51.261  -0.862  1.00  0.00    -0.265 N 
ATOM     11  H1  UNL     1     -14.021  51.473  -1.769  1.00  0.00     0.180 HD
BRANCH  10  12
HETATM   12  S1  UNL     1     -13.220  49.626  -0.609  1.00  0.00     0.264 S 
HETATM   13  O1  UNL     1     -13.967  48.699  -1.515  1.00  0.00    -0.200 OA
HETATM   14  O2  UNL     1     -11.739  49.396  -0.889  1.00  0.00    -0.200 OA
BRANCH  12  15
HETATM   15  C5  UNL     1     -13.510  49.223   1.088  1.00  0.00     0.079 A 
HETATM   16  C4  UNL     1     -14.805  49.250   1.558  1.00  0.00     0.026 A 
HETATM   17  C3  UNL     1     -15.082  48.940   2.865  1.00  0.00     0.008 A 
HETATM   18  C2  UNL     1     -14.042  48.605   3.690  1.00  0.00    -0.062 A 
HETATM   19  C1  UNL     1     -14.324  48.273   5.092  1.00  0.00     0.048 C 
HETATM   20  C30 UNL     1     -12.736  48.572   3.238  1.00  0.00     0.008 A 
HETATM   21  C29 UNL     1     -12.462  48.889   1.909  1.00  0.00     0.026 A 
ENDBRANCH  12  15
ENDBRANCH  10  12
ENDBRANCH   6  10
ENDBRANCH   1   2
BRANCH   1  22
HETATM   22  C10 UNL     1     -14.211  56.284   2.851  1.00  0.00     0.129 C 
BRANCH  22  23
HETATM   23  N3  UNL     1     -13.941  57.481   3.587  1.00  0.00    -0.420 N 
ATOM     24  H3  UNL     1     -13.399  58.249   3.194  1.00  0.00     0.153 HD
BRANCH  23  25
HETATM   25  C11 UNL     1     -14.480  57.530   4.908  1.00  0.00     0.118 C 
BRANCH  25  26
HETATM   26  C12 UNL     1     -13.793  58.657   5.676  1.00  0.00     0.058 C 
BRANCH  26  27
HETATM   27  C13 UNL     1     -13.501  58.181   7.071  1.00  0.00    -0.054 A 
HETATM   28  C14 UNL     1     -13.432  59.099   8.087  1.00  0.00     0.009 A 
HETATM   29  C15 UNL     1     -13.141  58.646   9.373  1.00  0.00     0.032 A 
HETATM   30  C16 UNL     1     -12.927  57.301   9.620  1.00  0.00     0.063 A 
HETATM   31  N4  UNL     1     -12.634  56.580  10.721  1.00  0.00    -0.307 N 
HETATM   32  C18 UNL     1     -13.000  56.382   8.586  1.00  0.00     0.063 A 
HETATM   33  C17 UNL     1     -12.521  55.276  10.441  1.00  0.00     0.325 A 
ATOM     34  H4  UNL     1     -12.514  56.979  11.652  1.00  0.00     0.170 HD
HETATM   35  O3  UNL     1     -12.258  54.291  11.199  1.00  0.00    -0.247 OA
HETATM   36  N5  UNL     1     -12.754  55.176   9.100  1.00  0.00    -0.306 N 
ATOM     37  H5  UNL     1     -12.743  54.305   8.568  1.00  0.00     0.170 HD
HETATM   38  C19 UNL     1     -13.288  56.820   7.311  1.00  0.00     0.039 A 
ENDBRANCH  26  27
ENDBRANCH  25  26
ENDBRANCH  23  25
ENDBRANCH  22  23
ENDBRANCH   1  22
BRANCH   1  39
HETATM   39  C20 UNL     1     -12.405  54.963   3.820  1.00  0.00    -0.019 A 
HETATM   40  C21 UNL     1     -11.314  55.364   4.560  1.00  0.00     0.097 A 
HETATM   41  N6  UNL     1     -11.184  54.574   5.641  1.00  0.00    -0.365 N 
HETATM   42  C22 UNL     1     -12.156  53.647   5.655  1.00  0.00     0.042 A 
ATOM     43  H6  UNL     1     -10.454  54.666   6.347  1.00  0.00     0.165 HD
HETATM   44  C23 UNL     1     -12.482  52.609   6.512  1.00  0.00     0.030 A 
HETATM   45  C27 UNL     1     -12.931  53.881   4.514  1.00  0.00    -0.001 A 
HETATM   46  C24 UNL     1     -13.585  51.815   6.218  1.00  0.00     0.002 A 
HETATM   47  C25 UNL     1     -14.359  52.028   5.104  1.00  0.00     0.001 A 
HETATM   48  C26 UNL     1     -14.026  53.060   4.261  1.00  0.00     0.014 A 
ENDBRANCH   1  39
TORSDOF 10
ENDMDL
MODEL 4
REMARK VINA RESULT: -10.768487182      4.227      8.214
REMARK  10 active torsions:
REMARK  status: ('A' for Active; 'I' for Inactive)
REMARK    1  A    between atoms: C5_5  and  S1_6 
REMARK    2  A    between atoms: S1_6  and  N1_9 
REMARK    3  A    between atoms: N1_9  and  C6_11 
REMARK    4  A    between atoms: C8_15  and  C9_16 
REMARK    5  A    between atoms: C9_16  and  C10_17 
REMARK    6  A    between atoms: C9_16  and  C20_34 
REMARK    7  A    between atoms: C10_17  and  N3_18 
REMARK    8  A    between atoms: N3_18  and  C11_20 
REMARK    9  A    between atoms: C11_20  and  C12_21 
REMARK   10  A    between atoms: C12_21  and  C13_22 
ROOT
HETATM    1  C9  UNL     1     -13.067  54.426   2.336  1.00  0.00     0.089 C 
ENDROOT
BRANCH   1   2
HETATM    2  C8  UNL     1     -13.067  55.685   3.127  1.00  0.00     0.035 A 
HETATM    3  N2  UNL     1     -14.089  56.536   2.991  1.00  0.00    -0.364 N 
HETATM    4  C7  UNL     1     -14.182  57.690   3.695  1.00  0.00     0.137 A 
ATOM      5  H2  UNL     1     -14.830  56.308   2.328  1.00  0.00     0.165 HD
HETATM    6  C6  UNL     1     -13.214  58.030   4.588  1.00  0.00     0.130 A 
HETATM    7  N7  UNL     1     -12.163  57.170   4.735  1.00  0.00    -0.349 N 
HETATM    8  C28 UNL     1     -12.091  56.034   4.030  1.00  0.00     0.115 A 
ATOM      9  H7  UNL     1     -11.419  57.397   5.396  1.00  0.00     0.167 HD
BRANCH   6  10
HETATM   10  N1  UNL     1     -13.276  59.088   5.282  1.00  0.00    -0.265 N 
ATOM     11  H1  UNL     1     -13.316  59.956   4.745  1.00  0.00     0.180 HD
BRANCH  10  12
HETATM   12  S1  UNL     1     -13.304  59.282   6.969  1.00  0.00     0.264 S 
HETATM   13  O1  UNL     1     -12.971  58.028   7.712  1.00  0.00    -0.200 OA
HETATM   14  O2  UNL     1     -12.264  60.315   7.385  1.00  0.00    -0.200 OA
BRANCH  12  15
HETATM   15  C5  UNL     1     -14.891  59.901   7.449  1.00  0.00     0.079 A 
HETATM   16  C4  UNL     1     -15.942  59.766   6.569  1.00  0.00     0.026 A 
HETATM   17  C3  UNL     1     -17.192  60.224   6.897  1.00  0.00     0.008 A 
HETATM   18  C2  UNL     1     -17.369  60.818   8.118  1.00  0.00    -0.062 A 
HETATM   19  C1  UNL     1     -18.702  61.315   8.481  1.00  0.00     0.048 C 
HETATM   20  C30 UNL     1     -16.327  60.962   9.015  1.00  0.00     0.008 A 
HETATM   21  C29 UNL     1     -15.060  60.496   8.675  1.00  0.00     0.026 A 
ENDBRANCH  12  15
ENDBRANCH  10  12
ENDBRANCH   6  10
ENDBRANCH   1   2
BRANCH   1  22
HETATM   22  C10 UNL     1     -14.315  53.637   2.525  1.00  0.00     0.129 C 
BRANCH  22  23
HETATM   23  N3  UNL     1     -14.083  52.500   3.361  1.00  0.00    -0.420 N 
ATOM     24  H3  UNL     1     -13.807  51.595   2.981  1.00  0.00     0.153 HD
BRANCH  23  25
HETATM   25  C11 UNL     1     -14.263  52.713   4.761  1.00  0.00     0.118 C 
BRANCH  25  26
HETATM   26  C12 UNL     1     -12.913  52.559   5.457  1.00  0.00     0.058 C 
BRANCH  26  27
HETATM   27  C13 UNL     1     -13.059  52.986   6.891  1.00  0.00    -0.054 A 
HETATM   28  C14 UNL     1     -12.591  52.162   7.881  1.00  0.00     0.009 A 
HETATM   29  C15 UNL     1     -12.751  52.562   9.208  1.00  0.00     0.032 A 
HETATM   30  C16 UNL     1     -13.367  53.762   9.518  1.00  0.00     0.063 A 
HETATM   31  N4  UNL     1     -13.661  54.400  10.669  1.00  0.00    -0.307 N 
HETATM   32  C18 UNL     1     -13.836  54.587   8.509  1.00  0.00     0.063 A 
HETATM   33  C17 UNL     1     -14.279  55.565  10.443  1.00  0.00     0.325 A 
ATOM     34  H4  UNL     1     -13.439  54.040  11.597  1.00  0.00     0.170 HD
HETATM   35  O3  UNL     1     -14.708  56.441  11.257  1.00  0.00    -0.247 OA
HETATM   36  N5  UNL     1     -14.377  55.661   9.085  1.00  0.00    -0.306 N 
ATOM     37  H5  UNL     1     -14.803  56.441   8.583  1.00  0.00     0.170 HD
HETATM   38  C19 UNL     1     -13.682  54.200   7.194  1.00  0.00     0.039 A 
ENDBRANCH  26  27
ENDBRANCH  25  26
ENDBRANCH  23  25
ENDBRANCH  22  23
ENDBRANCH   1  22
BRANCH   1  39
HETATM   39  C20 UNL     1     -12.897  54.790   0.910  1.00  0.00    -0.019 A 
HETATM   40  C21 UNL     1     -12.769  56.035   0.332  1.00  0.00     0.097 A 
HETATM   41  N6  UNL     1     -12.611  55.903  -0.998  1.00  0.00    -0.365 N 
HETATM   42  C22 UNL     1     -12.630  54.603  -1.339  1.00  0.00     0.042 A 
ATOM     43  H6  UNL     1     -12.494  56.677  -1.651  1.00  0.00     0.165 HD
HETATM   44  C23 UNL     1     -12.518  53.923  -2.540  1.00  0.00     0.030 A 
HETATM   45  C27 UNL     1     -12.809  53.893  -0.146  1.00  0.00    -0.001 A 
HETATM   46  C24 UNL     1     -12.586  52.534  -2.535  1.00  0.00     0.002 A 
HETATM   47  C25 UNL     1     -12.761  51.818  -1.378  1.00  0.00     0.001 A 
HETATM   48  C26 UNL     1     -12.871  52.503  -0.192  1.00  0.00     0.014 A 
ENDBRANCH   1  39
TORSDOF 10
ENDMDL
MODEL 5
REMARK VINA RESULT: -10.741501016      3.215      6.182
REMARK  10 active torsions:
REMARK  status: ('A' for Active; 'I' for Inactive)
REMARK    1  A    between atoms: C5_5  and  S1_6 
REMARK    2  A    between atoms: S1_6  and  N1_9 
REMARK    3  A    between atoms: N1_9  and  C6_11 
REMARK    4  A    between atoms: C8_15  and  C9_16 
REMARK    5  A    between atoms: C9_16  and  C10_17 
REMARK    6  A    between atoms: C9_16  and  C20_34 
REMARK    7  A    between atoms: C10_17  and  N3_18 
REMARK    8  A    between atoms: N3_18  and  C11_20 
REMARK    9  A    between atoms: C11_20  and  C12_21 
REMARK   10  A    between atoms: C12_21  and  C13_22 
ROOT
HETATM    1  C9  UNL     1     -13.029  53.871   5.770  1.00  0.00     0.089 C 
ENDROOT
BRANCH   1   2
HETATM    2  C8  UNL     1     -12.992  52.614   4.977  1.00  0.00     0.035 A 
HETATM    3  N2  UNL     1     -13.999  51.743   5.094  1.00  0.00    -0.364 N 
HETATM    4  C7  UNL     1     -14.058  50.589   4.386  1.00  0.00     0.137 A 
ATOM      5  H2  UNL     1     -14.755  51.956   5.744  1.00  0.00     0.165 HD
HETATM    6  C6  UNL     1     -13.068  50.270   3.509  1.00  0.00     0.130 A 
HETATM    7  N7  UNL     1     -12.032  51.150   3.382  1.00  0.00    -0.349 N 
HETATM    8  C28 UNL     1     -11.993  52.285   4.091  1.00  0.00     0.115 A 
ATOM      9  H7  UNL     1     -11.273  50.938   2.734  1.00  0.00     0.167 HD
BRANCH   6  10
HETATM   10  N1  UNL     1     -13.099  49.212   2.812  1.00  0.00    -0.265 N 
ATOM     11  H1  UNL     1     -13.059  48.342   3.344  1.00  0.00     0.180 HD
BRANCH  10  12
HETATM   12  S1  UNL     1     -13.196  49.023   1.127  1.00  0.00     0.264 S 
HETATM   13  O1  UNL     1     -12.888  50.278   0.374  1.00  0.00    -0.200 OA
HETATM   14  O2  UNL     1     -12.177  47.986   0.666  1.00  0.00    -0.200 OA
BRANCH  12  15
HETATM   15  C5  UNL     1     -14.803  48.412   0.710  1.00  0.00     0.079 A 
HETATM   16  C4  UNL     1     -15.838  48.631   1.592  1.00  0.00     0.026 A 
HETATM   17  C3  UNL     1     -17.104  48.184   1.311  1.00  0.00     0.008 A 
HETATM   18  C2  UNL     1     -17.312  47.514   0.136  1.00  0.00    -0.062 A 
HETATM   19  C1  UNL     1     -18.661  47.026  -0.177  1.00  0.00     0.048 C 
HETATM   20  C30 UNL     1     -16.286  47.284  -0.763  1.00  0.00     0.008 A 
HETATM   21  C29 UNL     1     -15.003  47.741  -0.471  1.00  0.00     0.026 A 
ENDBRANCH  12  15
ENDBRANCH  10  12
ENDBRANCH   6  10
ENDBRANCH   1   2
BRANCH   1  22
HETATM   22  C10 UNL     1     -14.290  54.633   5.565  1.00  0.00     0.129 C 
BRANCH  22  23
HETATM   23  N3  UNL     1     -14.088  55.731   4.671  1.00  0.00    -0.420 N 
ATOM     24  H3  UNL     1     -13.843  56.664   5.003  1.00  0.00     0.153 HD
BRANCH  23  25
HETATM   25  C11 UNL     1     -14.251  55.438   3.283  1.00  0.00     0.118 C 
BRANCH  25  26
HETATM   26  C12 UNL     1     -12.939  55.735   2.562  1.00  0.00     0.058 C 
BRANCH  26  27
HETATM   27  C13 UNL     1     -13.066  55.294   1.130  1.00  0.00    -0.054 A 
HETATM   28  C14 UNL     1     -12.580  56.106   0.139  1.00  0.00     0.009 A 
HETATM   29  C15 UNL     1     -12.721  55.693  -1.186  1.00  0.00     0.032 A 
HETATM   30  C16 UNL     1     -13.337  54.492  -1.493  1.00  0.00     0.063 A 
HETATM   31  N4  UNL     1     -13.616  53.843  -2.641  1.00  0.00    -0.307 N 
HETATM   32  C18 UNL     1     -13.824  53.679  -0.482  1.00  0.00     0.063 A 
HETATM   33  C17 UNL     1     -14.242  52.682  -2.412  1.00  0.00     0.325 A 
ATOM     34  H4  UNL     1     -13.379  54.193  -3.570  1.00  0.00     0.170 HD
HETATM   35  O3  UNL     1     -14.662  51.800  -3.223  1.00  0.00    -0.247 OA
HETATM   36  N5  UNL     1     -14.360  52.601  -1.055  1.00  0.00    -0.306 N 
ATOM     37  H5  UNL     1     -14.796  51.828  -0.551  1.00  0.00     0.170 HD
HETATM   38  C19 UNL     1     -13.688  54.079   0.831  1.00  0.00     0.039 A 
ENDBRANCH  26  27
ENDBRANCH  25  26
ENDBRANCH  23  25
ENDBRANCH  22  23
ENDBRANCH   1  22
BRANCH   1  39
HETATM   39  C20 UNL     1     -12.871  53.507   7.198  1.00  0.00    -0.019 A 
HETATM   40  C21 UNL     1     -12.756  52.262   7.779  1.00  0.00     0.097 A 
HETATM   41  N6  UNL     1     -12.606  52.394   9.109  1.00  0.00    -0.365 N 
HETATM   42  C22 UNL     1     -12.617  53.694   9.448  1.00  0.00     0.042 A 
ATOM     43  H6  UNL     1     -12.499  51.620   9.764  1.00  0.00     0.165 HD
HETATM   44  C23 UNL     1     -12.508  54.375  10.649  1.00  0.00     0.030 A 
HETATM   45  C27 UNL     1     -12.783  54.405   8.254  1.00  0.00    -0.001 A 
HETATM   46  C24 UNL     1     -12.565  55.764  10.642  1.00  0.00     0.002 A 
HETATM   47  C25 UNL     1     -12.727  56.481   9.483  1.00  0.00     0.001 A 
HETATM   48  C26 UNL     1     -12.834  55.795   8.297  1.00  0.00     0.014 A 
ENDBRANCH   1  39
TORSDOF 10
ENDMDL
