MODEL 1
REMARK VINA RESULT: -8.271105321      0.000      0.000
REMARK  10 active torsions:
REMARK  status: ('A' for Active; 'I' for Inactive)
REMARK    1  A    between atoms: C2_2  and  C33_43 
REMARK    2  A    between atoms: C3_3  and  C4_4 
REMARK    3  A    between atoms: C20_25  and  O2_26 
REMARK    4  A    between atoms: O2_26  and  C21_27 
REMARK    5  A    between atoms: C21_27  and  C22_28 
REMARK    6  A    between atoms: C22_28  and  N3_29 
REMARK    7  A    between atoms: N3_29  and  C23_32 
REMARK    8  A    between atoms: C23_32  and  C24_33 
REMARK    9  A    between atoms: C24_33  and  C25_34 
REMARK   10  A    between atoms: C25_34  and  N4_35 
ROOT
HETATM    1  C4  UNL     1     -12.763  57.548   7.178  1.00  0.00     0.116 C 
HETATM    2  N1  UNL     1     -12.452  57.312   8.598  1.00  0.00    -0.335 N 
ATOM      3  H1  UNL     1     -11.794  57.894   9.118  1.00  0.00     0.165 HD
HETATM    4  C5  UNL     1     -13.144  56.200   9.199  1.00  0.00     0.317 C 
HETATM    5  O1  UNL     1     -12.903  55.956  10.418  1.00  0.00    -0.247 OA
HETATM    6  N2  UNL     1     -14.057  55.410   8.455  1.00  0.00    -0.338 N 
ATOM      7  H2  UNL     1     -14.691  54.791   8.959  1.00  0.00     0.164 HD
HETATM    8  C6  UNL     1     -14.125  55.447   7.013  1.00  0.00     0.092 C 
HETATM    9  C7  UNL     1     -14.038  54.073   6.402  1.00  0.00     0.026 C 
HETATM   10  C8  UNL     1     -12.720  53.766   5.795  1.00  0.00     0.012 C 
HETATM   11  C9  UNL     1     -12.269  54.781   4.733  1.00  0.00    -0.036 C 
HETATM   12  C10 UNL     1     -10.731  54.769   4.884  1.00  0.00     0.016 C 
HETATM   13  C11 UNL     1     -12.710  56.166   5.051  1.00  0.00     0.002 C 
HETATM   14  C12 UNL     1     -13.873  56.686   4.296  1.00  0.00     0.006 C 
HETATM   15  C13 UNL     1     -14.482  55.780   3.280  1.00  0.00     0.006 C 
HETATM   16  C14 UNL     1     -13.440  55.094   2.501  1.00  0.00    -0.001 C 
HETATM   17  C15 UNL     1     -12.588  54.252   3.410  1.00  0.00    -0.001 C 
HETATM   18  C16 UNL     1     -11.365  53.858   2.562  1.00  0.00     0.007 C 
HETATM   19  C17 UNL     1     -11.816  52.973   1.403  1.00  0.00     0.013 C 
HETATM   20  C18 UNL     1     -12.853  53.674   0.631  1.00  0.00    -0.010 C 
HETATM   21  C19 UNL     1     -12.307  54.716  -0.281  1.00  0.00     0.018 C 
HETATM   22  C20 UNL     1     -13.681  52.719  -0.263  1.00  0.00     0.130 C 
HETATM   23  C28 UNL     1     -14.799  53.643  -0.649  1.00  0.00     0.033 C 
HETATM   24  C29 UNL     1     -14.858  54.754   0.408  1.00  0.00     0.013 C 
HETATM   25  C30 UNL     1     -14.022  54.166   1.487  1.00  0.00    -0.030 C 
HETATM   26  C31 UNL     1     -14.747  53.003   2.062  1.00  0.00     0.016 C 
HETATM   27  C32 UNL     1     -12.898  56.202   6.554  1.00  0.00     0.040 C 
ENDROOT
BRANCH  22  28
HETATM   28  O2  UNL     1     -12.926  52.317  -1.343  1.00  0.00    -0.383 OA
BRANCH  28  29
HETATM   29  C21 UNL     1     -12.744  50.961  -1.455  1.00  0.00     0.195 C 
BRANCH  29  30
HETATM   30  C22 UNL     1     -13.301  50.125  -0.342  1.00  0.00     0.258 C 
BRANCH  30  31
HETATM   31  N3  UNL     1     -12.223  49.502   0.378  1.00  0.00    -0.073 N 
ATOM     32  H32 UNL     1     -11.461  49.250  -0.251  1.00  0.00     0.277 HD
ATOM     33  H31 UNL     1     -11.737  50.180   0.966  1.00  0.00     0.277 HD
BRANCH  31  34
HETATM   34  C23 UNL     1     -12.641  48.380   1.140  1.00  0.00     0.234 C 
BRANCH  34  35
HETATM   35  C24 UNL     1     -12.193  48.484   2.588  1.00  0.00     0.057 C 
BRANCH  35  36
HETATM   36  C25 UNL     1     -12.753  49.682   3.267  1.00  0.00     0.273 C 
BRANCH  36  37
HETATM   37  N4  UNL     1     -14.086  49.515   3.807  1.00  0.00     0.080 N 
HETATM   38  C26 UNL     1     -14.101  48.287   4.578  1.00  0.00     0.309 C 
HETATM   39  C27 UNL     1     -14.286  50.605   4.772  1.00  0.00     0.309 C 
ENDBRANCH  36  37
ENDBRANCH  35  36
ENDBRANCH  34  35
ENDBRANCH  31  34
ENDBRANCH  30  31
ENDBRANCH  29  30
ENDBRANCH  28  29
ENDBRANCH  22  28
BRANCH   1  40
HETATM   40  C3  UNL     1     -13.969  58.372   7.178  1.00  0.00     0.012 C 
HETATM   41  C2  UNL     1     -13.947  59.561   6.613  1.00  0.00     0.013 C 
HETATM   42  C1  UNL     1     -12.688  60.077   5.968  1.00  0.00     0.055 C 
BRANCH  41  43
HETATM   43  C33 UNL     1     -15.128  60.397   6.602  1.00  0.00     0.204 C 
HETATM   44  O3  UNL     1     -15.041  61.643   6.634  1.00  0.00    -0.644 OA
HETATM   45  O4  UNL     1     -16.383  59.823   6.554  1.00  0.00    -0.644 OA
ENDBRANCH  41  43
ENDBRANCH   1  40
TORSDOF 10
ENDMDL
MODEL 2
REMARK VINA RESULT: -8.269185582      2.213      9.200
REMARK  10 active torsions:
REMARK  status: ('A' for Active; 'I' for Inactive)
REMARK    1  A    between atoms: C2_2  and  C33_43 
REMARK    2  A    between atoms: C3_3  and  C4_4 
REMARK    3  A    between atoms: C20_25  and  O2_26 
REMARK    4  A    between atoms: O2_26  and  C21_27 
REMARK    5  A    between atoms: C21_27  and  C22_28 
REMARK    6  A    between atoms: C22_28  and  N3_29 
REMARK    7  A    between atoms: N3_29  and  C23_32 
REMARK    8  A    between atoms: C23_32  and  C24_33 
REMARK    9  A    between atoms: C24_33  and  C25_34 
REMARK   10  A    between atoms: C25_34  and  N4_35 
ROOT
HETATM    1  C4  UNL     1     -12.779  50.656   0.837  1.00  0.00     0.116 C 
HETATM    2  N1  UNL     1     -12.453  50.870  -0.584  1.00  0.00    -0.335 N 
ATOM      3  H1  UNL     1     -11.801  50.271  -1.092  1.00  0.00     0.165 HD
HETATM    4  C5  UNL     1     -13.122  51.986  -1.202  1.00  0.00     0.317 C 
HETATM    5  O1  UNL     1     -12.868  52.212  -2.422  1.00  0.00    -0.247 OA
HETATM    6  N2  UNL     1     -14.027  52.800  -0.474  1.00  0.00    -0.338 N 
ATOM      7  H2  UNL     1     -14.647  53.424  -0.990  1.00  0.00     0.164 HD
HETATM    8  C6  UNL     1     -14.106  52.781   0.968  1.00  0.00     0.092 C 
HETATM    9  C7  UNL     1     -14.001  54.159   1.564  1.00  0.00     0.026 C 
HETATM   10  C8  UNL     1     -12.682  54.451   2.177  1.00  0.00     0.012 C 
HETATM   11  C9  UNL     1     -12.256  53.441   3.254  1.00  0.00    -0.036 C 
HETATM   12  C10 UNL     1     -10.717  53.427   3.113  1.00  0.00     0.016 C 
HETATM   13  C11 UNL     1     -12.717  52.061   2.948  1.00  0.00     0.002 C 
HETATM   14  C12 UNL     1     -13.895  51.568   3.700  1.00  0.00     0.006 C 
HETATM   15  C13 UNL     1     -14.495  52.497   4.701  1.00  0.00     0.006 C 
HETATM   16  C14 UNL     1     -13.448  53.174   5.481  1.00  0.00    -0.001 C 
HETATM   17  C15 UNL     1     -12.576  53.991   4.568  1.00  0.00    -0.001 C 
HETATM   18  C16 UNL     1     -11.353  54.374   5.421  1.00  0.00     0.007 C 
HETATM   19  C17 UNL     1     -11.797  55.281   6.566  1.00  0.00     0.013 C 
HETATM   20  C18 UNL     1     -12.851  54.606   7.338  1.00  0.00    -0.010 C 
HETATM   21  C19 UNL     1     -12.329  53.565   8.266  1.00  0.00     0.018 C 
HETATM   22  C20 UNL     1     -13.670  55.584   8.216  1.00  0.00     0.130 C 
HETATM   23  C28 UNL     1     -14.806  54.683   8.603  1.00  0.00     0.033 C 
HETATM   24  C29 UNL     1     -14.875  53.561   7.559  1.00  0.00     0.013 C 
HETATM   25  C30 UNL     1     -14.021  54.123   6.479  1.00  0.00    -0.030 C 
HETATM   26  C31 UNL     1     -14.723  55.291   5.885  1.00  0.00     0.016 C 
HETATM   27  C32 UNL     1     -12.896  52.011   1.444  1.00  0.00     0.040 C 
ENDROOT
BRANCH  22  28
HETATM   28  O2  UNL     1     -12.916  55.986   9.296  1.00  0.00    -0.383 OA
BRANCH  28  29
HETATM   29  C21 UNL     1     -12.719  57.341   9.399  1.00  0.00     0.195 C 
BRANCH  29  30
HETATM   30  C22 UNL     1     -13.287  58.177   8.292  1.00  0.00     0.258 C 
BRANCH  30  31
HETATM   31  N3  UNL     1     -12.216  58.758   7.528  1.00  0.00    -0.073 N 
ATOM     32  H32 UNL     1     -11.396  58.918   8.113  1.00  0.00     0.277 HD
ATOM     33  H31 UNL     1     -11.824  58.078   6.874  1.00  0.00     0.277 HD
BRANCH  31  34
HETATM   34  C23 UNL     1     -12.596  59.946   6.854  1.00  0.00     0.234 C 
BRANCH  34  35
HETATM   35  C24 UNL     1     -12.249  59.891   5.376  1.00  0.00     0.057 C 
BRANCH  35  36
HETATM   36  C25 UNL     1     -12.749  58.653   4.724  1.00  0.00     0.273 C 
BRANCH  36  37
HETATM   37  N4  UNL     1     -14.089  58.740   4.184  1.00  0.00     0.080 N 
HETATM   38  C26 UNL     1     -14.195  59.994   3.462  1.00  0.00     0.309 C 
HETATM   39  C27 UNL     1     -14.205  57.677   3.176  1.00  0.00     0.309 C 
ENDBRANCH  36  37
ENDBRANCH  35  36
ENDBRANCH  34  35
ENDBRANCH  31  34
ENDBRANCH  30  31
ENDBRANCH  29  30
ENDBRANCH  28  29
ENDBRANCH  22  28
BRANCH   1  40
HETATM   40  C3  UNL     1     -13.998  49.852   0.837  1.00  0.00     0.012 C 
HETATM   41  C2  UNL     1     -13.999  48.669   1.417  1.00  0.00     0.013 C 
HETATM   42  C1  UNL     1     -12.754  48.141   2.078  1.00  0.00     0.055 C 
BRANCH  41  43
HETATM   43  C33 UNL     1     -15.195  47.853   1.428  1.00  0.00     0.204 C 
HETATM   44  O3  UNL     1     -15.134  46.614   1.287  1.00  0.00    -0.644 OA
HETATM   45  O4  UNL     1     -16.433  48.440   1.599  1.00  0.00    -0.644 OA
ENDBRANCH  41  43
ENDBRANCH   1  40
TORSDOF 10
ENDMDL
MODEL 3
REMARK VINA RESULT: -7.797226837      2.234      9.418
REMARK  10 active torsions:
REMARK  status: ('A' for Active; 'I' for Inactive)
REMARK    1  A    between atoms: C2_2  and  C33_43 
REMARK    2  A    between atoms: C3_3  and  C4_4 
REMARK    3  A    between atoms: C20_25  and  O2_26 
REMARK    4  A    between atoms: O2_26  and  C21_27 
REMARK    5  A    between atoms: C21_27  and  C22_28 
REMARK    6  A    between atoms: C22_28  and  N3_29 
REMARK    7  A    between atoms: N3_29  and  C23_32 
REMARK    8  A    between atoms: C23_32  and  C24_33 
REMARK    9  A    between atoms: C24_33  and  C25_34 
REMARK   10  A    between atoms: C25_34  and  N4_35 
ROOT
HETATM    1  C4  UNL     1     -12.823  50.798   1.038  1.00  0.00     0.116 C 
HETATM    2  N1  UNL     1     -12.526  51.061  -0.381  1.00  0.00    -0.335 N 
ATOM      3  H1  UNL     1     -11.872  50.491  -0.918  1.00  0.00     0.165 HD
HETATM    4  C5  UNL     1     -13.227  52.182  -0.954  1.00  0.00     0.317 C 
HETATM    5  O1  UNL     1     -12.997  52.450  -2.170  1.00  0.00    -0.247 OA
HETATM    6  N2  UNL     1     -14.135  52.956  -0.187  1.00  0.00    -0.338 N 
ATOM      7  H2  UNL     1     -14.775  53.583  -0.673  1.00  0.00     0.164 HD
HETATM    8  C6  UNL     1     -14.189  52.892   1.255  1.00  0.00     0.092 C 
HETATM    9  C7  UNL     1     -14.100  54.254   1.891  1.00  0.00     0.026 C 
HETATM   10  C8  UNL     1     -12.777  54.553   2.491  1.00  0.00     0.012 C 
HETATM   11  C9  UNL     1     -12.314  53.519   3.530  1.00  0.00    -0.036 C 
HETATM   12  C10 UNL     1     -10.777  53.540   3.364  1.00  0.00     0.016 C 
HETATM   13  C11 UNL     1     -12.753  52.140   3.189  1.00  0.00     0.002 C 
HETATM   14  C12 UNL     1     -13.908  51.602   3.945  1.00  0.00     0.006 C 
HETATM   15  C13 UNL     1     -14.510  52.488   4.984  1.00  0.00     0.006 C 
HETATM   16  C14 UNL     1     -13.462  53.162   5.766  1.00  0.00    -0.001 C 
HETATM   17  C15 UNL     1     -12.622  54.023   4.865  1.00  0.00    -0.001 C 
HETATM   18  C16 UNL     1     -11.392  54.404   5.709  1.00  0.00     0.007 C 
HETATM   19  C17 UNL     1     -11.834  55.267   6.889  1.00  0.00     0.013 C 
HETATM   20  C18 UNL     1     -12.862  54.548   7.657  1.00  0.00    -0.010 C 
HETATM   21  C19 UNL     1     -12.304  53.491   8.544  1.00  0.00     0.018 C 
HETATM   22  C20 UNL     1     -13.684  55.484   8.577  1.00  0.00     0.130 C 
HETATM   23  C28 UNL     1     -14.796  54.549   8.955  1.00  0.00     0.033 C 
HETATM   24  C29 UNL     1     -14.862  53.458   7.879  1.00  0.00     0.013 C 
HETATM   25  C30 UNL     1     -14.037  54.069   6.803  1.00  0.00    -0.030 C 
HETATM   26  C31 UNL     1     -14.771  55.241   6.256  1.00  0.00     0.016 C 
HETATM   27  C32 UNL     1     -12.956  52.132   1.688  1.00  0.00     0.040 C 
ENDROOT
BRANCH  22  28
HETATM   28  O2  UNL     1     -12.920  55.868   9.656  1.00  0.00    -0.383 OA
BRANCH  28  29
HETATM   29  C21 UNL     1     -12.976  57.204   9.965  1.00  0.00     0.195 C 
BRANCH  29  30
HETATM   30  C22 UNL     1     -13.183  58.141   8.813  1.00  0.00     0.258 C 
BRANCH  30  31
HETATM   31  N3  UNL     1     -11.911  58.638   8.361  1.00  0.00    -0.073 N 
ATOM     32  H32 UNL     1     -11.417  59.113   9.116  1.00  0.00     0.277 HD
ATOM     33  H31 UNL     1     -11.260  57.871   8.192  1.00  0.00     0.277 HD
BRANCH  31  34
HETATM   34  C23 UNL     1     -12.016  59.474   7.220  1.00  0.00     0.234 C 
BRANCH  34  35
HETATM   35  C24 UNL     1     -13.100  58.995   6.269  1.00  0.00     0.057 C 
BRANCH  35  36
HETATM   36  C25 UNL     1     -14.064  60.072   5.924  1.00  0.00     0.273 C 
BRANCH  36  37
HETATM   37  N4  UNL     1     -15.038  60.378   6.949  1.00  0.00     0.080 N 
HETATM   38  C26 UNL     1     -15.200  61.819   6.991  1.00  0.00     0.309 C 
HETATM   39  C27 UNL     1     -16.322  59.836   6.483  1.00  0.00     0.309 C 
ENDBRANCH  36  37
ENDBRANCH  35  36
ENDBRANCH  34  35
ENDBRANCH  31  34
ENDBRANCH  30  31
ENDBRANCH  29  30
ENDBRANCH  28  29
ENDBRANCH  22  28
BRANCH   1  40
HETATM   40  C3  UNL     1     -14.027  49.971   1.034  1.00  0.00     0.012 C 
HETATM   41  C2  UNL     1     -13.978  48.745   1.514  1.00  0.00     0.013 C 
HETATM   42  C1  UNL     1     -12.692  48.192   2.066  1.00  0.00     0.055 C 
BRANCH  41  43
HETATM   43  C33 UNL     1     -15.157  47.906   1.518  1.00  0.00     0.204 C 
HETATM   44  O3  UNL     1     -15.069  46.664   1.416  1.00  0.00    -0.644 OA
HETATM   45  O4  UNL     1     -16.411  48.472   1.639  1.00  0.00    -0.644 OA
ENDBRANCH  41  43
ENDBRANCH   1  40
TORSDOF 10
ENDMDL
MODEL 4
REMARK VINA RESULT: -7.549239271      1.140      1.631
REMARK  10 active torsions:
REMARK  status: ('A' for Active; 'I' for Inactive)
REMARK    1  A    between atoms: C2_2  and  C33_43 
REMARK    2  A    between atoms: C3_3  and  C4_4 
REMARK    3  A    between atoms: C20_25  and  O2_26 
REMARK    4  A    between atoms: O2_26  and  C21_27 
REMARK    5  A    between atoms: C21_27  and  C22_28 
REMARK    6  A    between atoms: C22_28  and  N3_29 
REMARK    7  A    between atoms: N3_29  and  C23_32 
REMARK    8  A    between atoms: C23_32  and  C24_33 
REMARK    9  A    between atoms: C24_33  and  C25_34 
REMARK   10  A    between atoms: C25_34  and  N4_35 
ROOT
HETATM    1  C4  UNL     1     -12.802  57.457   7.137  1.00  0.00     0.116 C 
HETATM    2  N1  UNL     1     -12.503  57.187   8.554  1.00  0.00    -0.335 N 
ATOM      3  H1  UNL     1     -11.845  57.752   9.092  1.00  0.00     0.165 HD
HETATM    4  C5  UNL     1     -13.207  56.067   9.125  1.00  0.00     0.317 C 
HETATM    5  O1  UNL     1     -12.977  55.794  10.340  1.00  0.00    -0.247 OA
HETATM    6  N2  UNL     1     -14.121  55.301   8.358  1.00  0.00    -0.338 N 
ATOM      7  H2  UNL     1     -14.763  54.675   8.843  1.00  0.00     0.164 HD
HETATM    8  C6  UNL     1     -14.178  55.370   6.916  1.00  0.00     0.092 C 
HETATM    9  C7  UNL     1     -14.096  54.010   6.275  1.00  0.00     0.026 C 
HETATM   10  C8  UNL     1     -12.776  53.707   5.671  1.00  0.00     0.012 C 
HETATM   11  C9  UNL     1     -12.311  54.742   4.635  1.00  0.00    -0.036 C 
HETATM   12  C10 UNL     1     -10.774  54.714   4.797  1.00  0.00     0.016 C 
HETATM   13  C11 UNL     1     -12.743  56.122   4.981  1.00  0.00     0.002 C 
HETATM   14  C12 UNL     1     -13.898  56.668   4.230  1.00  0.00     0.006 C 
HETATM   15  C13 UNL     1     -14.506  55.788   3.189  1.00  0.00     0.006 C 
HETATM   16  C14 UNL     1     -13.463  55.112   2.402  1.00  0.00    -0.001 C 
HETATM   17  C15 UNL     1     -12.624  54.244   3.299  1.00  0.00    -0.001 C 
HETATM   18  C16 UNL     1     -11.398  53.860   2.450  1.00  0.00     0.007 C 
HETATM   19  C17 UNL     1     -11.847  53.004   1.269  1.00  0.00     0.013 C 
HETATM   20  C18 UNL     1     -12.873  53.729   0.506  1.00  0.00    -0.010 C 
HETATM   21  C19 UNL     1     -12.313  54.788  -0.379  1.00  0.00     0.018 C 
HETATM   22  C20 UNL     1     -13.702  52.801  -0.416  1.00  0.00     0.130 C 
HETATM   23  C28 UNL     1     -14.811  53.742  -0.788  1.00  0.00     0.033 C 
HETATM   24  C29 UNL     1     -14.869  54.829   0.292  1.00  0.00     0.013 C 
HETATM   25  C30 UNL     1     -14.044  54.211   1.364  1.00  0.00    -0.030 C 
HETATM   26  C31 UNL     1     -14.782  53.041   1.908  1.00  0.00     0.016 C 
HETATM   27  C32 UNL     1     -12.943  56.126   6.483  1.00  0.00     0.040 C 
ENDROOT
BRANCH  22  28
HETATM   28  O2  UNL     1     -12.942  52.417  -1.498  1.00  0.00    -0.383 OA
BRANCH  28  29
HETATM   29  C21 UNL     1     -13.056  51.096  -1.852  1.00  0.00     0.195 C 
BRANCH  29  30
HETATM   30  C22 UNL     1     -12.194  50.132  -1.094  1.00  0.00     0.258 C 
BRANCH  30  31
HETATM   31  N3  UNL     1     -13.022  49.286  -0.276  1.00  0.00    -0.073 N 
ATOM     32  H32 UNL     1     -13.990  49.607  -0.283  1.00  0.00     0.277 HD
ATOM     33  H31 UNL     1     -13.147  48.370  -0.709  1.00  0.00     0.277 HD
BRANCH  31  34
HETATM   34  C23 UNL     1     -12.541  49.157   1.052  1.00  0.00     0.234 C 
BRANCH  34  35
HETATM   35  C24 UNL     1     -13.113  47.930   1.741  1.00  0.00     0.057 C 
BRANCH  35  36
HETATM   36  C25 UNL     1     -13.904  47.079   0.814  1.00  0.00     0.273 C 
BRANCH  36  37
HETATM   37  N4  UNL     1     -15.226  46.722   1.285  1.00  0.00     0.080 N 
HETATM   38  C26 UNL     1     -16.123  47.812   0.956  1.00  0.00     0.309 C 
HETATM   39  C27 UNL     1     -15.662  45.575   0.476  1.00  0.00     0.309 C 
ENDBRANCH  36  37
ENDBRANCH  35  36
ENDBRANCH  34  35
ENDBRANCH  31  34
ENDBRANCH  30  31
ENDBRANCH  29  30
ENDBRANCH  28  29
ENDBRANCH  22  28
BRANCH   1  40
HETATM   40  C3  UNL     1     -14.002  58.289   7.147  1.00  0.00     0.012 C 
HETATM   41  C2  UNL     1     -13.987  59.463   6.550  1.00  0.00     0.013 C 
HETATM   42  C1  UNL     1     -12.742  59.952   5.859  1.00  0.00     0.055 C 
BRANCH  41  43
HETATM   43  C33 UNL     1     -15.162  60.307   6.548  1.00  0.00     0.204 C 
HETATM   44  O3  UNL     1     -16.308  59.822   6.443  1.00  0.00    -0.644 OA
HETATM   45  O4  UNL     1     -15.033  61.677   6.664  1.00  0.00    -0.644 OA
ENDBRANCH  41  43
ENDBRANCH   1  40
TORSDOF 10
ENDMDL
MODEL 5
REMARK VINA RESULT: -7.456679874      2.050      2.990
REMARK  10 active torsions:
REMARK  status: ('A' for Active; 'I' for Inactive)
REMARK    1  A    between atoms: C2_2  and  C33_43 
REMARK    2  A    between atoms: C3_3  and  C4_4 
REMARK    3  A    between atoms: C20_25  and  O2_26 
REMARK    4  A    between atoms: O2_26  and  C21_27 
REMARK    5  A    between atoms: C21_27  and  C22_28 
REMARK    6  A    between atoms: C22_28  and  N3_29 
REMARK    7  A    between atoms: N3_29  and  C23_32 
REMARK    8  A    between atoms: C23_32  and  C24_33 
REMARK    9  A    between atoms: C24_33  and  C25_34 
REMARK   10  A    between atoms: C25_34  and  N4_35 
ROOT
HETATM    1  C4  UNL     1     -12.786  57.430   7.110  1.00  0.00     0.116 C 
HETATM    2  N1  UNL     1     -12.482  57.151   8.524  1.00  0.00    -0.335 N 
ATOM      3  H1  UNL     1     -11.826  57.715   9.065  1.00  0.00     0.165 HD
HETATM    4  C5  UNL     1     -13.180  56.023   9.087  1.00  0.00     0.317 C 
HETATM    5  O1  UNL     1     -12.946  55.741  10.299  1.00  0.00    -0.247 OA
HETATM    6  N2  UNL     1     -14.091  55.258   8.315  1.00  0.00    -0.338 N 
ATOM      7  H2  UNL     1     -14.729  54.625   8.797  1.00  0.00     0.164 HD
HETATM    8  C6  UNL     1     -14.152  55.339   6.874  1.00  0.00     0.092 C 
HETATM    9  C7  UNL     1     -14.065  53.984   6.222  1.00  0.00     0.026 C 
HETATM   10  C8  UNL     1     -12.744  53.692   5.613  1.00  0.00     0.012 C 
HETATM   11  C9  UNL     1     -12.286  54.738   4.585  1.00  0.00    -0.036 C 
HETATM   12  C10 UNL     1     -10.749  54.716   4.743  1.00  0.00     0.016 C 
HETATM   13  C11 UNL     1     -12.724  56.113   4.943  1.00  0.00     0.002 C 
HETATM   14  C12 UNL     1     -13.883  56.660   4.198  1.00  0.00     0.006 C 
HETATM   15  C13 UNL     1     -14.488  55.786   3.151  1.00  0.00     0.006 C 
HETATM   16  C14 UNL     1     -13.444  55.121   2.357  1.00  0.00    -0.001 C 
HETATM   17  C15 UNL     1     -12.599  54.250   3.245  1.00  0.00    -0.001 C 
HETATM   18  C16 UNL     1     -11.373  53.879   2.391  1.00  0.00     0.007 C 
HETATM   19  C17 UNL     1     -11.820  53.030   1.203  1.00  0.00     0.013 C 
HETATM   20  C18 UNL     1     -12.851  53.757   0.448  1.00  0.00    -0.010 C 
HETATM   21  C19 UNL     1     -12.298  54.825  -0.429  1.00  0.00     0.018 C 
HETATM   22  C20 UNL     1     -13.677  52.832  -0.479  1.00  0.00     0.130 C 
HETATM   23  C28 UNL     1     -14.791  53.770  -0.842  1.00  0.00     0.033 C 
HETATM   24  C29 UNL     1     -14.852  54.849   0.247  1.00  0.00     0.013 C 
HETATM   25  C30 UNL     1     -14.023  54.226   1.313  1.00  0.00    -0.030 C 
HETATM   26  C31 UNL     1     -14.754  53.048   1.849  1.00  0.00     0.016 C 
HETATM   27  C32 UNL     1     -12.921  56.104   6.445  1.00  0.00     0.040 C 
ENDROOT
BRANCH  22  28
HETATM   28  O2  UNL     1     -12.917  52.461  -1.566  1.00  0.00    -0.383 OA
BRANCH  28  29
HETATM   29  C21 UNL     1     -12.709  51.111  -1.699  1.00  0.00     0.195 C 
BRANCH  29  30
HETATM   30  C22 UNL     1     -13.765  50.349  -2.442  1.00  0.00     0.258 C 
BRANCH  30  31
HETATM   31  N3  UNL     1     -13.351  50.159  -3.807  1.00  0.00    -0.073 N 
ATOM     32  H32 UNL     1     -13.150  51.053  -4.255  1.00  0.00     0.277 HD
ATOM     33  H31 UNL     1     -12.422  49.738  -3.851  1.00  0.00     0.277 HD
BRANCH  31  34
HETATM   34  C23 UNL     1     -14.283  49.409  -4.569  1.00  0.00     0.234 C 
BRANCH  34  35
HETATM   35  C24 UNL     1     -15.712  49.670  -4.127  1.00  0.00     0.057 C 
BRANCH  35  36
HETATM   36  C25 UNL     1     -16.485  48.414  -3.942  1.00  0.00     0.273 C 
BRANCH  36  37
HETATM   37  N4  UNL     1     -16.935  48.162  -2.590  1.00  0.00     0.080 N 
HETATM   38  C26 UNL     1     -18.112  47.317  -2.665  1.00  0.00     0.309 C 
HETATM   39  C27 UNL     1     -15.892  47.353  -1.945  1.00  0.00     0.309 C 
ENDBRANCH  36  37
ENDBRANCH  35  36
ENDBRANCH  34  35
ENDBRANCH  31  34
ENDBRANCH  30  31
ENDBRANCH  29  30
ENDBRANCH  28  29
ENDBRANCH  22  28
BRANCH   1  40
HETATM   40  C3  UNL     1     -13.989  58.257   7.129  1.00  0.00     0.012 C 
HETATM   41  C2  UNL     1     -13.993  59.419   6.508  1.00  0.00     0.013 C 
HETATM   42  C1  UNL     1     -12.766  59.899   5.780  1.00  0.00     0.055 C 
BRANCH  41  43
HETATM   43  C33 UNL     1     -15.173  60.256   6.514  1.00  0.00     0.204 C 
HETATM   44  O3  UNL     1     -15.092  61.488   6.707  1.00  0.00    -0.644 OA
HETATM   45  O4  UNL     1     -16.419  59.700   6.304  1.00  0.00    -0.644 OA
ENDBRANCH  41  43
ENDBRANCH   1  40
TORSDOF 10
ENDMDL
