MODEL 1
REMARK VINA RESULT: -4.383921363      0.000      0.000
REMARK  1 active torsions:
REMARK  status: ('A' for Active; 'I' for Inactive)
REMARK    1  A    between atoms: C2_2  and  C3_4 
ROOT
HETATM    1  C3  UNL     1      52.030  22.430  30.607  1.00  0.00     0.250 A 
HETATM    2  C4  UNL     1      52.163  20.939  30.696  1.00  0.00     0.271 A 
HETATM    3  N1  UNL     1      53.331  21.829  30.580  1.00  0.00    -0.062 N 
ATOM      4  H11 UNL     1      54.179  21.956  31.132  1.00  0.00     0.278 HD
ATOM      5  H12 UNL     1      54.119  21.879  29.934  1.00  0.00     0.278 HD
ENDROOT
BRANCH   1   6
HETATM    6  C2  UNL     1      51.422  22.966  29.392  1.00  0.00     0.011 C 
HETATM    7  C1  UNL     1      50.138  23.282  29.367  1.00  0.00     0.029 C 
HETATM    8 BR1  UNL     1      52.447  23.224  27.813  1.00  0.00    -0.054 Br
ENDBRANCH   1   6
TORSDOF 1
ENDMDL
MODEL 2
REMARK VINA RESULT: -4.238357767      1.499      1.653
REMARK  1 active torsions:
REMARK  status: ('A' for Active; 'I' for Inactive)
REMARK    1  A    between atoms: C2_2  and  C3_4 
ROOT
HETATM    1  C3  UNL     1      52.235  22.511  30.484  1.00  0.00     0.250 A 
HETATM    2  C4  UNL     1      52.250  21.081  30.936  1.00  0.00     0.271 A 
HETATM    3  N1  UNL     1      53.424  21.725  30.322  1.00  0.00    -0.062 N 
ATOM      4  H11 UNL     1      54.394  21.846  30.611  1.00  0.00     0.278 HD
ATOM      5  H12 UNL     1      54.017  21.498  29.524  1.00  0.00     0.278 HD
ENDROOT
BRANCH   1   6
HETATM    6  C2  UNL     1      51.382  22.831  29.342  1.00  0.00     0.011 C 
HETATM    7  C1  UNL     1      51.840  22.710  28.107  1.00  0.00     0.029 C 
HETATM    8 BR1  UNL     1      49.595  23.429  29.588  1.00  0.00    -0.054 Br
ENDBRANCH   1   6
TORSDOF 1
ENDMDL
MODEL 3
REMARK VINA RESULT: -4.156711997      1.823      2.382
REMARK  1 active torsions:
REMARK  status: ('A' for Active; 'I' for Inactive)
REMARK    1  A    between atoms: C2_2  and  C3_4 
ROOT
HETATM    1  C3  UNL     1      52.315  21.780  29.087  1.00  0.00     0.250 A 
HETATM    2  C4  UNL     1      53.031  22.663  28.110  1.00  0.00     0.271 A 
HETATM    3  N1  UNL     1      53.747  21.851  29.109  1.00  0.00    -0.062 N 
ATOM      4  H11 UNL     1      54.489  21.153  29.052  1.00  0.00     0.278 HD
ATOM      5  H12 UNL     1      54.433  22.065  29.834  1.00  0.00     0.278 HD
ENDROOT
BRANCH   1   6
HETATM    6  C2  UNL     1      51.512  22.446  30.109  1.00  0.00     0.011 C 
HETATM    7  C1  UNL     1      51.884  22.420  31.378  1.00  0.00     0.029 C 
HETATM    8 BR1  UNL     1      49.912  23.367  29.656  1.00  0.00    -0.054 Br
ENDBRANCH   1   6
TORSDOF 1
ENDMDL
MODEL 4
REMARK VINA RESULT: -4.103150023      2.112      2.583
REMARK  1 active torsions:
REMARK  status: ('A' for Active; 'I' for Inactive)
REMARK    1  A    between atoms: C2_2  and  C3_4 
ROOT
HETATM    1  C3  UNL     1      51.857  22.489  28.295  1.00  0.00     0.250 A 
HETATM    2  C4  UNL     1      52.672  23.595  27.694  1.00  0.00     0.271 A 
HETATM    3  N1  UNL     1      53.289  22.422  28.336  1.00  0.00    -0.062 N 
ATOM      4  H11 UNL     1      53.973  21.728  28.032  1.00  0.00     0.278 HD
ATOM      5  H12 UNL     1      53.970  22.305  29.087  1.00  0.00     0.278 HD
ENDROOT
BRANCH   1   6
HETATM    6  C2  UNL     1      51.084  22.816  29.490  1.00  0.00     0.011 C 
HETATM    7  C1  UNL     1      49.888  23.370  29.385  1.00  0.00     0.029 C 
HETATM    8 BR1  UNL     1      51.765  22.460  31.229  1.00  0.00    -0.054 Br
ENDBRANCH   1   6
TORSDOF 1
ENDMDL
MODEL 5
REMARK VINA RESULT: -3.899099769      2.145      2.179
REMARK  1 active torsions:
REMARK  status: ('A' for Active; 'I' for Inactive)
REMARK    1  A    between atoms: C2_2  and  C3_4 
ROOT
HETATM    1  C3  UNL     1      52.215  22.317  31.281  1.00  0.00     0.250 A 
HETATM    2  C4  UNL     1      52.325  20.856  30.963  1.00  0.00     0.271 A 
HETATM    3  N1  UNL     1      53.231  21.859  30.378  1.00  0.00    -0.062 N 
ATOM      4  H11 UNL     1      54.245  21.961  30.347  1.00  0.00     0.278 HD
ATOM      5  H12 UNL     1      53.490  22.104  29.422  1.00  0.00     0.278 HD
ENDROOT
BRANCH   1   6
HETATM    6  C2  UNL     1      51.027  23.009  30.789  1.00  0.00     0.011 C 
HETATM    7  C1  UNL     1      50.859  23.217  29.493  1.00  0.00     0.029 C 
HETATM    8 BR1  UNL     1      49.687  23.632  31.985  1.00  0.00    -0.054 Br
ENDBRANCH   1   6
TORSDOF 1
ENDMDL
