MODEL 1
REMARK VINA RESULT: -8.918666870      0.000      0.000
REMARK  6 active torsions:
REMARK  status: ('A' for Active; 'I' for Inactive)
REMARK    1  A    between atoms: C3_4  and  N2_5 
REMARK    2  A    between atoms: N4_15  and  C10_16 
REMARK    3  A    between atoms: C10_16  and  C11_17 
REMARK    4  A    between atoms: C15_25  and  C16_26 
REMARK    5  A    between atoms: C16_26  and  N7_27 
REMARK    6  A    between atoms: C18_29  and  C19_30 
ROOT
HETATM    1  N1  UNL     1      -1.886  39.207  13.646  1.00  0.00    -0.195 NA
HETATM    2  C1  UNL     1      -2.797  38.979  13.011  1.00  0.00     0.086 C 
HETATM    3  C2  UNL     1      -3.936  38.693  12.164  1.00  0.00     0.214 C 
HETATM    4  C3  UNL     1      -5.221  38.700  13.013  1.00  0.00     0.124 C 
HETATM    5  C8  UNL     1      -5.740  40.106  12.723  1.00  0.00     0.048 C 
HETATM    6  C9  UNL     1      -5.551  40.042  11.185  1.00  0.00     0.126 C 
HETATM    7  N4  UNL     1      -4.175  39.546  11.128  1.00  0.00    -0.370 N 
ENDROOT
BRANCH   4   8
HETATM    8  N2  UNL     1      -5.037  38.457  14.391  1.00  0.00    -0.363 N 
HETATM    9  C4  UNL     1      -5.189  39.438  15.445  1.00  0.00     0.125 C 
HETATM   10  C5  UNL     1      -4.870  38.753  16.757  1.00  0.00     0.027 C 
HETATM   11  C6  UNL     1      -4.129  37.515  16.353  1.00  0.00     0.077 C 
HETATM   12  C7  UNL     1      -4.646  37.214  15.006  1.00  0.00     0.073 C 
HETATM   13  N3  UNL     1      -4.699  36.024  14.522  1.00  0.00    -0.389 N 
ATOM     14  H32 UNL     1      -5.057  35.816  13.589  1.00  0.00     0.157 HD
ATOM     15  H31 UNL     1      -4.423  35.144  14.957  1.00  0.00     0.157 HD
ENDBRANCH   4   8
BRANCH   7  16
HETATM   16  C10 UNL     1      -3.531  39.787   9.937  1.00  0.00     0.099 C 
BRANCH  16  17
HETATM   17  C11 UNL     1      -3.293  41.264   9.845  1.00  0.00    -0.006 A 
HETATM   18  C12 UNL     1      -3.036  42.087  10.907  1.00  0.00     0.031 A 
HETATM   19  C13 UNL     1      -2.887  43.454  10.661  1.00  0.00     0.090 A 
HETATM   20  N5  UNL     1      -2.981  43.985   9.441  1.00  0.00    -0.352 N 
HETATM   21  C14 UNL     1      -3.237  43.164   8.384  1.00  0.00     0.116 A 
ATOM     22  H5  UNL     1      -2.863  44.989   9.302  1.00  0.00     0.166 HD
HETATM   23  N6  UNL     1      -3.315  43.475   7.058  1.00  0.00    -0.344 N 
HETATM   24  C23 UNL     1      -3.396  41.825   8.567  1.00  0.00     0.021 A 
HETATM   25  C15 UNL     1      -3.533  42.323   6.416  1.00  0.00     0.040 A 
ATOM     26  H6  UNL     1      -3.224  44.401   6.641  1.00  0.00     0.167 HD
HETATM   27  C22 UNL     1      -3.592  41.280   7.313  1.00  0.00     0.043 A 
BRANCH  25  28
HETATM   28  C16 UNL     1      -3.662  42.150   4.943  1.00  0.00     0.329 C 
BRANCH  28  29
HETATM   29  N7  UNL     1      -4.583  41.131   4.560  1.00  0.00     0.100 N 
HETATM   30  C17 UNL     1      -3.955  40.049   3.845  1.00  0.00     0.289 C 
HETATM   31  C18 UNL     1      -4.807  39.908   2.558  1.00  0.00     0.153 C 
HETATM   32  C20 UNL     1      -6.155  40.284   3.096  1.00  0.00     0.280 C 
HETATM   33  F3  UNL     1      -6.615  39.367   3.983  1.00  0.00    -0.204 F 
HETATM   34  F4  UNL     1      -7.075  40.624   2.124  1.00  0.00    -0.204 F 
HETATM   35  C21 UNL     1      -5.755  41.552   3.880  1.00  0.00     0.352 C 
BRANCH  31  36
HETATM   36  C19 UNL     1      -4.220  40.884   1.590  1.00  0.00     0.364 C 
HETATM   37  F1  UNL     1      -4.781  40.835   0.326  1.00  0.00    -0.214 F 
HETATM   38  F2  UNL     1      -2.860  40.482   1.414  1.00  0.00    -0.214 F 
ENDBRANCH  31  36
ENDBRANCH  28  29
ENDBRANCH  25  28
ENDBRANCH  16  17
ENDBRANCH   7  16
TORSDOF 6
ENDMDL
MODEL 2
REMARK VINA RESULT: -8.874741563      3.211      6.435
REMARK  6 active torsions:
REMARK  status: ('A' for Active; 'I' for Inactive)
REMARK    1  A    between atoms: C3_4  and  N2_5 
REMARK    2  A    between atoms: N4_15  and  C10_16 
REMARK    3  A    between atoms: C10_16  and  C11_17 
REMARK    4  A    between atoms: C15_25  and  C16_26 
REMARK    5  A    between atoms: C16_26  and  N7_27 
REMARK    6  A    between atoms: C18_29  and  C19_30 
ROOT
HETATM    1  N1  UNL     1      -2.675  44.981   8.069  1.00  0.00    -0.195 NA
HETATM    2  C1  UNL     1      -1.606  44.897   8.438  1.00  0.00     0.086 C 
HETATM    3  C2  UNL     1      -0.238  44.751   8.886  1.00  0.00     0.214 C 
HETATM    4  C3  UNL     1       0.052  45.781   9.995  1.00  0.00     0.124 C 
HETATM    5  C8  UNL     1      -0.131  44.913  11.237  1.00  0.00     0.048 C 
HETATM    6  C9  UNL     1       0.715  43.716  10.732  1.00  0.00     0.126 C 
HETATM    7  N4  UNL     1       0.126  43.543   9.403  1.00  0.00    -0.370 N 
ENDROOT
BRANCH   4   8
HETATM    8  N2  UNL     1      -0.782  46.919   9.994  1.00  0.00    -0.363 N 
HETATM    9  C4  UNL     1      -1.813  47.207  10.969  1.00  0.00     0.125 C 
HETATM   10  C5  UNL     1      -2.472  48.510  10.568  1.00  0.00     0.027 C 
HETATM   11  C6  UNL     1      -2.077  48.694   9.135  1.00  0.00     0.077 C 
HETATM   12  C7  UNL     1      -0.787  47.988   9.027  1.00  0.00     0.073 C 
HETATM   13  N3  UNL     1       0.127  48.317   8.185  1.00  0.00    -0.389 N 
ATOM     14  H32 UNL     1       1.020  47.829   8.111  1.00  0.00     0.157 HD
ATOM     15  H31 UNL     1       0.124  49.073   7.501  1.00  0.00     0.157 HD
ENDBRANCH   4   8
BRANCH   7  16
HETATM   16  C10 UNL     1       0.327  42.301   8.847  1.00  0.00     0.099 C 
BRANCH  16  17
HETATM   17  C11 UNL     1      -0.862  41.456   9.191  1.00  0.00    -0.006 A 
HETATM   18  C12 UNL     1      -1.018  40.757  10.356  1.00  0.00     0.031 A 
HETATM   19  C13 UNL     1      -2.165  39.973  10.506  1.00  0.00     0.090 A 
HETATM   20  N5  UNL     1      -3.108  39.883   9.568  1.00  0.00    -0.352 N 
HETATM   21  C14 UNL     1      -2.951  40.581   8.408  1.00  0.00     0.116 A 
ATOM     22  H5  UNL     1      -3.933  39.301   9.716  1.00  0.00     0.166 HD
HETATM   23  N6  UNL     1      -3.805  40.684   7.349  1.00  0.00    -0.344 N 
HETATM   24  C23 UNL     1      -1.851  41.355   8.207  1.00  0.00     0.021 A 
HETATM   25  C15 UNL     1      -3.226  41.521   6.482  1.00  0.00     0.040 A 
ATOM     26  H6  UNL     1      -4.705  40.216   7.241  1.00  0.00     0.167 HD
HETATM   27  C22 UNL     1      -2.016  41.956   6.975  1.00  0.00     0.043 A 
BRANCH  25  28
HETATM   28  C16 UNL     1      -3.795  41.967   5.181  1.00  0.00     0.329 C 
BRANCH  28  29
HETATM   29  N7  UNL     1      -4.731  41.052   4.617  1.00  0.00     0.100 N 
HETATM   30  C17 UNL     1      -4.097  39.940   3.953  1.00  0.00     0.289 C 
HETATM   31  C18 UNL     1      -4.751  39.923   2.548  1.00  0.00     0.153 C 
HETATM   32  C20 UNL     1      -6.127  40.405   2.895  1.00  0.00     0.280 C 
HETATM   33  F3  UNL     1      -6.796  39.507   3.658  1.00  0.00    -0.204 F 
HETATM   34  F4  UNL     1      -6.853  40.863   1.812  1.00  0.00    -0.204 F 
HETATM   35  C21 UNL     1      -5.743  41.603   3.789  1.00  0.00     0.352 C 
BRANCH  31  36
HETATM   36  C19 UNL     1      -3.938  40.872   1.726  1.00  0.00     0.364 C 
HETATM   37  F1  UNL     1      -4.141  40.757   0.362  1.00  0.00    -0.214 F 
HETATM   38  F2  UNL     1      -2.576  40.495   1.936  1.00  0.00    -0.214 F 
ENDBRANCH  31  36
ENDBRANCH  28  29
ENDBRANCH  25  28
ENDBRANCH  16  17
ENDBRANCH   7  16
TORSDOF 6
ENDMDL
MODEL 3
REMARK VINA RESULT: -8.729602265      1.193      1.242
REMARK  6 active torsions:
REMARK  status: ('A' for Active; 'I' for Inactive)
REMARK    1  A    between atoms: C3_4  and  N2_5 
REMARK    2  A    between atoms: N4_15  and  C10_16 
REMARK    3  A    between atoms: C10_16  and  C11_17 
REMARK    4  A    between atoms: C15_25  and  C16_26 
REMARK    5  A    between atoms: C16_26  and  N7_27 
REMARK    6  A    between atoms: C18_29  and  C19_30 
ROOT
HETATM    1  N1  UNL     1      -2.211  38.578  13.648  1.00  0.00    -0.195 NA
HETATM    2  C1  UNL     1      -3.175  38.762  13.081  1.00  0.00     0.086 C 
HETATM    3  C2  UNL     1      -4.387  38.984  12.321  1.00  0.00     0.214 C 
HETATM    4  C3  UNL     1      -5.394  39.774  13.178  1.00  0.00     0.124 C 
HETATM    5  C8  UNL     1      -5.163  41.186  12.650  1.00  0.00     0.048 C 
HETATM    6  C9  UNL     1      -5.199  40.813  11.146  1.00  0.00     0.126 C 
HETATM    7  N4  UNL     1      -4.274  39.678  11.153  1.00  0.00    -0.370 N 
ENDROOT
BRANCH   4   8
HETATM    8  N2  UNL     1      -5.210  39.672  14.573  1.00  0.00    -0.363 N 
HETATM    9  C4  UNL     1      -4.694  40.718  15.432  1.00  0.00     0.125 C 
HETATM   10  C5  UNL     1      -4.640  40.169  16.842  1.00  0.00     0.027 C 
HETATM   11  C6  UNL     1      -4.722  38.684  16.659  1.00  0.00     0.077 C 
HETATM   12  C7  UNL     1      -5.471  38.520  15.400  1.00  0.00     0.073 C 
HETATM   13  N3  UNL     1      -6.204  37.495  15.144  1.00  0.00    -0.389 N 
ATOM     14  H32 UNL     1      -6.722  37.382  14.273  1.00  0.00     0.157 HD
ATOM     15  H31 UNL     1      -6.389  36.681  15.729  1.00  0.00     0.157 HD
ENDBRANCH   4   8
BRANCH   7  16
HETATM   16  C10 UNL     1      -3.730  39.379   9.926  1.00  0.00     0.099 C 
BRANCH  16  17
HETATM   17  C11 UNL     1      -2.611  40.346   9.683  1.00  0.00    -0.006 A 
HETATM   18  C12 UNL     1      -1.552  40.551  10.524  1.00  0.00     0.031 A 
HETATM   19  C13 UNL     1      -0.615  41.527  10.178  1.00  0.00     0.090 A 
HETATM   20  N5  UNL     1      -0.708  42.260   9.068  1.00  0.00    -0.352 N 
HETATM   21  C14 UNL     1      -1.764  42.055   8.230  1.00  0.00     0.116 A 
ATOM     22  H5  UNL     1      -0.002  42.963   8.849  1.00  0.00     0.166 HD
HETATM   23  N6  UNL     1      -2.027  42.638   7.026  1.00  0.00    -0.344 N 
HETATM   24  C23 UNL     1      -2.709  41.120   8.521  1.00  0.00     0.021 A 
HETATM   25  C15 UNL     1      -3.148  42.068   6.571  1.00  0.00     0.040 A 
ATOM     26  H6  UNL     1      -1.478  43.364   6.565  1.00  0.00     0.167 HD
HETATM   27  C22 UNL     1      -3.601  41.126   7.467  1.00  0.00     0.043 A 
BRANCH  25  28
HETATM   28  C16 UNL     1      -3.815  42.359   5.274  1.00  0.00     0.329 C 
BRANCH  28  29
HETATM   29  N7  UNL     1      -4.649  41.302   4.804  1.00  0.00     0.100 N 
HETATM   30  C17 UNL     1      -3.898  40.188   4.280  1.00  0.00     0.289 C 
HETATM   31  C18 UNL     1      -4.512  39.951   2.877  1.00  0.00     0.153 C 
HETATM   32  C20 UNL     1      -5.936  40.336   3.147  1.00  0.00     0.280 C 
HETATM   33  F3  UNL     1      -6.537  39.470   3.998  1.00  0.00    -0.204 F 
HETATM   34  F4  UNL     1      -6.675  40.599   2.010  1.00  0.00    -0.204 F 
HETATM   35  C21 UNL     1      -5.687  41.658   3.904  1.00  0.00     0.352 C 
BRANCH  31  36
HETATM   36  C19 UNL     1      -3.772  40.875   1.964  1.00  0.00     0.364 C 
HETATM   37  F1  UNL     1      -4.036  40.675   0.620  1.00  0.00    -0.214 F 
HETATM   38  F2  UNL     1      -2.389  40.553   2.128  1.00  0.00    -0.214 F 
ENDBRANCH  31  36
ENDBRANCH  28  29
ENDBRANCH  25  28
ENDBRANCH  16  17
ENDBRANCH   7  16
TORSDOF 6
ENDMDL
MODEL 4
REMARK VINA RESULT: -8.679824411      1.893      3.427
REMARK  6 active torsions:
REMARK  status: ('A' for Active; 'I' for Inactive)
REMARK    1  A    between atoms: C3_4  and  N2_5 
REMARK    2  A    between atoms: N4_15  and  C10_16 
REMARK    3  A    between atoms: C10_16  and  C11_17 
REMARK    4  A    between atoms: C15_25  and  C16_26 
REMARK    5  A    between atoms: C16_26  and  N7_27 
REMARK    6  A    between atoms: C18_29  and  C19_30 
ROOT
HETATM    1  N1  UNL     1      -3.098  39.328   9.674  1.00  0.00    -0.195 NA
HETATM    2  C1  UNL     1      -2.573  40.226  10.127  1.00  0.00     0.086 C 
HETATM    3  C2  UNL     1      -1.893  41.384  10.665  1.00  0.00     0.214 C 
HETATM    4  C3  UNL     1      -1.771  41.245  12.194  1.00  0.00     0.124 C 
HETATM    5  C8  UNL     1      -0.342  40.724  12.315  1.00  0.00     0.048 C 
HETATM    6  C9  UNL     1       0.295  41.753  11.346  1.00  0.00     0.126 C 
HETATM    7  N4  UNL     1      -0.629  41.631  10.217  1.00  0.00    -0.370 N 
ENDROOT
BRANCH   4   8
HETATM    8  N2  UNL     1      -2.718  40.392  12.800  1.00  0.00    -0.363 N 
HETATM    9  C4  UNL     1      -2.434  39.095  13.378  1.00  0.00     0.125 C 
HETATM   10  C5  UNL     1      -3.741  38.523  13.886  1.00  0.00     0.027 C 
HETATM   11  C6  UNL     1      -4.790  39.334  13.188  1.00  0.00     0.077 C 
HETATM   12  C7  UNL     1      -4.133  40.630  12.939  1.00  0.00     0.073 C 
HETATM   13  N3  UNL     1      -4.775  41.741  12.861  1.00  0.00    -0.389 N 
ATOM     14  H32 UNL     1      -4.320  42.638  12.689  1.00  0.00     0.157 HD
ATOM     15  H31 UNL     1      -5.776  41.909  12.960  1.00  0.00     0.157 HD
ENDBRANCH   4   8
BRANCH   7  16
HETATM   16  C10 UNL     1      -0.123  42.071   9.016  1.00  0.00     0.099 C 
BRANCH  16  17
HETATM   17  C11 UNL     1      -0.925  43.268   8.602  1.00  0.00    -0.006 A 
HETATM   18  C12 UNL     1      -0.708  44.547   9.035  1.00  0.00     0.031 A 
HETATM   19  C13 UNL     1      -1.577  45.549   8.594  1.00  0.00     0.090 A 
HETATM   20  N5  UNL     1      -2.600  45.310   7.772  1.00  0.00    -0.352 N 
HETATM   21  C14 UNL     1      -2.814  44.035   7.341  1.00  0.00     0.116 A 
ATOM     22  H5  UNL     1      -3.211  46.069   7.471  1.00  0.00     0.166 HD
HETATM   23  N6  UNL     1      -3.751  43.574   6.463  1.00  0.00    -0.344 N 
HETATM   24  C23 UNL     1      -2.002  43.020   7.744  1.00  0.00     0.021 A 
HETATM   25  C15 UNL     1      -3.523  42.264   6.326  1.00  0.00     0.040 A 
ATOM     26  H6  UNL     1      -4.478  44.121   6.002  1.00  0.00     0.167 HD
HETATM   27  C22 UNL     1      -2.452  41.883   7.103  1.00  0.00     0.043 A 
BRANCH  25  28
HETATM   28  C16 UNL     1      -4.275  41.331   5.444  1.00  0.00     0.329 C 
BRANCH  28  29
HETATM   29  N7  UNL     1      -3.731  41.213   4.132  1.00  0.00     0.100 N 
HETATM   30  C17 UNL     1      -4.264  42.189   3.215  1.00  0.00     0.289 C 
HETATM   31  C18 UNL     1      -4.745  41.344   2.008  1.00  0.00     0.153 C 
HETATM   32  C20 UNL     1      -3.722  40.248   2.034  1.00  0.00     0.280 C 
HETATM   33  F3  UNL     1      -2.485  40.709   1.730  1.00  0.00    -0.204 F 
HETATM   34  F4  UNL     1      -4.084  39.122   1.320  1.00  0.00    -0.204 F 
HETATM   35  C21 UNL     1      -3.757  39.923   3.542  1.00  0.00     0.352 C 
BRANCH  31  36
HETATM   36  C19 UNL     1      -6.135  40.917   2.358  1.00  0.00     0.364 C 
HETATM   37  F1  UNL     1      -7.045  41.052   1.324  1.00  0.00    -0.214 F 
HETATM   38  F2  UNL     1      -6.575  41.828   3.367  1.00  0.00    -0.214 F 
ENDBRANCH  31  36
ENDBRANCH  28  29
ENDBRANCH  25  28
ENDBRANCH  16  17
ENDBRANCH   7  16
TORSDOF 6
ENDMDL
MODEL 5
REMARK VINA RESULT: -8.644501569      3.185      5.425
REMARK  6 active torsions:
REMARK  status: ('A' for Active; 'I' for Inactive)
REMARK    1  A    between atoms: C3_4  and  N2_5 
REMARK    2  A    between atoms: N4_15  and  C10_16 
REMARK    3  A    between atoms: C10_16  and  C11_17 
REMARK    4  A    between atoms: C15_25  and  C16_26 
REMARK    5  A    between atoms: C16_26  and  N7_27 
REMARK    6  A    between atoms: C18_29  and  C19_30 
ROOT
HETATM    1  N1  UNL     1      -0.012  40.058  10.752  1.00  0.00    -0.195 NA
HETATM    2  C1  UNL     1      -0.036  41.190  10.807  1.00  0.00     0.086 C 
HETATM    3  C2  UNL     1      -0.108  42.633  10.891  1.00  0.00     0.214 C 
HETATM    4  C3  UNL     1       1.124  43.250  10.202  1.00  0.00     0.124 C 
HETATM    5  C8  UNL     1       0.535  43.601   8.839  1.00  0.00     0.048 C 
HETATM    6  C9  UNL     1      -0.754  44.271   9.380  1.00  0.00     0.126 C 
HETATM    7  N4  UNL     1      -1.189  43.240  10.323  1.00  0.00    -0.370 N 
ENDROOT
BRANCH   4   8
HETATM    8  N2  UNL     1       2.251  42.406  10.112  1.00  0.00    -0.363 N 
HETATM    9  C4  UNL     1       2.721  41.756   8.906  1.00  0.00     0.125 C 
HETATM   10  C5  UNL     1       3.935  40.930   9.274  1.00  0.00     0.027 C 
HETATM   11  C6  UNL     1       3.852  40.801  10.765  1.00  0.00     0.077 C 
HETATM   12  C7  UNL     1       3.127  42.013  11.188  1.00  0.00     0.073 C 
HETATM   13  N3  UNL     1       3.289  42.565  12.337  1.00  0.00    -0.389 N 
ATOM     14  H32 UNL     1       2.787  43.404  12.630  1.00  0.00     0.157 HD
ATOM     15  H31 UNL     1       3.908  42.288  13.098  1.00  0.00     0.157 HD
ENDBRANCH   4   8
BRANCH   7  16
HETATM   16  C10 UNL     1      -2.522  43.297  10.657  1.00  0.00     0.099 C 
BRANCH  16  17
HETATM   17  C11 UNL     1      -3.089  41.921  10.480  1.00  0.00    -0.006 A 
HETATM   18  C12 UNL     1      -3.380  41.053  11.497  1.00  0.00     0.031 A 
HETATM   19  C13 UNL     1      -3.858  39.784  11.164  1.00  0.00     0.090 A 
HETATM   20  N5  UNL     1      -4.043  39.387   9.904  1.00  0.00    -0.352 N 
HETATM   21  C14 UNL     1      -3.753  40.253   8.892  1.00  0.00     0.116 A 
ATOM     22  H5  UNL     1      -4.396  38.451   9.701  1.00  0.00     0.166 HD
HETATM   23  N6  UNL     1      -3.919  40.085   7.549  1.00  0.00    -0.344 N 
HETATM   24  C23 UNL     1      -3.280  41.500   9.159  1.00  0.00     0.021 A 
HETATM   25  C15 UNL     1      -3.538  41.233   6.978  1.00  0.00     0.040 A 
ATOM     26  H6  UNL     1      -4.265  39.251   7.074  1.00  0.00     0.167 HD
HETATM   27  C22 UNL     1      -3.135  42.132   7.940  1.00  0.00     0.043 A 
BRANCH  25  28
HETATM   28  C16 UNL     1      -3.568  41.542   5.523  1.00  0.00     0.329 C 
BRANCH  28  29
HETATM   29  N7  UNL     1      -4.648  40.928   4.825  1.00  0.00     0.100 N 
HETATM   30  C17 UNL     1      -4.261  39.715   4.148  1.00  0.00     0.289 C 
HETATM   31  C18 UNL     1      -4.756  39.925   2.694  1.00  0.00     0.153 C 
HETATM   32  C20 UNL     1      -5.989  40.737   2.954  1.00  0.00     0.280 C 
HETATM   33  F3  UNL     1      -6.938  40.016   3.600  1.00  0.00    -0.204 F 
HETATM   34  F4  UNL     1      -6.464  41.412   1.846  1.00  0.00    -0.204 F 
HETATM   35  C21 UNL     1      -5.399  41.757   3.952  1.00  0.00     0.352 C 
BRANCH  31  36
HETATM   36  C19 UNL     1      -3.651  40.660   2.005  1.00  0.00     0.364 C 
HETATM   37  F1  UNL     1      -3.616  40.473   0.634  1.00  0.00    -0.214 F 
HETATM   38  F2  UNL     1      -2.440  40.080   2.495  1.00  0.00    -0.214 F 
ENDBRANCH  31  36
ENDBRANCH  28  29
ENDBRANCH  25  28
ENDBRANCH  16  17
ENDBRANCH   7  16
TORSDOF 6
ENDMDL
