MODEL 1
REMARK VINA RESULT: -5.801604306      0.000      0.000
REMARK  2 active torsions:
REMARK  status: ('A' for Active; 'I' for Inactive)
REMARK    1  A    between atoms: C1_2  and  C2_5 
REMARK    2  A    between atoms: C2_5  and  C3_6 
ROOT
HETATM    1  C3  UNL     1       1.381  40.745 -11.117  1.00  0.00     0.035 A 
HETATM    2  C4  UNL     1       0.090  40.743 -11.604  1.00  0.00     0.045 A 
HETATM    3  C5  UNL     1       0.096  41.484 -12.758  1.00  0.00     0.109 A 
HETATM    4  N1  UNL     1       1.355  41.917 -12.955  1.00  0.00    -0.312 N 
ATOM      5  H1  UNL     1       1.673  42.494 -13.734  1.00  0.00     0.186 HD
HETATM    6  N2  UNL     1       2.099  41.473 -11.980  1.00  0.00    -0.305 N 
ATOM      7  H2  UNL     1       3.098  41.657 -11.888  1.00  0.00     0.186 HD
ENDROOT
BRANCH   1   8
HETATM    8  C2  UNL     1       1.941  40.110  -9.912  1.00  0.00     0.176 C 
BRANCH   8   9
HETATM    9  C1  UNL     1       1.626  38.643  -9.825  1.00  0.00     0.393 C 
HETATM   10  F1  UNL     1       0.382  38.377  -9.344  1.00  0.00    -0.171 F 
HETATM   11  F2  UNL     1       2.540  38.075  -8.939  1.00  0.00    -0.171 F 
HETATM   12  F3  UNL     1       1.780  38.002 -11.038  1.00  0.00    -0.171 F 
ENDBRANCH   8   9
ENDBRANCH   1   8
TORSDOF 2
ENDMDL
MODEL 2
REMARK VINA RESULT: -5.742493289      1.593      2.026
REMARK  2 active torsions:
REMARK  status: ('A' for Active; 'I' for Inactive)
REMARK    1  A    between atoms: C1_2  and  C2_5 
REMARK    2  A    between atoms: C2_5  and  C3_6 
ROOT
HETATM    1  C3  UNL     1       1.624  39.802 -11.311  1.00  0.00     0.035 A 
HETATM    2  C4  UNL     1       1.231  39.974 -12.621  1.00  0.00     0.045 A 
HETATM    3  C5  UNL     1       1.647  41.223 -13.003  1.00  0.00     0.109 A 
HETATM    4  N1  UNL     1       2.271  41.782 -11.950  1.00  0.00    -0.312 N 
ATOM      5  H1  UNL     1       2.690  42.713 -11.930  1.00  0.00     0.186 HD
HETATM    6  N2  UNL     1       2.249  40.933 -10.962  1.00  0.00    -0.305 N 
ATOM      7  H2  UNL     1       2.656  41.107 -10.043  1.00  0.00     0.186 HD
ENDROOT
BRANCH   1   8
HETATM    8  C2  UNL     1       1.438  38.653 -10.408  1.00  0.00     0.176 C 
BRANCH   8   9
HETATM    9  C1  UNL     1       0.001  38.436 -10.025  1.00  0.00     0.393 C 
HETATM   10  F1  UNL     1      -0.723  37.774 -10.967  1.00  0.00    -0.171 F 
HETATM   11  F2  UNL     1      -0.580  39.692  -9.867  1.00  0.00    -0.171 F 
HETATM   12  F3  UNL     1      -0.124  37.773  -8.820  1.00  0.00    -0.171 F 
ENDBRANCH   8   9
ENDBRANCH   1   8
TORSDOF 2
ENDMDL
MODEL 3
REMARK VINA RESULT: -5.733398041      0.251      1.237
REMARK  2 active torsions:
REMARK  status: ('A' for Active; 'I' for Inactive)
REMARK    1  A    between atoms: C1_2  and  C2_5 
REMARK    2  A    between atoms: C2_5  and  C3_6 
ROOT
HETATM    1  C3  UNL     1       1.538  40.637 -11.031  1.00  0.00     0.035 A 
HETATM    2  C4  UNL     1       0.323  40.594 -11.681  1.00  0.00     0.045 A 
HETATM    3  C5  UNL     1       0.447  41.358 -12.814  1.00  0.00     0.109 A 
HETATM    4  N1  UNL     1       1.702  41.844 -12.839  1.00  0.00    -0.312 N 
ATOM      5  H1  UNL     1       2.093  42.449 -13.561  1.00  0.00     0.186 HD
HETATM    6  N2  UNL     1       2.331  41.410 -11.783  1.00  0.00    -0.305 N 
ATOM      7  H2  UNL     1       3.301  41.631 -11.559  1.00  0.00     0.186 HD
ENDROOT
BRANCH   1   8
HETATM    8  C2  UNL     1       1.964  40.000  -9.773  1.00  0.00     0.176 C 
BRANCH   8   9
HETATM    9  C1  UNL     1       1.692  38.522  -9.745  1.00  0.00     0.393 C 
HETATM   10  F1  UNL     1       1.753  37.930 -10.969  1.00  0.00    -0.171 F 
HETATM   11  F2  UNL     1       0.396  38.347  -9.267  1.00  0.00    -0.171 F 
HETATM   12  F3  UNL     1       2.539  37.851  -8.885  1.00  0.00    -0.171 F 
ENDBRANCH   8   9
ENDBRANCH   1   8
TORSDOF 2
ENDMDL
MODEL 4
REMARK VINA RESULT: -5.674834713      0.166      1.237
REMARK  2 active torsions:
REMARK  status: ('A' for Active; 'I' for Inactive)
REMARK    1  A    between atoms: C1_2  and  C2_5 
REMARK    2  A    between atoms: C2_5  and  C3_6 
ROOT
HETATM    1  C3  UNL     1       1.331  40.669 -11.023  1.00  0.00     0.035 A 
HETATM    2  C4  UNL     1       0.005  40.685 -11.400  1.00  0.00     0.045 A 
HETATM    3  C5  UNL     1      -0.070  41.400 -12.568  1.00  0.00     0.109 A 
HETATM    4  N1  UNL     1       1.176  41.800 -12.879  1.00  0.00    -0.312 N 
ATOM      5  H1  UNL     1       1.439  42.353 -13.696  1.00  0.00     0.186 HD
HETATM    6  N2  UNL     1       1.990  41.361 -11.960  1.00  0.00    -0.305 N 
ATOM      7  H2  UNL     1       2.996  41.525 -11.956  1.00  0.00     0.186 HD
ENDROOT
BRANCH   1   8
HETATM    8  C2  UNL     1       1.977  40.047  -9.854  1.00  0.00     0.176 C 
BRANCH   8   9
HETATM    9  C1  UNL     1       1.676  38.581  -9.730  1.00  0.00     0.393 C 
HETATM   10  F1  UNL     1       2.547  37.908  -8.931  1.00  0.00    -0.171 F 
HETATM   11  F2  UNL     1       1.776  38.027 -11.005  1.00  0.00    -0.171 F 
HETATM   12  F3  UNL     1       0.391  38.347  -9.282  1.00  0.00    -0.171 F 
ENDBRANCH   8   9
ENDBRANCH   1   8
TORSDOF 2
ENDMDL
MODEL 5
REMARK VINA RESULT: -5.598581590      1.766      2.449
REMARK  2 active torsions:
REMARK  status: ('A' for Active; 'I' for Inactive)
REMARK    1  A    between atoms: C1_2  and  C2_5 
REMARK    2  A    between atoms: C2_5  and  C3_6 
ROOT
HETATM    1  C3  UNL     1       1.526  39.794 -11.675  1.00  0.00     0.035 A 
HETATM    2  C4  UNL     1       2.124  40.600 -10.729  1.00  0.00     0.045 A 
HETATM    3  C5  UNL     1       2.413  41.792 -11.343  1.00  0.00     0.109 A 
HETATM    4  N1  UNL     1       2.000  41.700 -12.621  1.00  0.00    -0.312 N 
ATOM      5  H1  UNL     1       2.081  42.431 -13.328  1.00  0.00     0.186 HD
HETATM    6  N2  UNL     1       1.480  40.518 -12.800  1.00  0.00    -0.305 N 
ATOM      7  H2  UNL     1       1.090  40.188 -13.682  1.00  0.00     0.186 HD
ENDROOT
BRANCH   1   8
HETATM    8  C2  UNL     1       1.017  38.416 -11.562  1.00  0.00     0.176 C 
BRANCH   8   9
HETATM    9  C1  UNL     1      -0.342  38.346 -10.924  1.00  0.00     0.393 C 
HETATM   10  F1  UNL     1      -0.326  37.871  -9.650  1.00  0.00    -0.171 F 
HETATM   11  F2  UNL     1      -1.111  37.466 -11.682  1.00  0.00    -0.171 F 
HETATM   12  F3  UNL     1      -0.988  39.567 -10.935  1.00  0.00    -0.171 F 
ENDBRANCH   8   9
ENDBRANCH   1   8
TORSDOF 2
ENDMDL
