MODEL 1
REMARK VINA RESULT: -5.483222794      0.000      0.000
REMARK  2 active torsions:
REMARK  status: ('A' for Active; 'I' for Inactive)
REMARK    1  A    between atoms: N1_1  and  C1_5 
REMARK    2  A    between atoms: C5_10  and  C6_11 
ROOT
HETATM    1  C1  UNL     1       0.074  39.210 -11.232  1.00  0.00     0.192 C 
HETATM    2  C2  UNL     1       1.269  38.565 -10.545  1.00  0.00     0.070 C 
HETATM    3  C3  UNL     1       1.750  39.779  -9.738  1.00  0.00     0.172 C 
HETATM    4  F1  UNL     1       2.954  39.546  -9.140  1.00  0.00    -0.249 F 
HETATM    5  C4  UNL     1       1.864  40.786 -10.880  1.00  0.00     0.046 C 
HETATM    6  C5  UNL     1       0.634  40.493 -11.740  1.00  0.00     0.047 C 
ENDROOT
BRANCH   1   7
HETATM    7  N1  UNL     1      -0.516  38.373 -12.228  1.00  0.00    -0.074 N 
ATOM      8  H13 UNL     1      -0.705  37.442 -11.856  1.00  0.00     0.274 HD
ATOM      9  H12 UNL     1      -1.471  38.668 -12.432  1.00  0.00     0.274 HD
ATOM     10  H11 UNL     1       0.039  38.318 -13.082  1.00  0.00     0.274 HD
ENDBRANCH   1   7
BRANCH   6  11
HETATM   11  C6  UNL     1       1.132  40.393 -13.169  1.00  0.00     0.229 C 
HETATM   12  F2  UNL     1       2.216  41.249 -13.274  1.00  0.00    -0.255 F 
ENDBRANCH   6  11
TORSDOF 2
ENDMDL
MODEL 2
REMARK VINA RESULT: -5.413985105      1.582      3.112
REMARK  2 active torsions:
REMARK  status: ('A' for Active; 'I' for Inactive)
REMARK    1  A    between atoms: N1_1  and  C1_5 
REMARK    2  A    between atoms: C5_10  and  C6_11 
ROOT
HETATM    1  C1  UNL     1       0.737  38.783 -11.734  1.00  0.00     0.192 C 
HETATM    2  C2  UNL     1       0.741  40.298 -11.875  1.00  0.00     0.070 C 
HETATM    3  C3  UNL     1       2.085  40.587 -11.193  1.00  0.00     0.172 C 
HETATM    4  F1  UNL     1       2.281  41.925 -11.005  1.00  0.00    -0.249 F 
HETATM    5  C4  UNL     1       1.840  39.854  -9.877  1.00  0.00     0.046 C 
HETATM    6  C5  UNL     1       1.111  38.581 -10.307  1.00  0.00     0.047 C 
ENDROOT
BRANCH   1   7
HETATM    7  N1  UNL     1      -0.502  38.190 -12.123  1.00  0.00    -0.074 N 
ATOM      8  H13 UNL     1      -0.881  38.647 -12.952  1.00  0.00     0.274 HD
ATOM      9  H12 UNL     1      -0.355  37.254 -12.501  1.00  0.00     0.274 HD
ATOM     10  H11 UNL     1      -1.190  38.174 -11.370  1.00  0.00     0.274 HD
ENDBRANCH   1   7
BRANCH   6  11
HETATM   11  C6  UNL     1      -0.094  38.456  -9.395  1.00  0.00     0.229 C 
HETATM   12  F2  UNL     1       0.194  37.448  -8.490  1.00  0.00    -0.255 F 
ENDBRANCH   6  11
TORSDOF 2
ENDMDL
MODEL 3
REMARK VINA RESULT: -5.308396076      2.329      2.876
REMARK  2 active torsions:
REMARK  status: ('A' for Active; 'I' for Inactive)
REMARK    1  A    between atoms: N1_1  and  C1_5 
REMARK    2  A    between atoms: C5_10  and  C6_11 
ROOT
HETATM    1  C1  UNL     1       0.900  40.493  -9.751  1.00  0.00     0.192 C 
HETATM    2  C2  UNL     1      -0.351  40.167 -10.554  1.00  0.00     0.070 C 
HETATM    3  C3  UNL     1       0.131  38.865 -11.208  1.00  0.00     0.172 C 
HETATM    4  F1  UNL     1      -0.744  38.420 -12.157  1.00  0.00    -0.249 F 
HETATM    5  C4  UNL     1       1.429  39.381 -11.824  1.00  0.00     0.046 C 
HETATM    6  C5  UNL     1       1.992  40.308 -10.747  1.00  0.00     0.047 C 
ENDROOT
BRANCH   1   7
HETATM    7  N1  UNL     1       0.851  41.784  -9.141  1.00  0.00    -0.074 N 
ATOM      8  H13 UNL     1       0.906  42.521  -9.844  1.00  0.00     0.274 HD
ATOM      9  H12 UNL     1      -0.080  41.976  -8.770  1.00  0.00     0.274 HD
ATOM     10  H11 UNL     1       1.563  41.912  -8.422  1.00  0.00     0.274 HD
ENDBRANCH   1   7
BRANCH   6  11
HETATM   11  C6  UNL     1       2.368  41.596 -11.453  1.00  0.00     0.229 C 
HETATM   12  F2  UNL     1       2.211  41.367 -12.810  1.00  0.00    -0.255 F 
ENDBRANCH   6  11
TORSDOF 2
ENDMDL
MODEL 4
REMARK VINA RESULT: -5.297388591      1.449      1.579
REMARK  2 active torsions:
REMARK  status: ('A' for Active; 'I' for Inactive)
REMARK    1  A    between atoms: N1_1  and  C1_5 
REMARK    2  A    between atoms: C5_10  and  C6_11 
ROOT
HETATM    1  C1  UNL     1       1.026  39.000 -11.035  1.00  0.00     0.192 C 
HETATM    2  C2  UNL     1       1.778  39.778  -9.965  1.00  0.00     0.070 C 
HETATM    3  C3  UNL     1       0.729  40.865  -9.695  1.00  0.00     0.172 C 
HETATM    4  F1  UNL     1       1.214  41.846  -8.880  1.00  0.00    -0.249 F 
HETATM    5  C4  UNL     1       0.532  41.357 -11.127  1.00  0.00     0.046 C 
HETATM    6  C5  UNL     1       0.550  40.071 -11.953  1.00  0.00     0.047 C 
ENDROOT
BRANCH   1   7
HETATM    7  N1  UNL     1       1.822  37.987 -11.651  1.00  0.00    -0.074 N 
ATOM      8  H13 UNL     1       2.718  38.365 -11.961  1.00  0.00     0.274 HD
ATOM      9  H12 UNL     1       2.155  37.314 -10.960  1.00  0.00     0.274 HD
ATOM     10  H11 UNL     1       1.343  37.514 -12.418  1.00  0.00     0.274 HD
ENDBRANCH   1   7
BRANCH   6  11
HETATM   11  C6  UNL     1       1.501  40.324 -13.106  1.00  0.00     0.229 C 
HETATM   12  F2  UNL     1       2.196  41.483 -12.803  1.00  0.00    -0.255 F 
ENDBRANCH   6  11
TORSDOF 2
ENDMDL
MODEL 5
REMARK VINA RESULT: -5.291672855      1.977      2.483
REMARK  2 active torsions:
REMARK  status: ('A' for Active; 'I' for Inactive)
REMARK    1  A    between atoms: N1_1  and  C1_5 
REMARK    2  A    between atoms: C5_10  and  C6_11 
ROOT
HETATM    1  C1  UNL     1      -0.030  40.427 -11.769  1.00  0.00     0.192 C 
HETATM    2  C2  UNL     1       0.891  39.516 -12.567  1.00  0.00     0.070 C 
HETATM    3  C3  UNL     1       1.094  38.418 -11.514  1.00  0.00     0.172 C 
HETATM    4  F1  UNL     1       2.051  37.522 -11.893  1.00  0.00    -0.249 F 
HETATM    5  C4  UNL     1       1.557  39.294 -10.353  1.00  0.00     0.046 C 
HETATM    6  C5  UNL     1       0.659  40.526 -10.453  1.00  0.00     0.047 C 
ENDROOT
BRANCH   1   7
HETATM    7  N1  UNL     1      -0.278  41.676 -12.417  1.00  0.00    -0.074 N 
ATOM      8  H13 UNL     1      -1.248  41.741 -12.723  1.00  0.00     0.274 HD
ATOM      9  H12 UNL     1      -0.262  42.443 -11.745  1.00  0.00     0.274 HD
ATOM     10  H11 UNL     1       0.361  41.857 -13.191  1.00  0.00     0.274 HD
ENDBRANCH   1   7
BRANCH   6  11
HETATM   11  C6  UNL     1       1.578  41.728 -10.359  1.00  0.00     0.229 C 
HETATM   12  F2  UNL     1       2.758  41.378 -10.996  1.00  0.00    -0.255 F 
ENDBRANCH   6  11
TORSDOF 2
ENDMDL
