MODEL 1
REMARK VINA RESULT: -6.227363182      0.000      0.000
REMARK  9 active torsions:
REMARK  status: ('A' for Active; 'I' for Inactive)
REMARK    1  A    between atoms: N1_2  and  C2_4 
REMARK    2  A    between atoms: C4_8  and  O1_9 
REMARK    3  A    between atoms: C6_13  and  C7_14 
REMARK    4  A    between atoms: C9_18  and  O3_19 
REMARK    5  A    between atoms: C10_21  and  N5_22 
REMARK    6  A    between atoms: N5_22  and  N6_23 
REMARK    7  A    between atoms: N5_22  and  C11_26 
REMARK    8  A    between atoms: C11_26  and  C12_27 
REMARK       I    between atoms: C12_27  and  N7_29 
REMARK    9  A    between atoms: N7_29  and  N8_31 
ROOT
HETATM    1  C2  UNL     1       8.977 -28.227 -24.909  1.00  0.00     0.133 A 
HETATM    2  N2  UNL     1       9.029 -29.456 -25.428  1.00  0.00    -0.336 N 
ATOM      3  H2  UNL     1       9.944 -29.871 -25.602  1.00  0.00     0.168 HD
HETATM    4  C3  UNL     1       7.944 -30.167 -25.730  1.00  0.00     0.101 A 
HETATM    5  C4  UNL     1       7.766 -31.435 -26.265  1.00  0.00     0.171 A 
HETATM    6  N3  UNL     1       6.456 -31.682 -26.371  1.00  0.00    -0.325 N 
HETATM    7  C5  UNL     1       5.886 -32.915 -26.890  1.00  0.00     0.159 C 
HETATM    8  C6  UNL     1       5.784 -30.586 -25.907  1.00  0.00     0.117 A 
HETATM    9  C8  UNL     1       6.691 -29.614 -25.496  1.00  0.00     0.063 A 
HETATM   10  C9  UNL     1       6.631 -28.339 -24.955  1.00  0.00     0.113 A 
HETATM   11  C10 UNL     1       7.757 -27.597 -24.644  1.00  0.00     0.133 A 
ENDROOT
BRANCH  11  12
HETATM   12  N5  UNL     1       7.769 -26.319 -24.050  1.00  0.00    -0.262 N 
BRANCH  12  13
HETATM   13  N6  UNL     1       7.921 -25.271 -25.022  1.00  0.00    -0.338 N 
ATOM     14  H62 UNL     1       7.487 -25.400 -25.936  1.00  0.00     0.177 HD
ATOM     15  H61 UNL     1       8.472 -24.490 -24.664  1.00  0.00     0.177 HD
ENDBRANCH  12  13
BRANCH  12  16
HETATM   16  C11 UNL     1       7.654 -25.954 -22.707  1.00  0.00     0.192 C 
BRANCH  16  17
HETATM   17  C12 UNL     1       7.137 -24.664 -22.282  1.00  0.00     0.276 C 
HETATM   18  O4  UNL     1       7.643 -23.530 -22.395  1.00  0.00    -0.265 OA
HETATM   19  N7  UNL     1       5.864 -24.675 -21.640  1.00  0.00    -0.272 N 
ATOM     20  H7  UNL     1       5.380 -25.563 -21.508  1.00  0.00     0.189 HD
BRANCH  19  21
HETATM   21  N8  UNL     1       5.275 -23.517 -21.195  1.00  0.00    -0.342 N 
ATOM     22  H82 UNL     1       5.423 -23.242 -20.224  1.00  0.00     0.176 HD
ATOM     23  H81 UNL     1       4.703 -22.939 -21.811  1.00  0.00     0.176 HD
ENDBRANCH  19  21
ENDBRANCH  16  17
ENDBRANCH  12  16
ENDBRANCH  11  12
BRANCH   1  24
HETATM   24  N1  UNL     1      10.048 -27.590 -24.640  1.00  0.00    -0.379 N 
HETATM   25  C1  UNL     1      11.296 -28.184 -24.276  1.00  0.00     0.147 C 
ATOM     26  H1  UNL     1      10.010 -26.572 -24.688  1.00  0.00     0.160 HD
ENDBRANCH   1  24
BRANCH  10  27
HETATM   27  O3  UNL     1       5.385 -27.790 -24.713  1.00  0.00    -0.357 OA
ATOM     28  H3  UNL     1       5.333 -27.028 -24.148  1.00  0.00     0.217 HD
ENDBRANCH  10  27
BRANCH   8  29
HETATM   29  C7  UNL     1       4.344 -30.471 -25.861  1.00  0.00     0.282 C 
HETATM   30  N4  UNL     1       3.638 -31.351 -24.942  1.00  0.00    -0.056 NA
HETATM   31  O2  UNL     1       3.612 -29.710 -26.509  1.00  0.00    -0.269 OA
ENDBRANCH   8  29
BRANCH   5  32
HETATM   32  O1  UNL     1       8.783 -32.281 -26.624  1.00  0.00    -0.344 OA
ATOM     33  H1  UNL     1       9.231 -32.265 -27.462  1.00  0.00     0.219 HD
ENDBRANCH   5  32
TORSDOF 9
ENDMDL
MODEL 2
REMARK VINA RESULT: -6.197560559      1.265      1.553
REMARK  9 active torsions:
REMARK  status: ('A' for Active; 'I' for Inactive)
REMARK    1  A    between atoms: N1_2  and  C2_4 
REMARK    2  A    between atoms: C4_8  and  O1_9 
REMARK    3  A    between atoms: C6_13  and  C7_14 
REMARK    4  A    between atoms: C9_18  and  O3_19 
REMARK    5  A    between atoms: C10_21  and  N5_22 
REMARK    6  A    between atoms: N5_22  and  N6_23 
REMARK    7  A    between atoms: N5_22  and  C11_26 
REMARK    8  A    between atoms: C11_26  and  C12_27 
REMARK       I    between atoms: C12_27  and  N7_29 
REMARK    9  A    between atoms: N7_29  and  N8_31 
ROOT
HETATM    1  C2  UNL     1       8.875 -28.065 -24.969  1.00  0.00     0.133 A 
HETATM    2  N2  UNL     1       8.982 -29.301 -25.460  1.00  0.00    -0.336 N 
ATOM      3  H2  UNL     1       9.915 -29.676 -25.630  1.00  0.00     0.168 HD
HETATM    4  C3  UNL     1       7.931 -30.071 -25.738  1.00  0.00     0.101 A 
HETATM    5  C4  UNL     1       7.811 -31.357 -26.243  1.00  0.00     0.171 A 
HETATM    6  N3  UNL     1       6.513 -31.670 -26.334  1.00  0.00    -0.325 N 
HETATM    7  C5  UNL     1       6.000 -32.939 -26.820  1.00  0.00     0.159 C 
HETATM    8  C6  UNL     1       5.793 -30.596 -25.890  1.00  0.00     0.117 A 
HETATM    9  C8  UNL     1       6.654 -29.572 -25.508  1.00  0.00     0.063 A 
HETATM   10  C9  UNL     1       6.536 -28.290 -24.997  1.00  0.00     0.113 A 
HETATM   11  C10 UNL     1       7.628 -27.488 -24.710  1.00  0.00     0.133 A 
ENDROOT
BRANCH  11  12
HETATM   12  N5  UNL     1       7.582 -26.196 -24.147  1.00  0.00    -0.262 N 
BRANCH  12  13
HETATM   13  N6  UNL     1       7.149 -26.218 -22.776  1.00  0.00    -0.338 N 
ATOM     14  H62 UNL     1       6.952 -27.124 -22.351  1.00  0.00     0.177 HD
ATOM     15  H61 UNL     1       7.088 -25.281 -22.377  1.00  0.00     0.177 HD
ENDBRANCH  12  13
BRANCH  12  16
HETATM   16  C11 UNL     1       7.888 -24.959 -24.717  1.00  0.00     0.192 C 
BRANCH  16  17
HETATM   17  C12 UNL     1       7.816 -23.711 -23.977  1.00  0.00     0.276 C 
HETATM   18  O4  UNL     1       7.641 -23.521 -22.756  1.00  0.00    -0.265 OA
HETATM   19  N7  UNL     1       7.965 -22.515 -24.738  1.00  0.00    -0.272 N 
ATOM     20  H7  UNL     1       8.112 -22.580 -25.745  1.00  0.00     0.189 HD
BRANCH  19  21
HETATM   21  N8  UNL     1       7.913 -21.276 -24.146  1.00  0.00    -0.342 N 
ATOM     22  H82 UNL     1       7.629 -21.220 -23.168  1.00  0.00     0.176 HD
ATOM     23  H81 UNL     1       8.150 -20.429 -24.662  1.00  0.00     0.176 HD
ENDBRANCH  19  21
ENDBRANCH  16  17
ENDBRANCH  12  16
ENDBRANCH  11  12
BRANCH   1  24
HETATM   24  N1  UNL     1       9.915 -27.371 -24.722  1.00  0.00    -0.379 N 
HETATM   25  C1  UNL     1      10.534 -27.234 -23.441  1.00  0.00     0.147 C 
ATOM     26  H1  UNL     1      10.341 -26.873 -25.503  1.00  0.00     0.160 HD
ENDBRANCH   1  24
BRANCH  10  27
HETATM   27  O3  UNL     1       5.267 -27.795 -24.759  1.00  0.00    -0.357 OA
ATOM     28  H3  UNL     1       4.770 -27.462 -25.497  1.00  0.00     0.217 HD
ENDBRANCH  10  27
BRANCH   8  29
HETATM   29  C7  UNL     1       4.349 -30.548 -25.838  1.00  0.00     0.282 C 
HETATM   30  N4  UNL     1       3.689 -31.476 -24.931  1.00  0.00    -0.056 NA
HETATM   31  O2  UNL     1       3.579 -29.812 -26.470  1.00  0.00    -0.269 OA
ENDBRANCH   8  29
BRANCH   5  32
HETATM   32  O1  UNL     1       8.865 -32.162 -26.589  1.00  0.00    -0.344 OA
ATOM     33  H1  UNL     1       8.800 -32.931 -27.144  1.00  0.00     0.219 HD
ENDBRANCH   5  32
TORSDOF 9
ENDMDL
MODEL 3
REMARK VINA RESULT: -5.537922269      1.356      1.841
REMARK  9 active torsions:
REMARK  status: ('A' for Active; 'I' for Inactive)
REMARK    1  A    between atoms: N1_2  and  C2_4 
REMARK    2  A    between atoms: C4_8  and  O1_9 
REMARK    3  A    between atoms: C6_13  and  C7_14 
REMARK    4  A    between atoms: C9_18  and  O3_19 
REMARK    5  A    between atoms: C10_21  and  N5_22 
REMARK    6  A    between atoms: N5_22  and  N6_23 
REMARK    7  A    between atoms: N5_22  and  C11_26 
REMARK    8  A    between atoms: C11_26  and  C12_27 
REMARK       I    between atoms: C12_27  and  N7_29 
REMARK    9  A    between atoms: N7_29  and  N8_31 
ROOT
HETATM    1  C2  UNL     1       8.868 -27.754 -23.625  1.00  0.00     0.133 A 
HETATM    2  N2  UNL     1       9.133 -28.938 -24.181  1.00  0.00    -0.336 N 
ATOM      3  H2  UNL     1      10.086 -29.295 -24.129  1.00  0.00     0.168 HD
HETATM    4  C3  UNL     1       8.213 -29.676 -24.800  1.00  0.00     0.101 A 
HETATM    5  C4  UNL     1       8.264 -30.908 -25.435  1.00  0.00     0.171 A 
HETATM    6  N3  UNL     1       7.045 -31.209 -25.899  1.00  0.00    -0.325 N 
HETATM    7  C5  UNL     1       6.712 -32.426 -26.620  1.00  0.00     0.159 C 
HETATM    8  C6  UNL     1       6.207 -30.181 -25.568  1.00  0.00     0.117 A 
HETATM    9  C8  UNL     1       6.909 -29.200 -24.876  1.00  0.00     0.063 A 
HETATM   10  C9  UNL     1       6.628 -27.972 -24.299  1.00  0.00     0.113 A 
HETATM   11  C10 UNL     1       7.584 -27.202 -23.657  1.00  0.00     0.133 A 
ENDROOT
BRANCH  11  12
HETATM   12  N5  UNL     1       7.357 -25.971 -23.010  1.00  0.00    -0.262 N 
BRANCH  12  13
HETATM   13  N6  UNL     1       6.158 -25.987 -22.217  1.00  0.00    -0.338 N 
ATOM     14  H62 UNL     1       6.229 -26.302 -21.250  1.00  0.00     0.177 HD
ATOM     15  H61 UNL     1       5.344 -25.668 -22.744  1.00  0.00     0.177 HD
ENDBRANCH  12  13
BRANCH  12  16
HETATM   16  C11 UNL     1       8.110 -24.794 -23.035  1.00  0.00     0.192 C 
BRANCH  16  17
HETATM   17  C12 UNL     1       7.588 -23.537 -23.543  1.00  0.00     0.276 C 
HETATM   18  O4  UNL     1       6.918 -22.661 -22.960  1.00  0.00    -0.265 OA
HETATM   19  N7  UNL     1       7.874 -23.240 -24.908  1.00  0.00    -0.272 N 
ATOM     20  H7  UNL     1       8.418 -23.903 -25.459  1.00  0.00     0.189 HD
BRANCH  19  21
HETATM   21  N8  UNL     1       7.432 -22.081 -25.498  1.00  0.00    -0.342 N 
ATOM     22  H82 UNL     1       6.923 -21.409 -24.923  1.00  0.00     0.176 HD
ATOM     23  H81 UNL     1       7.603 -21.887 -26.484  1.00  0.00     0.176 HD
ENDBRANCH  19  21
ENDBRANCH  16  17
ENDBRANCH  12  16
ENDBRANCH  11  12
BRANCH   1  24
HETATM   24  N1  UNL     1       9.788 -27.088 -23.045  1.00  0.00    -0.379 N 
HETATM   25  C1  UNL     1      10.895 -26.463 -23.697  1.00  0.00     0.147 C 
ATOM     26  H1  UNL     1       9.728 -26.994 -22.031  1.00  0.00     0.160 HD
ENDBRANCH   1  24
BRANCH  10  27
HETATM   27  O3  UNL     1       5.330 -27.501 -24.365  1.00  0.00    -0.357 OA
ATOM     28  H3  UNL     1       5.112 -26.879 -25.050  1.00  0.00     0.217 HD
ENDBRANCH  10  27
BRANCH   8  29
HETATM   29  C7  UNL     1       4.801 -30.137 -25.900  1.00  0.00     0.282 C 
HETATM   30  N4  UNL     1       3.918 -31.031 -25.165  1.00  0.00    -0.056 NA
HETATM   31  O2  UNL     1       4.230 -29.429 -26.741  1.00  0.00    -0.269 OA
ENDBRANCH   8  29
BRANCH   5  32
HETATM   32  O1  UNL     1       9.391 -31.678 -25.559  1.00  0.00    -0.344 OA
ATOM     33  H1  UNL     1       9.877 -31.801 -26.366  1.00  0.00     0.219 HD
ENDBRANCH   5  32
TORSDOF 9
ENDMDL
MODEL 4
REMARK VINA RESULT: -5.420768047      2.056      6.534
REMARK  9 active torsions:
REMARK  status: ('A' for Active; 'I' for Inactive)
REMARK    1  A    between atoms: N1_2  and  C2_4 
REMARK    2  A    between atoms: C4_8  and  O1_9 
REMARK    3  A    between atoms: C6_13  and  C7_14 
REMARK    4  A    between atoms: C9_18  and  O3_19 
REMARK    5  A    between atoms: C10_21  and  N5_22 
REMARK    6  A    between atoms: N5_22  and  N6_23 
REMARK    7  A    between atoms: N5_22  and  C11_26 
REMARK    8  A    between atoms: C11_26  and  C12_27 
REMARK       I    between atoms: C12_27  and  N7_29 
REMARK    9  A    between atoms: N7_29  and  N8_31 
ROOT
HETATM    1  C2  UNL     1       6.496 -29.610 -25.836  1.00  0.00     0.133 A 
HETATM    2  N2  UNL     1       5.814 -28.823 -25.001  1.00  0.00    -0.336 N 
ATOM      3  H2  UNL     1       4.814 -28.988 -24.888  1.00  0.00     0.168 HD
HETATM    4  C3  UNL     1       6.375 -27.833 -24.308  1.00  0.00     0.101 A 
HETATM    5  C4  UNL     1       5.868 -26.910 -23.404  1.00  0.00     0.171 A 
HETATM    6  N3  UNL     1       6.863 -26.119 -22.987  1.00  0.00    -0.325 N 
HETATM    7  C5  UNL     1       6.712 -25.033 -22.033  1.00  0.00     0.159 C 
HETATM    8  C6  UNL     1       8.009 -26.522 -23.614  1.00  0.00     0.117 A 
HETATM    9  C8  UNL     1       7.737 -27.599 -24.453  1.00  0.00     0.063 A 
HETATM   10  C9  UNL     1       8.451 -28.413 -25.317  1.00  0.00     0.113 A 
HETATM   11  C10 UNL     1       7.869 -29.441 -26.040  1.00  0.00     0.133 A 
ENDROOT
BRANCH  11  12
HETATM   12  N5  UNL     1       8.543 -30.335 -26.897  1.00  0.00    -0.262 N 
BRANCH  12  13
HETATM   13  N6  UNL     1       8.718 -29.793 -28.217  1.00  0.00    -0.338 N 
ATOM     14  H62 UNL     1       7.994 -29.980 -28.911  1.00  0.00     0.177 HD
ATOM     15  H61 UNL     1       9.586 -29.263 -28.303  1.00  0.00     0.177 HD
ENDBRANCH  12  13
BRANCH  12  16
HETATM   16  C11 UNL     1       9.041 -31.615 -26.643  1.00  0.00     0.192 C 
BRANCH  16  17
HETATM   17  C12 UNL     1       9.943 -31.905 -25.542  1.00  0.00     0.276 C 
HETATM   18  O4  UNL     1      10.914 -32.687 -25.496  1.00  0.00    -0.265 OA
HETATM   19  N7  UNL     1       9.700 -31.204 -24.325  1.00  0.00    -0.272 N 
ATOM     20  H7  UNL     1       8.925 -30.543 -24.277  1.00  0.00     0.189 HD
BRANCH  19  21
HETATM   21  N8  UNL     1      10.487 -31.397 -23.216  1.00  0.00    -0.342 N 
ATOM     22  H82 UNL     1      11.030 -32.258 -23.153  1.00  0.00     0.176 HD
ATOM     23  H81 UNL     1      10.535 -30.704 -22.469  1.00  0.00     0.176 HD
ENDBRANCH  19  21
ENDBRANCH  16  17
ENDBRANCH  12  16
ENDBRANCH  11  12
BRANCH   1  24
HETATM   24  N1  UNL     1       5.909 -30.543 -26.475  1.00  0.00    -0.379 N 
HETATM   25  C1  UNL     1       5.178 -31.619 -25.884  1.00  0.00     0.147 C 
ATOM     26  H1  UNL     1       5.966 -30.519 -27.493  1.00  0.00     0.160 HD
ENDBRANCH   1  24
BRANCH  10  27
HETATM   27  O3  UNL     1       9.808 -28.188 -25.455  1.00  0.00    -0.357 OA
ATOM     28  H3  UNL     1      10.097 -27.589 -26.133  1.00  0.00     0.217 HD
ENDBRANCH  10  27
BRANCH   8  29
HETATM   29  C7  UNL     1       9.303 -25.907 -23.424  1.00  0.00     0.282 C 
HETATM   30  N4  UNL     1      10.401 -26.779 -23.035  1.00  0.00    -0.056 NA
HETATM   31  O2  UNL     1       9.614 -24.714 -23.549  1.00  0.00    -0.269 OA
ENDBRANCH   8  29
BRANCH   5  32
HETATM   32  O1  UNL     1       4.556 -26.837 -23.014  1.00  0.00    -0.344 OA
ATOM     33  H1  UNL     1       4.257 -26.861 -22.113  1.00  0.00     0.219 HD
ENDBRANCH   5  32
TORSDOF 9
ENDMDL
MODEL 5
REMARK VINA RESULT: -5.247385308      8.303      8.881
REMARK  9 active torsions:
REMARK  status: ('A' for Active; 'I' for Inactive)
REMARK    1  A    between atoms: N1_2  and  C2_4 
REMARK    2  A    between atoms: C4_8  and  O1_9 
REMARK    3  A    between atoms: C6_13  and  C7_14 
REMARK    4  A    between atoms: C9_18  and  O3_19 
REMARK    5  A    between atoms: C10_21  and  N5_22 
REMARK    6  A    between atoms: N5_22  and  N6_23 
REMARK    7  A    between atoms: N5_22  and  C11_26 
REMARK    8  A    between atoms: C11_26  and  C12_27 
REMARK       I    between atoms: C12_27  and  N7_29 
REMARK    9  A    between atoms: N7_29  and  N8_31 
ROOT
HETATM    1  C2  UNL     1       7.025 -32.064 -16.923  1.00  0.00     0.133 A 
HETATM    2  N2  UNL     1       7.880 -33.089 -16.949  1.00  0.00    -0.336 N 
ATOM      3  H2  UNL     1       8.732 -33.023 -16.392  1.00  0.00     0.168 HD
HETATM    4  C3  UNL     1       7.676 -34.193 -17.666  1.00  0.00     0.101 A 
HETATM    5  C4  UNL     1       8.413 -35.355 -17.838  1.00  0.00     0.171 A 
HETATM    6  N3  UNL     1       7.757 -36.167 -18.675  1.00  0.00    -0.325 N 
HETATM    7  C5  UNL     1       8.224 -37.479 -19.090  1.00  0.00     0.159 C 
HETATM    8  C6  UNL     1       6.601 -35.539 -19.044  1.00  0.00     0.117 A 
HETATM    9  C8  UNL     1       6.518 -34.294 -18.428  1.00  0.00     0.063 A 
HETATM   10  C9  UNL     1       5.626 -33.235 -18.404  1.00  0.00     0.113 A 
HETATM   11  C10 UNL     1       5.838 -32.086 -17.661  1.00  0.00     0.133 A 
ENDROOT
BRANCH  11  12
HETATM   12  N5  UNL     1       4.952 -30.994 -17.554  1.00  0.00    -0.262 N 
BRANCH  12  13
HETATM   13  N6  UNL     1       5.524 -29.780 -18.070  1.00  0.00    -0.338 N 
ATOM     14  H62 UNL     1       6.317 -29.376 -17.572  1.00  0.00     0.177 HD
ATOM     15  H61 UNL     1       5.043 -29.454 -18.908  1.00  0.00     0.177 HD
ENDBRANCH  12  13
BRANCH  12  16
HETATM   16  C11 UNL     1       3.654 -30.940 -17.041  1.00  0.00     0.192 C 
BRANCH  16  17
HETATM   17  C12 UNL     1       2.472 -30.967 -17.884  1.00  0.00     0.276 C 
HETATM   18  O4  UNL     1       1.807 -31.943 -18.289  1.00  0.00    -0.265 OA
HETATM   19  N7  UNL     1       1.983 -29.704 -18.327  1.00  0.00    -0.272 N 
ATOM     20  H7  UNL     1       2.468 -28.854 -18.041  1.00  0.00     0.189 HD
BRANCH  19  21
HETATM   21  N8  UNL     1       0.872 -29.605 -19.129  1.00  0.00    -0.342 N 
ATOM     22  H82 UNL     1       0.789 -28.794 -19.742  1.00  0.00     0.176 HD
ATOM     23  H81 UNL     1       0.144 -30.319 -19.121  1.00  0.00     0.176 HD
ENDBRANCH  19  21
ENDBRANCH  16  17
ENDBRANCH  12  16
ENDBRANCH  11  12
BRANCH   1  24
HETATM   24  N1  UNL     1       7.270 -31.030 -16.219  1.00  0.00    -0.379 N 
HETATM   25  C1  UNL     1       7.273 -30.982 -14.791  1.00  0.00     0.147 C 
ATOM     26  H1  UNL     1       7.482 -30.166 -16.717  1.00  0.00     0.160 HD
ENDBRANCH   1  24
BRANCH  10  27
HETATM   27  O3  UNL     1       4.469 -33.338 -19.154  1.00  0.00    -0.357 OA
ATOM     28  H3  UNL     1       4.344 -34.118 -19.681  1.00  0.00     0.217 HD
ENDBRANCH  10  27
BRANCH   8  29
HETATM   29  C7  UNL     1       5.621 -36.100 -19.947  1.00  0.00     0.282 C 
HETATM   30  N4  UNL     1       4.367 -36.554 -19.365  1.00  0.00    -0.056 NA
HETATM   31  O2  UNL     1       5.702 -36.251 -21.174  1.00  0.00    -0.269 OA
ENDBRANCH   8  29
BRANCH   5  32
HETATM   32  O1  UNL     1       9.620 -35.611 -17.239  1.00  0.00    -0.344 OA
ATOM     33  H1  UNL     1      10.314 -34.973 -17.124  1.00  0.00     0.219 HD
ENDBRANCH   5  32
TORSDOF 9
ENDMDL
