MODEL 1
REMARK VINA RESULT: -6.933429149      0.000      0.000
REMARK  16 active torsions:
REMARK  status: ('A' for Active; 'I' for Inactive)
REMARK    1  A    between atoms: O1_2  and  C2_3 
REMARK       I    between atoms: C2_3  and  N1_5 
REMARK    2  A    between atoms: N1_5  and  C4_7 
REMARK    3  A    between atoms: C4_7  and  C5_8 
REMARK    4  A    between atoms: C5_8  and  O3_9 
REMARK    5  A    between atoms: O3_9  and  C6_10 
REMARK    6  A    between atoms: C10_14  and  C11_15 
REMARK    7  A    between atoms: C11_15  and  C12_16 
REMARK    8  A    between atoms: C12_16  and  N2_17 
REMARK    9  A    between atoms: C12_16  and  C18_26 
REMARK       I    between atoms: N2_17  and  C13_19 
REMARK   10  A    between atoms: C13_19  and  O5_21 
REMARK   11  A    between atoms: O5_21  and  C14_22 
REMARK   12  A    between atoms: C18_26  and  N3_27 
REMARK   13  A    between atoms: C18_26  and  C25_43 
REMARK   14  A    between atoms: N3_27  and  C19_29 
REMARK   15  A    between atoms: C21_35  and  N6_36 
REMARK   16  A    between atoms: N6_36  and  C22_38 
ROOT
HETATM    1  C12 UNL     1      46.429   9.231   0.520  1.00  0.00     0.061 C 
ENDROOT
BRANCH   1   2
HETATM    2  C11 UNL     1      47.107   8.104   1.192  1.00  0.00     0.044 C 
BRANCH   2   3
HETATM    3  C10 UNL     1      48.509   7.814   1.202  1.00  0.00    -0.009 A 
HETATM    4  C9  UNL     1      49.085   7.167   0.099  1.00  0.00     0.013 A 
HETATM    5  C8  UNL     1      50.426   6.938   0.114  1.00  0.00     0.004 A 
HETATM    6  C7  UNL     1      51.241   7.317   1.176  1.00  0.00     0.038 A 
HETATM    7  C6  UNL     1      50.721   7.949   2.274  1.00  0.00     0.091 A 
HETATM    8  C29 UNL     1      49.326   8.172   2.231  1.00  0.00     0.077 A 
HETATM    9 CL1  UNL     1      48.711   8.851   3.754  1.00  0.00    -0.080 Cl
BRANCH   7  10
HETATM   10  O3  UNL     1      51.438   8.356   3.368  1.00  0.00    -0.348 OA
BRANCH  10  11
HETATM   11  C5  UNL     1      52.058   7.537   4.280  1.00  0.00     0.195 C 
BRANCH  11  12
HETATM   12  C4  UNL     1      51.357   6.257   4.634  1.00  0.00     0.154 C 
BRANCH  12  13
HETATM   13  N1  UNL     1      52.282   5.135   4.675  1.00  0.00    -0.330 N 
HETATM   14  C2  UNL     1      52.457   4.426   5.893  1.00  0.00     0.362 C 
HETATM   15  O2  UNL     1      53.266   3.454   5.949  1.00  0.00    -0.238 OA
HETATM   16  C3  UNL     1      53.026   4.738   3.502  1.00  0.00     0.155 C 
BRANCH  14  17
HETATM   17  O1  UNL     1      51.771   4.749   7.052  1.00  0.00    -0.309 OA
HETATM   18  C1  UNL     1      51.447   3.788   8.017  1.00  0.00     0.215 C 
ENDBRANCH  14  17
ENDBRANCH  12  13
ENDBRANCH  11  12
ENDBRANCH  10  11
ENDBRANCH   7  10
ENDBRANCH   2   3
ENDBRANCH   1   2
BRANCH   1  19
HETATM   19  N2  UNL     1      45.231   8.855  -0.206  1.00  0.00    -0.301 N 
HETATM   20  C13 UNL     1      44.256   9.573  -0.852  1.00  0.00     0.366 C 
HETATM   21  O4  UNL     1      44.245  10.819  -0.928  1.00  0.00    -0.238 OA
ATOM     22  H2  UNL     1      45.082   7.846  -0.244  1.00  0.00     0.171 HD
BRANCH  20  23
HETATM   23  O5  UNL     1      43.172   8.946  -1.490  1.00  0.00    -0.294 OA
BRANCH  23  24
HETATM   24  C14 UNL     1      43.209   8.700  -2.882  1.00  0.00     0.061 C 
HETATM   25  C15 UNL     1      44.591   8.901  -3.472  1.00  0.00     0.046 C 
HETATM   26  C16 UNL     1      42.654   7.362  -3.267  1.00  0.00     0.046 C 
HETATM   27  C17 UNL     1      42.325   9.776  -3.527  1.00  0.00     0.046 C 
ENDBRANCH  23  24
ENDBRANCH  20  23
ENDBRANCH   1  19
BRANCH   1  28
HETATM   28  C18 UNL     1      47.132  10.422   0.067  1.00  0.00     0.061 C 
BRANCH  28  29
HETATM   29  N3  UNL     1      47.221  11.343   1.190  1.00  0.00    -0.192 N 
ATOM     30  H3  UNL     1      47.972  11.138   1.850  1.00  0.00     0.184 HD
BRANCH  29  31
HETATM   31  C19 UNL     1      46.533  12.336   1.478  1.00  0.00     0.698 A 
HETATM   32  N4  UNL     1      45.307  12.555   0.994  1.00  0.00    -0.187 N 
HETATM   33  C20 UNL     1      44.610  13.657   1.341  1.00  0.00     0.215 A 
ATOM     34  H4  UNL     1      44.891  11.879   0.352  1.00  0.00     0.185 HD
HETATM   35  N5  UNL     1      45.146  14.560   2.188  1.00  0.00    -0.187 N 
HETATM   36  C21 UNL     1      46.397  14.371   2.702  1.00  0.00     0.693 A 
ATOM     37  H5  UNL     1      44.613  15.390   2.446  1.00  0.00     0.185 HD
HETATM   38  N7  UNL     1      47.041  13.263   2.325  1.00  0.00    -0.022 N 
ATOM     39  H7  UNL     1      47.975  13.103   2.700  1.00  0.00     0.203 HD
BRANCH  36  40
HETATM   40  N6  UNL     1      46.852  15.259   3.499  1.00  0.00    -0.222 N 
ATOM     41  H6  UNL     1      46.816  15.016   4.489  1.00  0.00     0.178 HD
BRANCH  40  42
HETATM   42  C22 UNL     1      47.401  16.535   3.208  1.00  0.00     0.091 C 
HETATM   43  C23 UNL     1      46.301  17.565   3.065  1.00  0.00     0.032 C 
HETATM   44  C24 UNL     1      48.475  16.987   4.148  1.00  0.00     0.032 C 
ENDBRANCH  40  42
ENDBRANCH  36  40
ENDBRANCH  29  31
ENDBRANCH  28  29
BRANCH  28  45
HETATM   45  C25 UNL     1      48.074  10.706  -0.964  1.00  0.00    -0.006 C 
HETATM   46  C26 UNL     1      47.490  11.974  -1.710  1.00  0.00     0.021 C 
HETATM   47  C27 UNL     1      49.475  11.065  -0.849  1.00  0.00     0.021 C 
HETATM   48  C28 UNL     1      47.999   9.689  -2.155  1.00  0.00     0.021 C 
ENDBRANCH  28  45
ENDBRANCH   1  28
TORSDOF 16
ENDMDL
MODEL 2
REMARK VINA RESULT: -6.786493340      1.483      2.088
REMARK  16 active torsions:
REMARK  status: ('A' for Active; 'I' for Inactive)
REMARK    1  A    between atoms: O1_2  and  C2_3 
REMARK       I    between atoms: C2_3  and  N1_5 
REMARK    2  A    between atoms: N1_5  and  C4_7 
REMARK    3  A    between atoms: C4_7  and  C5_8 
REMARK    4  A    between atoms: C5_8  and  O3_9 
REMARK    5  A    between atoms: O3_9  and  C6_10 
REMARK    6  A    between atoms: C10_14  and  C11_15 
REMARK    7  A    between atoms: C11_15  and  C12_16 
REMARK    8  A    between atoms: C12_16  and  N2_17 
REMARK    9  A    between atoms: C12_16  and  C18_26 
REMARK       I    between atoms: N2_17  and  C13_19 
REMARK   10  A    between atoms: C13_19  and  O5_21 
REMARK   11  A    between atoms: O5_21  and  C14_22 
REMARK   12  A    between atoms: C18_26  and  N3_27 
REMARK   13  A    between atoms: C18_26  and  C25_43 
REMARK   14  A    between atoms: N3_27  and  C19_29 
REMARK   15  A    between atoms: C21_35  and  N6_36 
REMARK   16  A    between atoms: N6_36  and  C22_38 
ROOT
HETATM    1  C12 UNL     1      46.941   9.925   0.784  1.00  0.00     0.061 C 
ENDROOT
BRANCH   1   2
HETATM    2  C11 UNL     1      47.766   9.059   1.650  1.00  0.00     0.044 C 
BRANCH   2   3
HETATM    3  C10 UNL     1      48.104   7.684   1.435  1.00  0.00    -0.009 A 
HETATM    4  C9  UNL     1      48.330   7.228   0.128  1.00  0.00     0.013 A 
HETATM    5  C8  UNL     1      48.689   5.927  -0.048  1.00  0.00     0.004 A 
HETATM    6  C7  UNL     1      48.837   5.039   1.013  1.00  0.00     0.038 A 
HETATM    7  C6  UNL     1      48.624   5.441   2.305  1.00  0.00     0.091 A 
HETATM    8  C29 UNL     1      48.251   6.795   2.456  1.00  0.00     0.077 A 
HETATM    9 CL1  UNL     1      47.843   7.192   4.140  1.00  0.00    -0.080 Cl
BRANCH   7  10
HETATM   10  O3  UNL     1      48.739   4.643   3.412  1.00  0.00    -0.348 OA
BRANCH  10  11
HETATM   11  C5  UNL     1      49.427   3.456   3.487  1.00  0.00     0.195 C 
BRANCH  11  12
HETATM   12  C4  UNL     1      50.909   3.540   3.713  1.00  0.00     0.154 C 
BRANCH  12  13
HETATM   13  N1  UNL     1      51.228   3.642   5.129  1.00  0.00    -0.330 N 
HETATM   14  C2  UNL     1      51.355   4.928   5.719  1.00  0.00     0.362 C 
HETATM   15  O2  UNL     1      51.643   5.036   6.947  1.00  0.00    -0.238 OA
HETATM   16  C3  UNL     1      51.421   2.461   5.939  1.00  0.00     0.155 C 
BRANCH  14  17
HETATM   17  O1  UNL     1      51.177   6.100   5.003  1.00  0.00    -0.309 OA
HETATM   18  C1  UNL     1      52.258   6.868   4.553  1.00  0.00     0.215 C 
ENDBRANCH  14  17
ENDBRANCH  12  13
ENDBRANCH  11  12
ENDBRANCH  10  11
ENDBRANCH   7  10
ENDBRANCH   2   3
ENDBRANCH   1   2
BRANCH   1  19
HETATM   19  N2  UNL     1      45.846   9.236   0.127  1.00  0.00    -0.301 N 
HETATM   20  C13 UNL     1      44.635   9.649  -0.369  1.00  0.00     0.366 C 
HETATM   21  O4  UNL     1      44.233  10.832  -0.328  1.00  0.00    -0.238 OA
ATOM     22  H2  UNL     1      46.011   8.237   0.009  1.00  0.00     0.171 HD
BRANCH  20  23
HETATM   23  O5  UNL     1      43.734   8.754  -0.971  1.00  0.00    -0.294 OA
BRANCH  23  24
HETATM   24  C14 UNL     1      43.547   8.766  -2.372  1.00  0.00     0.061 C 
HETATM   25  C15 UNL     1      42.699   9.934  -2.836  1.00  0.00     0.046 C 
HETATM   26  C16 UNL     1      44.827   8.695  -3.147  1.00  0.00     0.046 C 
HETATM   27  C17 UNL     1      42.731   7.508  -2.702  1.00  0.00     0.046 C 
ENDBRANCH  23  24
ENDBRANCH  20  23
ENDBRANCH   1  19
BRANCH   1  28
HETATM   28  C18 UNL     1      47.459  11.119   0.133  1.00  0.00     0.061 C 
BRANCH  28  29
HETATM   29  N3  UNL     1      47.494  12.187   1.120  1.00  0.00    -0.192 N 
ATOM     30  H3  UNL     1      48.369  12.259   1.638  1.00  0.00     0.184 HD
BRANCH  29  31
HETATM   31  C19 UNL     1      46.632  13.025   1.435  1.00  0.00     0.698 A 
HETATM   32  N4  UNL     1      45.475  13.181   0.784  1.00  0.00    -0.187 N 
HETATM   33  C20 UNL     1      44.581  14.113   1.173  1.00  0.00     0.215 A 
ATOM     34  H4  UNL     1      45.265  12.587  -0.018  1.00  0.00     0.185 HD
HETATM   35  N5  UNL     1      44.844  14.907   2.231  1.00  0.00    -0.187 N 
HETATM   36  C21 UNL     1      46.016  14.777   2.920  1.00  0.00     0.693 A 
ATOM     37  H5  UNL     1      44.162  15.609   2.519  1.00  0.00     0.185 HD
HETATM   38  N7  UNL     1      46.864  13.838   2.493  1.00  0.00    -0.022 N 
ATOM     39  H7  UNL     1      47.744  13.726   2.996  1.00  0.00     0.203 HD
BRANCH  36  40
HETATM   40  N6  UNL     1      46.210  15.556   3.914  1.00  0.00    -0.222 N 
ATOM     41  H6  UNL     1      45.917  15.189   4.820  1.00  0.00     0.178 HD
BRANCH  40  42
HETATM   42  C22 UNL     1      46.775  16.858   3.942  1.00  0.00     0.091 C 
HETATM   43  C23 UNL     1      48.266  16.794   3.690  1.00  0.00     0.032 C 
HETATM   44  C24 UNL     1      46.098  17.856   3.054  1.00  0.00     0.032 C 
ENDBRANCH  40  42
ENDBRANCH  36  40
ENDBRANCH  29  31
ENDBRANCH  28  29
BRANCH  28  45
HETATM   45  C25 UNL     1      48.296  11.371  -0.992  1.00  0.00    -0.006 C 
HETATM   46  C26 UNL     1      47.353  12.072  -2.053  1.00  0.00     0.021 C 
HETATM   47  C27 UNL     1      49.485  12.197  -1.080  1.00  0.00     0.021 C 
HETATM   48  C28 UNL     1      48.627  10.073  -1.808  1.00  0.00     0.021 C 
ENDBRANCH  28  45
ENDBRANCH   1  28
TORSDOF 16
ENDMDL
MODEL 3
REMARK VINA RESULT: -6.744660556      2.923      9.672
REMARK  16 active torsions:
REMARK  status: ('A' for Active; 'I' for Inactive)
REMARK    1  A    between atoms: O1_2  and  C2_3 
REMARK       I    between atoms: C2_3  and  N1_5 
REMARK    2  A    between atoms: N1_5  and  C4_7 
REMARK    3  A    between atoms: C4_7  and  C5_8 
REMARK    4  A    between atoms: C5_8  and  O3_9 
REMARK    5  A    between atoms: O3_9  and  C6_10 
REMARK    6  A    between atoms: C10_14  and  C11_15 
REMARK    7  A    between atoms: C11_15  and  C12_16 
REMARK    8  A    between atoms: C12_16  and  N2_17 
REMARK    9  A    between atoms: C12_16  and  C18_26 
REMARK       I    between atoms: N2_17  and  C13_19 
REMARK   10  A    between atoms: C13_19  and  O5_21 
REMARK   11  A    between atoms: O5_21  and  C14_22 
REMARK   12  A    between atoms: C18_26  and  N3_27 
REMARK   13  A    between atoms: C18_26  and  C25_43 
REMARK   14  A    between atoms: N3_27  and  C19_29 
REMARK   15  A    between atoms: C21_35  and  N6_36 
REMARK   16  A    between atoms: N6_36  and  C22_38 
ROOT
HETATM    1  C12 UNL     1      48.303   7.753   1.199  1.00  0.00     0.061 C 
ENDROOT
BRANCH   1   2
HETATM    2  C11 UNL     1      46.907   8.233   1.204  1.00  0.00     0.044 C 
BRANCH   2   3
HETATM    3  C10 UNL     1      46.370   9.349   0.485  1.00  0.00    -0.009 A 
HETATM    4  C9  UNL     1      45.623   9.120  -0.680  1.00  0.00     0.013 A 
HETATM    5  C8  UNL     1      45.088  10.193  -1.325  1.00  0.00     0.004 A 
HETATM    6  C7  UNL     1      45.255  11.499  -0.875  1.00  0.00     0.038 A 
HETATM    7  C6  UNL     1      45.979  11.769   0.257  1.00  0.00     0.091 A 
HETATM    8  C29 UNL     1      46.522  10.636   0.903  1.00  0.00     0.077 A 
HETATM    9 CL1  UNL     1      47.572  11.084   2.267  1.00  0.00    -0.080 Cl
BRANCH   7  10
HETATM   10  O3  UNL     1      46.203  13.016   0.776  1.00  0.00    -0.348 OA
BRANCH  10  11
HETATM   11  C5  UNL     1      45.495  13.609   1.794  1.00  0.00     0.195 C 
BRANCH  11  12
HETATM   12  C4  UNL     1      46.243  14.569   2.675  1.00  0.00     0.154 C 
BRANCH  12  13
HETATM   13  N1  UNL     1      45.584  15.865   2.730  1.00  0.00    -0.330 N 
HETATM   14  C2  UNL     1      46.357  17.023   3.012  1.00  0.00     0.362 C 
HETATM   15  O2  UNL     1      45.798  18.158   3.075  1.00  0.00    -0.238 OA
HETATM   16  C3  UNL     1      44.162  15.990   2.510  1.00  0.00     0.155 C 
BRANCH  14  17
HETATM   17  O1  UNL     1      47.724  16.976   3.227  1.00  0.00    -0.309 OA
HETATM   18  C1  UNL     1      48.289  17.238   4.481  1.00  0.00     0.215 C 
ENDBRANCH  14  17
ENDBRANCH  12  13
ENDBRANCH  11  12
ENDBRANCH  10  11
ENDBRANCH   7  10
ENDBRANCH   2   3
ENDBRANCH   1   2
BRANCH   1  19
HETATM   19  N2  UNL     1      49.268   8.734   0.738  1.00  0.00    -0.301 N 
HETATM   20  C13 UNL     1      50.612   8.908   0.952  1.00  0.00     0.366 C 
HETATM   21  O4  UNL     1      51.305   8.155   1.668  1.00  0.00    -0.238 OA
ATOM     22  H2  UNL     1      48.861   9.442   0.126  1.00  0.00     0.171 HD
BRANCH  20  23
HETATM   23  O5  UNL     1      51.325   9.971   0.372  1.00  0.00    -0.294 OA
BRANCH  23  24
HETATM   24  C14 UNL     1      51.237  10.214  -1.017  1.00  0.00     0.061 C 
HETATM   25  C15 UNL     1      51.367   8.947  -1.839  1.00  0.00     0.046 C 
HETATM   26  C16 UNL     1      50.013  10.983  -1.413  1.00  0.00     0.046 C 
HETATM   27  C17 UNL     1      52.462  11.066  -1.378  1.00  0.00     0.046 C 
ENDBRANCH  23  24
ENDBRANCH  20  23
ENDBRANCH   1  19
BRANCH   1  28
HETATM   28  C18 UNL     1      48.659   6.350   1.041  1.00  0.00     0.061 C 
BRANCH  28  29
HETATM   29  N3  UNL     1      48.350   5.668   2.288  1.00  0.00    -0.192 N 
ATOM     30  H3  UNL     1      47.375   5.388   2.391  1.00  0.00     0.184 HD
BRANCH  29  31
HETATM   31  C19 UNL     1      49.080   5.370   3.249  1.00  0.00     0.698 A 
HETATM   32  N4  UNL     1      49.894   6.237   3.859  1.00  0.00    -0.187 N 
HETATM   33  C20 UNL     1      50.666   5.852   4.896  1.00  0.00     0.215 A 
ATOM     34  H4  UNL     1      49.932   7.204   3.536  1.00  0.00     0.185 HD
HETATM   35  N5  UNL     1      50.628   4.577   5.335  1.00  0.00    -0.187 N 
HETATM   36  C21 UNL     1      49.809   3.663   4.736  1.00  0.00     0.693 A 
ATOM     37  H5  UNL     1      51.214   4.294   6.119  1.00  0.00     0.185 HD
HETATM   38  N7  UNL     1      49.066   4.099   3.715  1.00  0.00    -0.022 N 
ATOM     39  H7  UNL     1      48.447   3.431   3.256  1.00  0.00     0.203 HD
BRANCH  36  40
HETATM   40  N6  UNL     1      49.814   2.471   5.195  1.00  0.00    -0.222 N 
ATOM     41  H6  UNL     1      49.388   1.769   4.589  1.00  0.00     0.178 HD
BRANCH  40  42
HETATM   42  C22 UNL     1      50.325   1.981   6.424  1.00  0.00     0.091 C 
HETATM   43  C23 UNL     1      49.234   1.292   7.216  1.00  0.00     0.032 C 
HETATM   44  C24 UNL     1      51.551   1.128   6.300  1.00  0.00     0.032 C 
ENDBRANCH  40  42
ENDBRANCH  36  40
ENDBRANCH  29  31
ENDBRANCH  28  29
BRANCH  28  45
HETATM   45  C25 UNL     1      48.786   5.461  -0.065  1.00  0.00    -0.006 C 
HETATM   46  C26 UNL     1      50.345   5.316  -0.293  1.00  0.00     0.021 C 
HETATM   47  C27 UNL     1      48.352   4.082  -0.184  1.00  0.00     0.021 C 
HETATM   48  C28 UNL     1      48.419   6.134  -1.433  1.00  0.00     0.021 C 
ENDBRANCH  28  45
ENDBRANCH   1  28
TORSDOF 16
ENDMDL
MODEL 4
REMARK VINA RESULT: -6.698660133      1.384      1.906
REMARK  16 active torsions:
REMARK  status: ('A' for Active; 'I' for Inactive)
REMARK    1  A    between atoms: O1_2  and  C2_3 
REMARK       I    between atoms: C2_3  and  N1_5 
REMARK    2  A    between atoms: N1_5  and  C4_7 
REMARK    3  A    between atoms: C4_7  and  C5_8 
REMARK    4  A    between atoms: C5_8  and  O3_9 
REMARK    5  A    between atoms: O3_9  and  C6_10 
REMARK    6  A    between atoms: C10_14  and  C11_15 
REMARK    7  A    between atoms: C11_15  and  C12_16 
REMARK    8  A    between atoms: C12_16  and  N2_17 
REMARK    9  A    between atoms: C12_16  and  C18_26 
REMARK       I    between atoms: N2_17  and  C13_19 
REMARK   10  A    between atoms: C13_19  and  O5_21 
REMARK   11  A    between atoms: O5_21  and  C14_22 
REMARK   12  A    between atoms: C18_26  and  N3_27 
REMARK   13  A    between atoms: C18_26  and  C25_43 
REMARK   14  A    between atoms: N3_27  and  C19_29 
REMARK   15  A    between atoms: C21_35  and  N6_36 
REMARK   16  A    between atoms: N6_36  and  C22_38 
ROOT
HETATM    1  C12 UNL     1      45.784  10.302  -0.330  1.00  0.00     0.061 C 
ENDROOT
BRANCH   1   2
HETATM    2  C11 UNL     1      46.243   8.979   0.136  1.00  0.00     0.044 C 
BRANCH   2   3
HETATM    3  C10 UNL     1      47.570   8.445   0.066  1.00  0.00    -0.009 A 
HETATM    4  C9  UNL     1      47.906   7.576  -0.983  1.00  0.00     0.013 A 
HETATM    5  C8  UNL     1      49.183   7.112  -1.051  1.00  0.00     0.004 A 
HETATM    6  C7  UNL     1      50.161   7.465  -0.126  1.00  0.00     0.038 A 
HETATM    7  C6  UNL     1      49.876   8.309   0.915  1.00  0.00     0.091 A 
HETATM    8  C29 UNL     1      48.542   8.772   0.960  1.00  0.00     0.077 A 
HETATM    9 CL1  UNL     1      48.218   9.732   2.422  1.00  0.00    -0.080 Cl
BRANCH   7  10
HETATM   10  O3  UNL     1      50.765   8.711   1.876  1.00  0.00    -0.348 OA
BRANCH  10  11
HETATM   11  C5  UNL     1      50.937   8.135   3.111  1.00  0.00     0.195 C 
BRANCH  11  12
HETATM   12  C4  UNL     1      51.104   6.642   3.150  1.00  0.00     0.154 C 
BRANCH  12  13
HETATM   13  N1  UNL     1      50.563   6.076   4.376  1.00  0.00    -0.330 N 
HETATM   14  C2  UNL     1      51.452   5.524   5.335  1.00  0.00     0.362 C 
HETATM   15  O2  UNL     1      50.998   5.017   6.403  1.00  0.00    -0.238 OA
HETATM   16  C3  UNL     1      49.140   6.061   4.627  1.00  0.00     0.155 C 
BRANCH  14  17
HETATM   17  O1  UNL     1      52.826   5.511   5.161  1.00  0.00    -0.309 OA
HETATM   18  C1  UNL     1      53.524   4.340   4.842  1.00  0.00     0.215 C 
ENDBRANCH  14  17
ENDBRANCH  12  13
ENDBRANCH  11  12
ENDBRANCH  10  11
ENDBRANCH   7  10
ENDBRANCH   2   3
ENDBRANCH   1   2
BRANCH   1  19
HETATM   19  N2  UNL     1      44.500  10.281  -1.007  1.00  0.00    -0.301 N 
HETATM   20  C13 UNL     1      44.128  10.131  -2.319  1.00  0.00     0.366 C 
HETATM   21  O4  UNL     1      44.937   9.967  -3.257  1.00  0.00    -0.238 OA
ATOM     22  H2  UNL     1      43.709  10.404  -0.374  1.00  0.00     0.171 HD
BRANCH  20  23
HETATM   23  O5  UNL     1      42.780  10.153  -2.716  1.00  0.00    -0.294 OA
BRANCH  23  24
HETATM   24  C14 UNL     1      42.152   8.971  -3.172  1.00  0.00     0.061 C 
HETATM   25  C15 UNL     1      42.196   8.835  -4.681  1.00  0.00     0.046 C 
HETATM   26  C16 UNL     1      42.664   7.729  -2.509  1.00  0.00     0.046 C 
HETATM   27  C17 UNL     1      40.666   9.115  -2.814  1.00  0.00     0.046 C 
ENDBRANCH  23  24
ENDBRANCH  20  23
ENDBRANCH   1  19
BRANCH   1  28
HETATM   28  C18 UNL     1      46.697  11.382  -0.677  1.00  0.00     0.061 C 
BRANCH  28  29
HETATM   29  N3  UNL     1      46.970  12.141   0.533  1.00  0.00    -0.192 N 
ATOM     30  H3  UNL     1      47.838  11.890   1.007  1.00  0.00     0.184 HD
BRANCH  29  31
HETATM   31  C19 UNL     1      46.320  13.046   1.085  1.00  0.00     0.698 A 
HETATM   32  N4  UNL     1      45.230  13.606   0.553  1.00  0.00    -0.187 N 
HETATM   33  C20 UNL     1      44.569  14.588   1.200  1.00  0.00     0.215 A 
ATOM     34  H4  UNL     1      44.892  13.287  -0.356  1.00  0.00     0.185 HD
HETATM   35  N5  UNL     1      45.003  15.021   2.402  1.00  0.00    -0.187 N 
HETATM   36  C21 UNL     1      46.113  14.472   2.976  1.00  0.00     0.693 A 
ATOM     37  H5  UNL     1      44.497  15.764   2.885  1.00  0.00     0.185 HD
HETATM   38  N7  UNL     1      46.728  13.503   2.292  1.00  0.00    -0.022 N 
ATOM     39  H7  UNL     1      47.559  13.081   2.706  1.00  0.00     0.203 HD
BRANCH  36  40
HETATM   40  N6  UNL     1      46.477  14.922   4.115  1.00  0.00    -0.222 N 
ATOM     41  H6  UNL     1      46.390  14.266   4.891  1.00  0.00     0.178 HD
BRANCH  40  42
HETATM   42  C22 UNL     1      46.984  16.202   4.458  1.00  0.00     0.091 C 
HETATM   43  C23 UNL     1      47.953  16.689   3.402  1.00  0.00     0.032 C 
HETATM   44  C24 UNL     1      45.940  17.228   4.777  1.00  0.00     0.032 C 
ENDBRANCH  40  42
ENDBRANCH  36  40
ENDBRANCH  29  31
ENDBRANCH  28  29
BRANCH  28  45
HETATM   45  C25 UNL     1      47.666  11.593  -1.700  1.00  0.00    -0.006 C 
HETATM   46  C26 UNL     1      48.985  12.011  -0.930  1.00  0.00     0.021 C 
HETATM   47  C27 UNL     1      48.190  10.652  -2.670  1.00  0.00     0.021 C 
HETATM   48  C28 UNL     1      47.436  12.927  -2.492  1.00  0.00     0.021 C 
ENDBRANCH  28  45
ENDBRANCH   1  28
TORSDOF 16
ENDMDL
MODEL 5
REMARK VINA RESULT: -6.640434046      3.850      6.598
REMARK  16 active torsions:
REMARK  status: ('A' for Active; 'I' for Inactive)
REMARK    1  A    between atoms: O1_2  and  C2_3 
REMARK       I    between atoms: C2_3  and  N1_5 
REMARK    2  A    between atoms: N1_5  and  C4_7 
REMARK    3  A    between atoms: C4_7  and  C5_8 
REMARK    4  A    between atoms: C5_8  and  O3_9 
REMARK    5  A    between atoms: O3_9  and  C6_10 
REMARK    6  A    between atoms: C10_14  and  C11_15 
REMARK    7  A    between atoms: C11_15  and  C12_16 
REMARK    8  A    between atoms: C12_16  and  N2_17 
REMARK    9  A    between atoms: C12_16  and  C18_26 
REMARK       I    between atoms: N2_17  and  C13_19 
REMARK   10  A    between atoms: C13_19  and  O5_21 
REMARK   11  A    between atoms: O5_21  and  C14_22 
REMARK   12  A    between atoms: C18_26  and  N3_27 
REMARK   13  A    between atoms: C18_26  and  C25_43 
REMARK   14  A    between atoms: N3_27  and  C19_29 
REMARK   15  A    between atoms: C21_35  and  N6_36 
REMARK   16  A    between atoms: N6_36  and  C22_38 
ROOT
HETATM    1  C12 UNL     1      44.907  13.508   0.500  1.00  0.00     0.061 C 
ENDROOT
BRANCH   1   2
HETATM    2  C11 UNL     1      44.559  12.139   0.928  1.00  0.00     0.044 C 
BRANCH   2   3
HETATM    3  C10 UNL     1      44.975  10.908   0.325  1.00  0.00    -0.009 A 
HETATM    4  C9  UNL     1      44.137  10.285  -0.612  1.00  0.00     0.013 A 
HETATM    5  C8  UNL     1      44.570   9.137  -1.201  1.00  0.00     0.004 A 
HETATM    6  C7  UNL     1      45.803   8.562  -0.909  1.00  0.00     0.038 A 
HETATM    7  C6  UNL     1      46.652   9.135   0.001  1.00  0.00     0.091 A 
HETATM    8  C29 UNL     1      46.174  10.324   0.597  1.00  0.00     0.077 A 
HETATM    9 CL1  UNL     1      47.262  10.915   1.874  1.00  0.00    -0.080 Cl
BRANCH   7  10
HETATM   10  O3  UNL     1      47.879   8.645   0.358  1.00  0.00    -0.348 OA
BRANCH  10  11
HETATM   11  C5  UNL     1      48.372   7.398   0.057  1.00  0.00     0.195 C 
BRANCH  11  12
HETATM   12  C4  UNL     1      48.848   6.558   1.208  1.00  0.00     0.154 C 
BRANCH  12  13
HETATM   13  N1  UNL     1      50.043   7.119   1.820  1.00  0.00    -0.330 N 
HETATM   14  C2  UNL     1      49.928   7.815   3.052  1.00  0.00     0.362 C 
HETATM   15  O2  UNL     1      50.956   8.319   3.593  1.00  0.00    -0.238 OA
HETATM   16  C3  UNL     1      51.337   6.985   1.191  1.00  0.00     0.155 C 
BRANCH  14  17
HETATM   17  O1  UNL     1      48.721   7.975   3.711  1.00  0.00    -0.309 OA
HETATM   18  C1  UNL     1      48.305   7.103   4.726  1.00  0.00     0.215 C 
ENDBRANCH  14  17
ENDBRANCH  12  13
ENDBRANCH  11  12
ENDBRANCH  10  11
ENDBRANCH   7  10
ENDBRANCH   2   3
ENDBRANCH   1   2
BRANCH   1  19
HETATM   19  N2  UNL     1      44.882  14.489   1.569  1.00  0.00    -0.301 N 
HETATM   20  C13 UNL     1      45.564  14.611   2.753  1.00  0.00     0.366 C 
HETATM   21  O4  UNL     1      46.423  13.795   3.148  1.00  0.00    -0.238 OA
ATOM     22  H2  UNL     1      44.218  15.246   1.405  1.00  0.00     0.171 HD
BRANCH  20  23
HETATM   23  O5  UNL     1      45.341  15.685   3.631  1.00  0.00    -0.294 OA
BRANCH  23  24
HETATM   24  C14 UNL     1      46.243  16.772   3.671  1.00  0.00     0.061 C 
HETATM   25  C15 UNL     1      46.303  17.430   5.036  1.00  0.00     0.046 C 
HETATM   26  C16 UNL     1      47.618  16.426   3.186  1.00  0.00     0.046 C 
HETATM   27  C17 UNL     1      45.669  17.836   2.726  1.00  0.00     0.046 C 
ENDBRANCH  23  24
ENDBRANCH  20  23
ENDBRANCH   1  19
BRANCH   1  28
HETATM   28  C18 UNL     1      44.684  13.997  -0.853  1.00  0.00     0.061 C 
BRANCH  28  29
HETATM   29  N3  UNL     1      44.034  15.295  -0.758  1.00  0.00    -0.192 N 
ATOM     30  H3  UNL     1      44.107  15.741   0.157  1.00  0.00     0.184 HD
BRANCH  29  31
HETATM   31  C19 UNL     1      43.405  15.949  -1.607  1.00  0.00     0.698 A 
HETATM   32  N4  UNL     1      42.181  15.626  -2.034  1.00  0.00    -0.187 N 
HETATM   33  C20 UNL     1      41.551  16.375  -2.963  1.00  0.00     0.215 A 
ATOM     34  H4  UNL     1      41.716  14.801  -1.654  1.00  0.00     0.185 HD
HETATM   35  N5  UNL     1      42.152  17.467  -3.477  1.00  0.00    -0.187 N 
HETATM   36  C21 UNL     1      43.403  17.828  -3.064  1.00  0.00     0.693 A 
ATOM     37  H5  UNL     1      41.669  18.029  -4.178  1.00  0.00     0.185 HD
HETATM   38  N7  UNL     1      43.979  17.052  -2.143  1.00  0.00    -0.022 N 
ATOM     39  H7  UNL     1      44.913  17.306  -1.821  1.00  0.00     0.203 HD
BRANCH  36  40
HETATM   40  N6  UNL     1      43.922  18.873  -3.585  1.00  0.00    -0.222 N 
ATOM     41  H6  UNL     1      43.476  19.755  -3.331  1.00  0.00     0.178 HD
BRANCH  40  42
HETATM   42  C22 UNL     1      45.029  18.985  -4.466  1.00  0.00     0.091 C 
HETATM   43  C23 UNL     1      46.323  19.056  -3.684  1.00  0.00     0.032 C 
HETATM   44  C24 UNL     1      45.081  17.948  -5.546  1.00  0.00     0.032 C 
ENDBRANCH  40  42
ENDBRANCH  36  40
ENDBRANCH  29  31
ENDBRANCH  28  29
BRANCH  28  45
HETATM   45  C25 UNL     1      45.294  13.770  -2.121  1.00  0.00    -0.006 C 
HETATM   46  C26 UNL     1      44.297  12.806  -2.885  1.00  0.00     0.021 C 
HETATM   47  C27 UNL     1      45.620  14.725  -3.162  1.00  0.00     0.021 C 
HETATM   48  C28 UNL     1      46.525  12.802  -2.039  1.00  0.00     0.021 C 
ENDBRANCH  28  45
ENDBRANCH   1  28
TORSDOF 16
ENDMDL
