MODEL 1
REMARK VINA RESULT: -8.314607741      0.000      0.000
REMARK  7 active torsions:
REMARK  status: ('A' for Active; 'I' for Inactive)
REMARK    1  A    between atoms: C5_5  and  N1_6 
REMARK    2  A    between atoms: C6_9  and  C7_10 
REMARK    3  A    between atoms: C7_10  and  C8_11 
REMARK    4  A    between atoms: C18_23  and  C19_24 
REMARK    5  A    between atoms: C19_24  and  N4_25 
REMARK    6  A    between atoms: N4_25  and  C20_28 
REMARK    7  A    between atoms: C27_36  and  C28_37 
ROOT
HETATM    1  N1  UNL     1      45.248  12.239  -0.473  1.00  0.00    -0.254 N 
HETATM    2  N2  UNL     1      44.608  12.761  -1.505  1.00  0.00    -0.296 N 
ATOM      3  H2  UNL     1      44.455  12.289  -2.395  1.00  0.00     0.187 HD
HETATM    4  C6  UNL     1      44.178  14.027  -1.206  1.00  0.00     0.043 A 
HETATM    5  C16 UNL     1      44.599  14.248   0.080  1.00  0.00     0.018 A 
HETATM    6  C17 UNL     1      44.463  15.327   0.924  1.00  0.00     0.024 A 
HETATM    7  C18 UNL     1      44.994  15.283   2.213  1.00  0.00    -0.032 A 
HETATM    8  C23 UNL     1      45.650  14.169   2.640  1.00  0.00     0.011 A 
HETATM    9  C24 UNL     1      45.800  13.076   1.819  1.00  0.00     0.033 A 
HETATM   10  C25 UNL     1      45.277  13.114   0.547  1.00  0.00     0.069 A 
ENDROOT
BRANCH   1  11
HETATM   11  C5  UNL     1      45.843  10.941  -0.397  1.00  0.00     0.079 A 
HETATM   12  C4  UNL     1      45.118   9.829  -0.020  1.00  0.00     0.034 A 
HETATM   13  C3  UNL     1      45.638   8.566   0.067  1.00  0.00     0.010 A 
HETATM   14  C2  UNL     1      46.972   8.382  -0.240  1.00  0.00    -0.046 A 
HETATM   15  C1  UNL     1      47.581   7.007  -0.155  1.00  0.00     0.049 C 
HETATM   16  C27 UNL     1      47.731   9.465  -0.621  1.00  0.00     0.039 A 
HETATM   17  C26 UNL     1      47.182  10.735  -0.702  1.00  0.00     0.077 A 
HETATM   18 CL1  UNL     1      48.184  12.087  -1.193  1.00  0.00    -0.081 Cl
BRANCH  16  19
HETATM   19  C28 UNL     1      49.156   9.301  -0.954  1.00  0.00     0.133 A 
HETATM   20  N5  UNL     1      50.166   9.387  -0.095  1.00  0.00    -0.336 N 
HETATM   21  C29 UNL     1      51.309   9.181  -0.764  1.00  0.00     0.199 A 
ATOM     22  H5  UNL     1      50.085   9.577   0.904  1.00  0.00     0.168 HD
HETATM   23  N6  UNL     1      50.997   8.964  -2.070  1.00  0.00    -0.295 N 
HETATM   24  N7  UNL     1      49.688   9.040  -2.163  1.00  0.00    -0.284 N 
ATOM     25  H6  UNL     1      51.652   8.777  -2.829  1.00  0.00     0.187 HD
ATOM     26  H7  UNL     1      49.154   8.920  -3.023  1.00  0.00     0.188 HD
ENDBRANCH  16  19
ENDBRANCH   1  11
BRANCH   4  27
HETATM   27  C7  UNL     1      43.439  14.935  -2.119  1.00  0.00     0.098 C 
BRANCH  27  28
HETATM   28  C8  UNL     1      44.235  16.051  -2.639  1.00  0.00    -0.052 A 
HETATM   29  C9  UNL     1      43.994  17.389  -2.435  1.00  0.00     0.010 A 
HETATM   30  C10 UNL     1      44.822  18.374  -2.975  1.00  0.00     0.031 A 
HETATM   31  C11 UNL     1      45.919  17.990  -3.739  1.00  0.00     0.042 A 
HETATM   32  N3  UNL     1      46.871  18.727  -4.371  1.00  0.00    -0.365 N 
HETATM   33  C14 UNL     1      46.184  16.659  -3.959  1.00  0.00    -0.008 A 
HETATM   34  C12 UNL     1      47.747  17.921  -4.996  1.00  0.00     0.089 A 
ATOM     35  H3  UNL     1      46.914  19.747  -4.372  1.00  0.00     0.165 HD
HETATM   36  C13 UNL     1      47.321  16.633  -4.740  1.00  0.00     0.030 A 
HETATM   37  C15 UNL     1      45.344  15.727  -3.408  1.00  0.00     0.021 A 
ENDBRANCH  27  28
ENDBRANCH   4  27
BRANCH   7  38
HETATM   38  C19 UNL     1      44.812  16.482   3.080  1.00  0.00     0.271 C 
BRANCH  38  39
HETATM   39  N4  UNL     1      45.898  17.389   2.866  1.00  0.00    -0.068 N 
ATOM     40  H42 UNL     1      46.378  17.176   1.992  1.00  0.00     0.277 HD
ATOM     41  H41 UNL     1      45.550  18.322   2.647  1.00  0.00     0.277 HD
BRANCH  39  42
HETATM   42  C20 UNL     1      46.828  17.439   3.955  1.00  0.00     0.178 C 
HETATM   43  C21 UNL     1      48.113  16.662   3.672  1.00  0.00     0.039 C 
HETATM   44  C22 UNL     1      46.241  16.803   5.216  1.00  0.00     0.039 C 
ENDBRANCH  39  42
ENDBRANCH  38  39
ENDBRANCH   7  38
TORSDOF 7
ENDMDL
MODEL 2
REMARK VINA RESULT: -8.300184791      3.865      8.212
REMARK  7 active torsions:
REMARK  status: ('A' for Active; 'I' for Inactive)
REMARK    1  A    between atoms: C5_5  and  N1_6 
REMARK    2  A    between atoms: C6_9  and  C7_10 
REMARK    3  A    between atoms: C7_10  and  C8_11 
REMARK    4  A    between atoms: C18_23  and  C19_24 
REMARK    5  A    between atoms: C19_24  and  N4_25 
REMARK    6  A    between atoms: N4_25  and  C20_28 
REMARK    7  A    between atoms: C27_36  and  C28_37 
ROOT
HETATM    1  N1  UNL     1      45.582   9.911  -0.180  1.00  0.00    -0.254 N 
HETATM    2  N2  UNL     1      46.691   9.196  -0.104  1.00  0.00    -0.296 N 
ATOM      3  H2  UNL     1      46.882   8.357  -0.651  1.00  0.00     0.187 HD
HETATM    4  C6  UNL     1      47.547   9.743   0.815  1.00  0.00     0.043 A 
HETATM    5  C16 UNL     1      46.889  10.844   1.299  1.00  0.00     0.018 A 
HETATM    6  C17 UNL     1      47.238  11.792   2.233  1.00  0.00     0.024 A 
HETATM    7  C18 UNL     1      46.362  12.833   2.540  1.00  0.00    -0.032 A 
HETATM    8  C23 UNL     1      45.156  12.914   1.913  1.00  0.00     0.011 A 
HETATM    9  C24 UNL     1      44.781  11.980   0.975  1.00  0.00     0.033 A 
HETATM   10  C25 UNL     1      45.642  10.952   0.669  1.00  0.00     0.069 A 
ENDROOT
BRANCH   1  11
HETATM   11  C5  UNL     1      44.453   9.661  -1.021  1.00  0.00     0.079 A 
HETATM   12  C4  UNL     1      43.629   8.571  -0.827  1.00  0.00     0.034 A 
HETATM   13  C3  UNL     1      42.536   8.286  -1.601  1.00  0.00     0.010 A 
HETATM   14  C2  UNL     1      42.231   9.137  -2.645  1.00  0.00    -0.046 A 
HETATM   15  C1  UNL     1      41.038   8.856  -3.520  1.00  0.00     0.049 C 
HETATM   16  C27 UNL     1      43.028  10.237  -2.873  1.00  0.00     0.039 A 
HETATM   17  C26 UNL     1      44.129  10.505  -2.074  1.00  0.00     0.077 A 
HETATM   18 CL1  UNL     1      45.116  11.916  -2.399  1.00  0.00    -0.081 Cl
BRANCH  16  19
HETATM   19  C28 UNL     1      42.728  11.162  -3.978  1.00  0.00     0.133 A 
HETATM   20  N5  UNL     1      43.194  11.063  -5.219  1.00  0.00    -0.336 N 
HETATM   21  C29 UNL     1      42.705  12.083  -5.938  1.00  0.00     0.199 A 
ATOM     22  H5  UNL     1      43.819  10.334  -5.564  1.00  0.00     0.168 HD
HETATM   23  N6  UNL     1      41.917  12.832  -5.120  1.00  0.00    -0.295 N 
HETATM   24  N7  UNL     1      41.945  12.256  -3.938  1.00  0.00    -0.284 N 
ATOM     25  H6  UNL     1      41.404  13.676  -5.374  1.00  0.00     0.187 HD
ATOM     26  H7  UNL     1      41.446  12.589  -3.113  1.00  0.00     0.188 HD
ENDBRANCH  16  19
ENDBRANCH   1  11
BRANCH   4  27
HETATM   27  C7  UNL     1      48.882   9.211   1.187  1.00  0.00     0.098 C 
BRANCH  27  28
HETATM   28  C8  UNL     1      48.856   8.201   2.250  1.00  0.00    -0.052 A 
HETATM   29  C9  UNL     1      47.739   7.724   2.894  1.00  0.00     0.010 A 
HETATM   30  C10 UNL     1      47.826   6.754   3.894  1.00  0.00     0.031 A 
HETATM   31  C11 UNL     1      49.077   6.259   4.247  1.00  0.00     0.042 A 
HETATM   32  N3  UNL     1      49.444   5.329   5.168  1.00  0.00    -0.365 N 
HETATM   33  C14 UNL     1      50.212   6.718   3.619  1.00  0.00    -0.008 A 
HETATM   34  C12 UNL     1      50.778   5.167   5.163  1.00  0.00     0.089 A 
ATOM     35  H3  UNL     1      48.798   4.826   5.778  1.00  0.00     0.165 HD
HETATM   36  C13 UNL     1      51.257   6.031   4.198  1.00  0.00     0.030 A 
HETATM   37  C15 UNL     1      50.077   7.670   2.643  1.00  0.00     0.021 A 
ENDBRANCH  27  28
ENDBRANCH   4  27
BRANCH   7  38
HETATM   38  C19 UNL     1      46.799  13.830   3.559  1.00  0.00     0.271 C 
BRANCH  38  39
HETATM   39  N4  UNL     1      46.083  15.052   3.360  1.00  0.00    -0.068 N 
ATOM     40  H42 UNL     1      45.359  14.934   2.651  1.00  0.00     0.277 HD
ATOM     41  H41 UNL     1      45.498  15.263   4.168  1.00  0.00     0.277 HD
BRANCH  39  42
HETATM   42  C20 UNL     1      46.925  16.167   3.041  1.00  0.00     0.178 C 
HETATM   43  C21 UNL     1      48.046  16.373   4.060  1.00  0.00     0.039 C 
HETATM   44  C22 UNL     1      46.136  17.477   3.040  1.00  0.00     0.039 C 
ENDBRANCH  39  42
ENDBRANCH  38  39
ENDBRANCH   7  38
TORSDOF 7
ENDMDL
MODEL 3
REMARK VINA RESULT: -8.239529402      3.180      9.821
REMARK  7 active torsions:
REMARK  status: ('A' for Active; 'I' for Inactive)
REMARK    1  A    between atoms: C5_5  and  N1_6 
REMARK    2  A    between atoms: C6_9  and  C7_10 
REMARK    3  A    between atoms: C7_10  and  C8_11 
REMARK    4  A    between atoms: C18_23  and  C19_24 
REMARK    5  A    between atoms: C19_24  and  N4_25 
REMARK    6  A    between atoms: N4_25  and  C20_28 
REMARK    7  A    between atoms: C27_36  and  C28_37 
ROOT
HETATM    1  N1  UNL     1      46.537  11.377   0.889  1.00  0.00    -0.254 N 
HETATM    2  N2  UNL     1      46.108  10.225   1.377  1.00  0.00    -0.296 N 
ATOM      3  H2  UNL     1      45.264  10.108   1.937  1.00  0.00     0.187 HD
HETATM    4  C6  UNL     1      46.958   9.212   1.021  1.00  0.00     0.043 A 
HETATM    5  C16 UNL     1      47.941   9.819   0.282  1.00  0.00     0.018 A 
HETATM    6  C17 UNL     1      49.060   9.326  -0.348  1.00  0.00     0.024 A 
HETATM    7  C18 UNL     1      49.906  10.182  -1.052  1.00  0.00    -0.032 A 
HETATM    8  C23 UNL     1      49.625  11.513  -1.118  1.00  0.00     0.011 A 
HETATM    9  C24 UNL     1      48.512  12.033  -0.498  1.00  0.00     0.033 A 
HETATM   10  C25 UNL     1      47.675  11.192   0.197  1.00  0.00     0.069 A 
ENDROOT
BRANCH   1  11
HETATM   11  C5  UNL     1      45.924  12.659   1.045  1.00  0.00     0.079 A 
HETATM   12  C4  UNL     1      44.994  13.134   0.143  1.00  0.00     0.034 A 
HETATM   13  C3  UNL     1      44.377  14.353   0.247  1.00  0.00     0.010 A 
HETATM   14  C2  UNL     1      44.699  15.164   1.317  1.00  0.00    -0.046 A 
HETATM   15  C1  UNL     1      44.042  16.511   1.464  1.00  0.00     0.049 C 
HETATM   16  C27 UNL     1      45.622  14.726   2.240  1.00  0.00     0.039 A 
HETATM   17  C26 UNL     1      46.233  13.488   2.114  1.00  0.00     0.077 A 
HETATM   18 CL1  UNL     1      47.403  12.969   3.313  1.00  0.00    -0.081 Cl
BRANCH  16  19
HETATM   19  C28 UNL     1      45.987  15.568   3.392  1.00  0.00     0.133 A 
HETATM   20  N5  UNL     1      46.975  16.455   3.420  1.00  0.00    -0.336 N 
HETATM   21  C29 UNL     1      46.999  17.024   4.634  1.00  0.00     0.199 A 
ATOM     22  H5  UNL     1      47.608  16.668   2.649  1.00  0.00     0.168 HD
HETATM   23  N6  UNL     1      46.000  16.472   5.375  1.00  0.00    -0.295 N 
HETATM   24  N7  UNL     1      45.399  15.594   4.603  1.00  0.00    -0.284 N 
ATOM     25  H6  UNL     1      45.763  16.698   6.341  1.00  0.00     0.187 HD
ATOM     26  H7  UNL     1      44.605  15.016   4.881  1.00  0.00     0.188 HD
ENDBRANCH  16  19
ENDBRANCH   1  11
BRANCH   4  27
HETATM   27  C7  UNL     1      46.817   7.782   1.397  1.00  0.00     0.098 C 
BRANCH  27  28
HETATM   28  C8  UNL     1      47.815   7.309   2.362  1.00  0.00    -0.052 A 
HETATM   29  C9  UNL     1      48.639   8.093   3.133  1.00  0.00     0.010 A 
HETATM   30  C10 UNL     1      49.555   7.536   4.027  1.00  0.00     0.031 A 
HETATM   31  C11 UNL     1      49.636   6.152   4.138  1.00  0.00     0.042 A 
HETATM   32  N3  UNL     1      50.424   5.361   4.913  1.00  0.00    -0.365 N 
HETATM   33  C14 UNL     1      48.823   5.343   3.377  1.00  0.00    -0.008 A 
HETATM   34  C12 UNL     1      50.153   4.064   4.684  1.00  0.00     0.089 A 
ATOM     35  H3  UNL     1      51.122   5.702   5.575  1.00  0.00     0.165 HD
HETATM   36  C13 UNL     1      49.156   4.052   3.728  1.00  0.00     0.030 A 
HETATM   37  C15 UNL     1      47.939   5.935   2.514  1.00  0.00     0.021 A 
ENDBRANCH  27  28
ENDBRANCH   4  27
BRANCH   7  38
HETATM   38  C19 UNL     1      51.102   9.588  -1.715  1.00  0.00     0.271 C 
BRANCH  38  39
HETATM   39  N4  UNL     1      52.033   9.163  -0.717  1.00  0.00    -0.068 N 
ATOM     40  H42 UNL     1      52.903   9.691  -0.789  1.00  0.00     0.277 HD
ATOM     41  H41 UNL     1      51.729   9.461   0.210  1.00  0.00     0.277 HD
BRANCH  39  42
HETATM   42  C20 UNL     1      52.294   7.754  -0.735  1.00  0.00     0.178 C 
HETATM   43  C21 UNL     1      51.601   7.038  -1.894  1.00  0.00     0.039 C 
HETATM   44  C22 UNL     1      51.768   7.075   0.530  1.00  0.00     0.039 C 
ENDBRANCH  39  42
ENDBRANCH  38  39
ENDBRANCH   7  38
TORSDOF 7
ENDMDL
MODEL 4
REMARK VINA RESULT: -8.121042808      3.187      9.692
REMARK  7 active torsions:
REMARK  status: ('A' for Active; 'I' for Inactive)
REMARK    1  A    between atoms: C5_5  and  N1_6 
REMARK    2  A    between atoms: C6_9  and  C7_10 
REMARK    3  A    between atoms: C7_10  and  C8_11 
REMARK    4  A    between atoms: C18_23  and  C19_24 
REMARK    5  A    between atoms: C19_24  and  N4_25 
REMARK    6  A    between atoms: N4_25  and  C20_28 
REMARK    7  A    between atoms: C27_36  and  C28_37 
ROOT
HETATM    1  N1  UNL     1      46.552  11.310   0.766  1.00  0.00    -0.254 N 
HETATM    2  N2  UNL     1      46.115  10.141   1.203  1.00  0.00    -0.296 N 
ATOM      3  H2  UNL     1      45.261  10.003   1.742  1.00  0.00     0.187 HD
HETATM    4  C6  UNL     1      46.974   9.142   0.827  1.00  0.00     0.043 A 
HETATM    5  C16 UNL     1      47.969   9.777   0.129  1.00  0.00     0.018 A 
HETATM    6  C17 UNL     1      49.101   9.308  -0.497  1.00  0.00     0.024 A 
HETATM    7  C18 UNL     1      49.960  10.190  -1.152  1.00  0.00    -0.032 A 
HETATM    8  C23 UNL     1      49.677  11.523  -1.175  1.00  0.00     0.011 A 
HETATM    9  C24 UNL     1      48.552  12.019  -0.559  1.00  0.00     0.033 A 
HETATM   10  C25 UNL     1      47.703  11.152   0.089  1.00  0.00     0.069 A 
ENDROOT
BRANCH   1  11
HETATM   11  C5  UNL     1      45.934  12.585   0.956  1.00  0.00     0.079 A 
HETATM   12  C4  UNL     1      44.983  13.070   0.082  1.00  0.00     0.034 A 
HETATM   13  C3  UNL     1      44.360  14.282   0.219  1.00  0.00     0.010 A 
HETATM   14  C2  UNL     1      44.699  15.076   1.297  1.00  0.00    -0.046 A 
HETATM   15  C1  UNL     1      44.036  16.416   1.481  1.00  0.00     0.049 C 
HETATM   16  C27 UNL     1      45.643  14.629   2.193  1.00  0.00     0.039 A 
HETATM   17  C26 UNL     1      46.259  13.397   2.034  1.00  0.00     0.077 A 
HETATM   18 CL1  UNL     1      47.456  12.866   3.199  1.00  0.00    -0.081 Cl
BRANCH  16  19
HETATM   19  C28 UNL     1      46.025  15.453   3.353  1.00  0.00     0.133 A 
HETATM   20  N5  UNL     1      47.005  16.350   3.375  1.00  0.00    -0.336 N 
HETATM   21  C29 UNL     1      47.051  16.896   4.598  1.00  0.00     0.199 A 
ATOM     22  H5  UNL     1      47.618  16.583   2.594  1.00  0.00     0.168 HD
HETATM   23  N6  UNL     1      46.075  16.321   5.351  1.00  0.00    -0.295 N 
HETATM   24  N7  UNL     1      45.465  15.451   4.577  1.00  0.00    -0.284 N 
ATOM     25  H6  UNL     1      45.857  16.526   6.326  1.00  0.00     0.187 HD
ATOM     26  H7  UNL     1      44.683  14.860   4.862  1.00  0.00     0.188 HD
ENDBRANCH  16  19
ENDBRANCH   1  11
BRANCH   4  27
HETATM   27  C7  UNL     1      46.828   7.700   1.148  1.00  0.00     0.098 C 
BRANCH  27  28
HETATM   28  C8  UNL     1      47.694   7.231   2.235  1.00  0.00    -0.052 A 
HETATM   29  C9  UNL     1      48.345   8.017   3.155  1.00  0.00     0.010 A 
HETATM   30  C10 UNL     1      49.146   7.465   4.156  1.00  0.00     0.031 A 
HETATM   31  C11 UNL     1      49.288   6.083   4.222  1.00  0.00     0.042 A 
HETATM   32  N3  UNL     1      49.993   5.296   5.077  1.00  0.00    -0.365 N 
HETATM   33  C14 UNL     1      48.648   5.272   3.314  1.00  0.00    -0.008 A 
HETATM   34  C12 UNL     1      49.834   4.000   4.757  1.00  0.00     0.089 A 
ATOM     35  H3  UNL     1      50.562   5.639   5.851  1.00  0.00     0.165 HD
HETATM   36  C13 UNL     1      48.997   3.984   3.660  1.00  0.00     0.030 A 
HETATM   37  C15 UNL     1      47.872   5.859   2.349  1.00  0.00     0.021 A 
ENDBRANCH  27  28
ENDBRANCH   4  27
BRANCH   7  38
HETATM   38  C19 UNL     1      51.168   9.621  -1.814  1.00  0.00     0.271 C 
BRANCH  38  39
HETATM   39  N4  UNL     1      52.321   9.903  -1.015  1.00  0.00    -0.068 N 
ATOM     40  H42 UNL     1      52.061  10.431  -0.182  1.00  0.00     0.277 HD
ATOM     41  H41 UNL     1      52.671   9.052  -0.576  1.00  0.00     0.277 HD
BRANCH  39  42
HETATM   42  C20 UNL     1      53.367  10.571  -1.731  1.00  0.00     0.178 C 
HETATM   43  C21 UNL     1      53.456  12.060  -1.398  1.00  0.00     0.039 C 
HETATM   44  C22 UNL     1      53.135  10.509  -3.241  1.00  0.00     0.039 C 
ENDBRANCH  39  42
ENDBRANCH  38  39
ENDBRANCH   7  38
TORSDOF 7
ENDMDL
MODEL 5
REMARK VINA RESULT: -8.109813848      3.347      7.828
REMARK  7 active torsions:
REMARK  status: ('A' for Active; 'I' for Inactive)
REMARK    1  A    between atoms: C5_5  and  N1_6 
REMARK    2  A    between atoms: C6_9  and  C7_10 
REMARK    3  A    between atoms: C7_10  and  C8_11 
REMARK    4  A    between atoms: C18_23  and  C19_24 
REMARK    5  A    between atoms: C19_24  and  N4_25 
REMARK    6  A    between atoms: N4_25  and  C20_28 
REMARK    7  A    between atoms: C27_36  and  C28_37 
ROOT
HETATM    1  N1  UNL     1      45.603  11.502  -0.881  1.00  0.00    -0.254 N 
HETATM    2  N2  UNL     1      46.612  10.648  -0.869  1.00  0.00    -0.296 N 
ATOM      3  H2  UNL     1      46.786   9.942  -1.583  1.00  0.00     0.187 HD
HETATM    4  C6  UNL     1      47.391  10.848   0.240  1.00  0.00     0.043 A 
HETATM    5  C16 UNL     1      46.792  11.883   0.910  1.00  0.00     0.018 A 
HETATM    6  C17 UNL     1      47.110  12.533   2.080  1.00  0.00     0.024 A 
HETATM    7  C18 UNL     1      46.314  13.581   2.542  1.00  0.00    -0.032 A 
HETATM    8  C23 UNL     1      45.216  13.965   1.832  1.00  0.00     0.011 A 
HETATM    9  C24 UNL     1      44.875  13.334   0.659  1.00  0.00     0.033 A 
HETATM   10  C25 UNL     1      45.658  12.300   0.200  1.00  0.00     0.069 A 
ENDROOT
BRANCH   1  11
HETATM   11  C5  UNL     1      44.577  11.606  -1.871  1.00  0.00     0.079 A 
HETATM   12  C4  UNL     1      44.381  12.764  -2.596  1.00  0.00     0.034 A 
HETATM   13  C3  UNL     1      43.414  12.915  -3.555  1.00  0.00     0.010 A 
HETATM   14  C2  UNL     1      42.577  11.848  -3.818  1.00  0.00    -0.046 A 
HETATM   15  C1  UNL     1      41.502  11.977  -4.864  1.00  0.00     0.049 C 
HETATM   16  C27 UNL     1      42.740  10.675  -3.116  1.00  0.00     0.039 A 
HETATM   17  C26 UNL     1      43.726  10.545  -2.151  1.00  0.00     0.077 A 
HETATM   18 CL1  UNL     1      43.899   9.034  -1.281  1.00  0.00    -0.081 Cl
BRANCH  16  19
HETATM   19  C28 UNL     1      41.863   9.520  -3.375  1.00  0.00     0.133 A 
HETATM   20  N5  UNL     1      42.113   8.536  -4.231  1.00  0.00    -0.336 N 
HETATM   21  C29 UNL     1      41.090   7.670  -4.190  1.00  0.00     0.199 A 
ATOM     22  H5  UNL     1      42.942   8.452  -4.819  1.00  0.00     0.168 HD
HETATM   23  N6  UNL     1      40.184   8.133  -3.287  1.00  0.00    -0.295 N 
HETATM   24  N7  UNL     1      40.673   9.254  -2.804  1.00  0.00    -0.284 N 
ATOM     25  H6  UNL     1      39.299   7.696  -3.032  1.00  0.00     0.187 HD
ATOM     26  H7  UNL     1      40.218   9.837  -2.101  1.00  0.00     0.188 HD
ENDBRANCH  16  19
ENDBRANCH   1  11
BRANCH   4  27
HETATM   27  C7  UNL     1      48.602  10.071   0.607  1.00  0.00     0.098 C 
BRANCH  27  28
HETATM   28  C8  UNL     1      48.323   8.755   1.191  1.00  0.00    -0.052 A 
HETATM   29  C9  UNL     1      47.876   8.509   2.467  1.00  0.00     0.010 A 
HETATM   30  C10 UNL     1      47.637   7.212   2.924  1.00  0.00     0.031 A 
HETATM   31  C11 UNL     1      47.858   6.141   2.063  1.00  0.00     0.042 A 
HETATM   32  N3  UNL     1      47.710   4.802   2.243  1.00  0.00    -0.365 N 
HETATM   33  C14 UNL     1      48.306   6.359   0.780  1.00  0.00    -0.008 A 
HETATM   34  C12 UNL     1      48.046   4.140   1.123  1.00  0.00     0.089 A 
ATOM     35  H3  UNL     1      47.390   4.362   3.107  1.00  0.00     0.165 HD
HETATM   36  C13 UNL     1      48.417   5.108   0.212  1.00  0.00     0.030 A 
HETATM   37  C15 UNL     1      48.526   7.650   0.377  1.00  0.00     0.021 A 
ENDBRANCH  27  28
ENDBRANCH   4  27
BRANCH   7  38
HETATM   38  C19 UNL     1      46.712  14.247   3.815  1.00  0.00     0.271 C 
BRANCH  38  39
HETATM   39  N4  UNL     1      45.821  15.335   4.077  1.00  0.00    -0.068 N 
ATOM     40  H42 UNL     1      45.046  15.332   3.415  1.00  0.00     0.277 HD
ATOM     41  H41 UNL     1      45.306  15.178   4.944  1.00  0.00     0.277 HD
BRANCH  39  42
HETATM   42  C20 UNL     1      46.466  16.614   4.097  1.00  0.00     0.178 C 
HETATM   43  C21 UNL     1      46.071  17.495   2.912  1.00  0.00     0.039 C 
HETATM   44  C22 UNL     1      47.986  16.472   4.004  1.00  0.00     0.039 C 
ENDBRANCH  39  42
ENDBRANCH  38  39
ENDBRANCH   7  38
TORSDOF 7
ENDMDL
