MODEL 1
REMARK VINA RESULT: -7.864510615      0.000      0.000
REMARK  10 active torsions:
REMARK  status: ('A' for Active; 'I' for Inactive)
REMARK    1  A    between atoms: C3_5  and  C4_6 
REMARK    2  A    between atoms: C6_8  and  O1_9 
REMARK    3  A    between atoms: O1_9  and  C7_10 
REMARK    4  A    between atoms: C7_10  and  C8_11 
REMARK    5  A    between atoms: C8_11  and  C9_12 
REMARK    6  A    between atoms: C9_12  and  C10_13 
REMARK    7  A    between atoms: C10_13  and  O2_14 
REMARK    8  A    between atoms: C12_17  and  C13_18 
REMARK    9  A    between atoms: C15_20  and  N2_21 
REMARK   10  A    between atoms: N2_21  and  C16_23 
ROOT
HETATM    1  C4  UNL     1      44.370  15.752  -0.373  1.00  0.00     0.017 A 
HETATM    2  C5  UNL     1      44.247  16.313   0.906  1.00  0.00     0.052 A 
HETATM    3  C6  UNL     1      44.576  15.586   2.021  1.00  0.00     0.070 A 
HETATM    4  C11 UNL     1      45.031  14.300   1.910  1.00  0.00     0.052 A 
HETATM    5  C12 UNL     1      45.165  13.712   0.652  1.00  0.00     0.017 A 
HETATM    6  C23 UNL     1      44.831  14.452  -0.448  1.00  0.00     0.059 A 
HETATM    7 CL1  UNL     1      44.882  13.761  -2.061  1.00  0.00    -0.082 Cl
ENDROOT
BRANCH   5   8
HETATM    8  C13 UNL     1      45.620  12.335   0.555  1.00  0.00     0.064 A 
HETATM    9  C14 UNL     1      46.838  11.750   0.688  1.00  0.00     0.081 A 
HETATM   10  C15 UNL     1      46.742  10.351   0.546  1.00  0.00     0.120 A 
HETATM   11  N3  UNL     1      45.455  10.137   0.330  1.00  0.00    -0.281 N 
HETATM   12  C22 UNL     1      44.796   8.839   0.113  1.00  0.00     0.179 C 
HETATM   13  N4  UNL     1      44.781  11.263   0.330  1.00  0.00    -0.296 N 
ATOM     14  H4  UNL     1      43.774  11.336   0.182  1.00  0.00     0.187 HD
BRANCH  10  15
HETATM   15  N2  UNL     1      47.684   9.544   0.615  1.00  0.00    -0.370 N 
ATOM     16  H2  UNL     1      47.746   8.876  -0.153  1.00  0.00     0.161 HD
BRANCH  15  17
HETATM   17  C16 UNL     1      48.690   9.420   1.617  1.00  0.00     0.083 C 
HETATM   18  C17 UNL     1      49.897   8.758   1.013  1.00  0.00     0.025 C 
HETATM   19  C18 UNL     1      49.799   7.253   0.997  1.00  0.00     0.002 C 
HETATM   20  C19 UNL     1      49.707   6.813   2.450  1.00  0.00     0.000 C 
HETATM   21  C20 UNL     1      48.362   7.304   2.937  1.00  0.00     0.002 C 
HETATM   22  C21 UNL     1      48.220   8.788   2.889  1.00  0.00     0.025 C 
ENDBRANCH  15  17
ENDBRANCH  10  15
ENDBRANCH   5   8
BRANCH   3  23
HETATM   23  O1  UNL     1      44.440  16.172   3.261  1.00  0.00    -0.351 OA
BRANCH  23  24
HETATM   24  C7  UNL     1      45.455  16.185   4.236  1.00  0.00     0.175 C 
BRANCH  24  25
HETATM   25  C8  UNL     1      46.305  17.432   3.948  1.00  0.00     0.029 C 
BRANCH  25  26
HETATM   26  C9  UNL     1      47.669  17.040   3.450  1.00  0.00     0.028 C 
BRANCH  26  27
HETATM   27  C10 UNL     1      48.589  16.682   4.579  1.00  0.00     0.164 C 
BRANCH  27  28
HETATM   28  O2  UNL     1      48.841  17.872   5.293  1.00  0.00    -0.401 OA
ATOM     29  H2  UNL     1      49.503  17.667   5.944  1.00  0.00     0.209 HD
ENDBRANCH  27  28
ENDBRANCH  26  27
ENDBRANCH  25  26
ENDBRANCH  24  25
ENDBRANCH  23  24
ENDBRANCH   3  23
BRANCH   1  30
HETATM   30  C3  UNL     1      43.985  16.565  -1.516  1.00  0.00     0.061 A 
HETATM   31  N1  UNL     1      44.828  17.525  -2.010  1.00  0.00    -0.344 N 
HETATM   32  C2  UNL     1      44.305  18.130  -3.070  1.00  0.00     0.077 A 
ATOM     33  H1  UNL     1      45.742  17.747  -1.614  1.00  0.00     0.167 HD
HETATM   34  C1  UNL     1      44.933  19.232  -3.878  1.00  0.00     0.089 C 
HETATM   35  N5  UNL     1      43.117  17.577  -3.284  1.00  0.00    -0.354 N 
HETATM   36  C24 UNL     1      42.909  16.609  -2.332  1.00  0.00     0.119 A 
ATOM     37  H5  UNL     1      42.469  17.829  -4.029  1.00  0.00     0.166 HD
ENDBRANCH   1  30
TORSDOF 10
ENDMDL
MODEL 2
REMARK VINA RESULT: -7.725080991      1.427      2.912
REMARK  10 active torsions:
REMARK  status: ('A' for Active; 'I' for Inactive)
REMARK    1  A    between atoms: C3_5  and  C4_6 
REMARK    2  A    between atoms: C6_8  and  O1_9 
REMARK    3  A    between atoms: O1_9  and  C7_10 
REMARK    4  A    between atoms: C7_10  and  C8_11 
REMARK    5  A    between atoms: C8_11  and  C9_12 
REMARK    6  A    between atoms: C9_12  and  C10_13 
REMARK    7  A    between atoms: C10_13  and  O2_14 
REMARK    8  A    between atoms: C12_17  and  C13_18 
REMARK    9  A    between atoms: C15_20  and  N2_21 
REMARK   10  A    between atoms: N2_21  and  C16_23 
ROOT
HETATM    1  C4  UNL     1      44.349  16.033  -0.360  1.00  0.00     0.017 A 
HETATM    2  C5  UNL     1      44.321  16.731   0.855  1.00  0.00     0.052 A 
HETATM    3  C6  UNL     1      44.688  16.114   2.022  1.00  0.00     0.070 A 
HETATM    4  C11 UNL     1      45.091  14.805   2.027  1.00  0.00     0.052 A 
HETATM    5  C12 UNL     1      45.131  14.082   0.836  1.00  0.00     0.017 A 
HETATM    6  C23 UNL     1      44.758  14.714  -0.318  1.00  0.00     0.059 A 
HETATM    7 CL1  UNL     1      44.691  13.853  -1.847  1.00  0.00    -0.082 Cl
ENDROOT
BRANCH   5   8
HETATM    8  C13 UNL     1      45.531  12.685   0.864  1.00  0.00     0.064 A 
HETATM    9  C14 UNL     1      44.892  11.531   0.545  1.00  0.00     0.081 A 
HETATM   10  C15 UNL     1      45.748  10.422   0.703  1.00  0.00     0.120 A 
HETATM   11  N3  UNL     1      46.887  10.950   1.116  1.00  0.00    -0.281 N 
HETATM   12  C22 UNL     1      48.133  10.235   1.435  1.00  0.00     0.179 C 
HETATM   13  N4  UNL     1      46.794  12.256   1.219  1.00  0.00    -0.296 N 
ATOM     14  H4  UNL     1      47.552  12.869   1.520  1.00  0.00     0.187 HD
BRANCH  10  15
HETATM   15  N2  UNL     1      45.451   9.235   0.490  1.00  0.00    -0.370 N 
ATOM     16  H2  UNL     1      45.345   8.653   1.321  1.00  0.00     0.161 HD
BRANCH  15  17
HETATM   17  C16 UNL     1      45.236   8.570  -0.752  1.00  0.00     0.083 C 
HETATM   18  C17 UNL     1      46.300   8.999  -1.724  1.00  0.00     0.025 C 
HETATM   19  C18 UNL     1      45.975  10.297  -2.420  1.00  0.00     0.002 C 
HETATM   20  C19 UNL     1      44.699  10.052  -3.210  1.00  0.00     0.000 C 
HETATM   21  C20 UNL     1      43.613   9.862  -2.174  1.00  0.00     0.002 C 
HETATM   22  C21 UNL     1      43.842   8.688  -1.284  1.00  0.00     0.025 C 
ENDBRANCH  15  17
ENDBRANCH  10  15
ENDBRANCH   5   8
BRANCH   3  23
HETATM   23  O1  UNL     1      44.646  16.833   3.198  1.00  0.00    -0.351 OA
BRANCH  23  24
HETATM   24  C7  UNL     1      45.549  16.649   4.261  1.00  0.00     0.175 C 
BRANCH  24  25
HETATM   25  C8  UNL     1      46.830  17.399   3.868  1.00  0.00     0.029 C 
BRANCH  25  26
HETATM   26  C9  UNL     1      47.985  16.444   3.737  1.00  0.00     0.028 C 
BRANCH  26  27
HETATM   27  C10 UNL     1      49.144  16.857   4.596  1.00  0.00     0.164 C 
BRANCH  27  28
HETATM   28  O2  UNL     1      48.715  17.965   5.355  1.00  0.00    -0.401 OA
ATOM     29  H2  UNL     1      49.217  17.956   6.162  1.00  0.00     0.209 HD
ENDBRANCH  27  28
ENDBRANCH  26  27
ENDBRANCH  25  26
ENDBRANCH  24  25
ENDBRANCH  23  24
ENDBRANCH   3  23
BRANCH   1  30
HETATM   30  C3  UNL     1      43.926  16.734  -1.562  1.00  0.00     0.061 A 
HETATM   31  N1  UNL     1      44.744  17.655  -2.161  1.00  0.00    -0.344 N 
HETATM   32  C2  UNL     1      44.188  18.156  -3.258  1.00  0.00     0.077 A 
ATOM     33  H1  UNL     1      45.664  17.923  -1.808  1.00  0.00     0.167 HD
HETATM   34  C1  UNL     1      44.782  19.188  -4.176  1.00  0.00     0.089 C 
HETATM   35  N5  UNL     1      43.004  17.572  -3.392  1.00  0.00    -0.354 N 
HETATM   36  C24 UNL     1      42.831  16.692  -2.352  1.00  0.00     0.119 A 
ATOM     37  H5  UNL     1      42.334  17.749  -4.141  1.00  0.00     0.166 HD
ENDBRANCH   1  30
TORSDOF 10
ENDMDL
MODEL 3
REMARK VINA RESULT: -7.710579087      1.806      7.878
REMARK  10 active torsions:
REMARK  status: ('A' for Active; 'I' for Inactive)
REMARK    1  A    between atoms: C3_5  and  C4_6 
REMARK    2  A    between atoms: C6_8  and  O1_9 
REMARK    3  A    between atoms: O1_9  and  C7_10 
REMARK    4  A    between atoms: C7_10  and  C8_11 
REMARK    5  A    between atoms: C8_11  and  C9_12 
REMARK    6  A    between atoms: C9_12  and  C10_13 
REMARK    7  A    between atoms: C10_13  and  O2_14 
REMARK    8  A    between atoms: C12_17  and  C13_18 
REMARK    9  A    between atoms: C15_20  and  N2_21 
REMARK   10  A    between atoms: N2_21  and  C16_23 
ROOT
HETATM    1  C4  UNL     1      45.169  13.630   0.940  1.00  0.00     0.017 A 
HETATM    2  C5  UNL     1      45.059  14.280   2.176  1.00  0.00     0.052 A 
HETATM    3  C6  UNL     1      44.594  15.568   2.248  1.00  0.00     0.070 A 
HETATM    4  C11 UNL     1      44.225  16.244   1.116  1.00  0.00     0.052 A 
HETATM    5  C12 UNL     1      44.322  15.626  -0.130  1.00  0.00     0.017 A 
HETATM    6  C23 UNL     1      44.791  14.342  -0.182  1.00  0.00     0.059 A 
HETATM    7 CL1  UNL     1      45.030  13.521  -1.715  1.00  0.00    -0.082 Cl
ENDROOT
BRANCH   5   8
HETATM    8  C13 UNL     1      43.956  16.369  -1.324  1.00  0.00     0.064 A 
HETATM    9  C14 UNL     1      42.840  16.391  -2.097  1.00  0.00     0.081 A 
HETATM   10  C15 UNL     1      42.965  17.338  -3.133  1.00  0.00     0.120 A 
HETATM   11  N3  UNL     1      44.164  17.862  -2.949  1.00  0.00    -0.281 N 
HETATM   12  C22 UNL     1      44.808  18.911  -3.755  1.00  0.00     0.179 C 
HETATM   13  N4  UNL     1      44.762  17.324  -1.911  1.00  0.00    -0.296 N 
ATOM     14  H4  UNL     1      45.695  17.576  -1.584  1.00  0.00     0.187 HD
BRANCH  10  15
HETATM   15  N2  UNL     1      42.111  17.586  -4.001  1.00  0.00    -0.370 N 
ATOM     16  H2  UNL     1      41.414  18.285  -3.743  1.00  0.00     0.161 HD
BRANCH  15  17
HETATM   17  C16 UNL     1      41.967  17.034  -5.307  1.00  0.00     0.083 C 
HETATM   18  C17 UNL     1      40.505  16.828  -5.590  1.00  0.00     0.025 C 
HETATM   19  C18 UNL     1      39.973  15.530  -5.036  1.00  0.00     0.002 C 
HETATM   20  C19 UNL     1      40.741  14.419  -5.736  1.00  0.00     0.000 C 
HETATM   21  C20 UNL     1      42.162  14.527  -5.228  1.00  0.00     0.002 C 
HETATM   22  C21 UNL     1      42.813  15.826  -5.563  1.00  0.00     0.025 C 
ENDBRANCH  15  17
ENDBRANCH  10  15
ENDBRANCH   5   8
BRANCH   3  23
HETATM   23  O1  UNL     1      44.501  16.174   3.483  1.00  0.00    -0.351 OA
BRANCH  23  24
HETATM   24  C7  UNL     1      45.563  16.240   4.404  1.00  0.00     0.175 C 
BRANCH  24  25
HETATM   25  C8  UNL     1      46.404  17.459   3.997  1.00  0.00     0.029 C 
BRANCH  25  26
HETATM   26  C9  UNL     1      47.750  17.026   3.482  1.00  0.00     0.028 C 
BRANCH  26  27
HETATM   27  C10 UNL     1      48.684  16.673   4.602  1.00  0.00     0.164 C 
BRANCH  27  28
HETATM   28  O2  UNL     1      48.899  17.855   5.341  1.00  0.00    -0.401 OA
ATOM     29  H2  UNL     1      49.788  17.812   5.674  1.00  0.00     0.209 HD
ENDBRANCH  27  28
ENDBRANCH  26  27
ENDBRANCH  25  26
ENDBRANCH  24  25
ENDBRANCH  23  24
ENDBRANCH   3  23
BRANCH   1  30
HETATM   30  C3  UNL     1      45.691  12.273   0.925  1.00  0.00     0.061 A 
HETATM   31  N1  UNL     1      47.000  12.021   1.242  1.00  0.00    -0.344 N 
HETATM   32  C2  UNL     1      47.267  10.720   1.200  1.00  0.00     0.077 A 
ATOM     33  H1  UNL     1      47.682  12.741   1.480  1.00  0.00     0.167 HD
HETATM   34  C1  UNL     1      48.589  10.065   1.486  1.00  0.00     0.089 C 
HETATM   35  N5  UNL     1      46.142  10.106   0.857  1.00  0.00    -0.354 N 
HETATM   36  C24 UNL     1      45.162  11.052   0.685  1.00  0.00     0.119 A 
ATOM     37  H5  UNL     1      46.025   9.099   0.740  1.00  0.00     0.166 HD
ENDBRANCH   1  30
TORSDOF 10
ENDMDL
MODEL 4
REMARK VINA RESULT: -7.666572052      1.452      7.844
REMARK  10 active torsions:
REMARK  status: ('A' for Active; 'I' for Inactive)
REMARK    1  A    between atoms: C3_5  and  C4_6 
REMARK    2  A    between atoms: C6_8  and  O1_9 
REMARK    3  A    between atoms: O1_9  and  C7_10 
REMARK    4  A    between atoms: C7_10  and  C8_11 
REMARK    5  A    between atoms: C8_11  and  C9_12 
REMARK    6  A    between atoms: C9_12  and  C10_13 
REMARK    7  A    between atoms: C10_13  and  O2_14 
REMARK    8  A    between atoms: C12_17  and  C13_18 
REMARK    9  A    between atoms: C15_20  and  N2_21 
REMARK   10  A    between atoms: N2_21  and  C16_23 
ROOT
HETATM    1  C4  UNL     1      45.142  13.702   1.052  1.00  0.00     0.017 A 
HETATM    2  C5  UNL     1      45.024  14.369   2.278  1.00  0.00     0.052 A 
HETATM    3  C6  UNL     1      44.595  15.671   2.325  1.00  0.00     0.070 A 
HETATM    4  C11 UNL     1      44.272  16.345   1.178  1.00  0.00     0.052 A 
HETATM    5  C12 UNL     1      44.378  15.710  -0.059  1.00  0.00     0.017 A 
HETATM    6  C23 UNL     1      44.810  14.412  -0.085  1.00  0.00     0.059 A 
HETATM    7 CL1  UNL     1      45.059  13.567  -1.604  1.00  0.00    -0.082 Cl
ENDROOT
BRANCH   5   8
HETATM    8  C13 UNL     1      44.061  16.450  -1.268  1.00  0.00     0.064 A 
HETATM    9  C14 UNL     1      44.722  17.404  -1.972  1.00  0.00     0.081 A 
HETATM   10  C15 UNL     1      43.997  17.774  -3.122  1.00  0.00     0.120 A 
HETATM   11  N3  UNL     1      42.911  17.022  -3.074  1.00  0.00    -0.281 N 
HETATM   12  C22 UNL     1      41.802  17.002  -4.041  1.00  0.00     0.179 C 
HETATM   13  N4  UNL     1      42.918  16.246  -2.015  1.00  0.00    -0.296 N 
ATOM     14  H4  UNL     1      42.180  15.584  -1.777  1.00  0.00     0.187 HD
BRANCH  10  15
HETATM   15  N2  UNL     1      44.344  18.622  -3.961  1.00  0.00    -0.370 N 
ATOM     16  H2  UNL     1      44.279  19.593  -3.656  1.00  0.00     0.161 HD
BRANCH  15  17
HETATM   17  C16 UNL     1      44.818  18.430  -5.291  1.00  0.00     0.083 C 
HETATM   18  C17 UNL     1      45.792  17.285  -5.300  1.00  0.00     0.025 C 
HETATM   19  C18 UNL     1      47.191  17.697  -4.914  1.00  0.00     0.002 C 
HETATM   20  C19 UNL     1      47.647  18.700  -5.961  1.00  0.00     0.000 C 
HETATM   21  C20 UNL     1      46.788  19.927  -5.748  1.00  0.00     0.002 C 
HETATM   22  C21 UNL     1      45.333  19.672  -5.949  1.00  0.00     0.025 C 
ENDBRANCH  15  17
ENDBRANCH  10  15
ENDBRANCH   5   8
BRANCH   3  23
HETATM   23  O1  UNL     1      44.493  16.294   3.551  1.00  0.00    -0.351 OA
BRANCH  23  24
HETATM   24  C7  UNL     1      45.535  16.339   4.495  1.00  0.00     0.175 C 
BRANCH  24  25
HETATM   25  C8  UNL     1      46.462  17.481   4.052  1.00  0.00     0.029 C 
BRANCH  25  26
HETATM   26  C9  UNL     1      47.745  16.934   3.489  1.00  0.00     0.028 C 
BRANCH  26  27
HETATM   27  C10 UNL     1      48.762  16.692   4.565  1.00  0.00     0.164 C 
BRANCH  27  28
HETATM   28  O2  UNL     1      48.858  17.884   5.312  1.00  0.00    -0.401 OA
ATOM     29  H2  UNL     1      48.853  18.600   4.688  1.00  0.00     0.209 HD
ENDBRANCH  27  28
ENDBRANCH  26  27
ENDBRANCH  25  26
ENDBRANCH  24  25
ENDBRANCH  23  24
ENDBRANCH   3  23
BRANCH   1  30
HETATM   30  C3  UNL     1      45.623  12.330   1.064  1.00  0.00     0.061 A 
HETATM   31  N1  UNL     1      46.891  12.035   1.492  1.00  0.00    -0.344 N 
HETATM   32  C2  UNL     1      47.123  10.728   1.455  1.00  0.00     0.077 A 
ATOM     33  H1  UNL     1      47.571  12.732   1.799  1.00  0.00     0.167 HD
HETATM   34  C1  UNL     1      48.395  10.029   1.847  1.00  0.00     0.089 C 
HETATM   35  N5  UNL     1      46.015  10.151   1.005  1.00  0.00    -0.354 N 
HETATM   36  C24 UNL     1      45.083  11.129   0.761  1.00  0.00     0.119 A 
ATOM     37  H5  UNL     1      45.881   9.150   0.864  1.00  0.00     0.166 HD
ENDBRANCH   1  30
TORSDOF 10
ENDMDL
MODEL 5
REMARK VINA RESULT: -7.555963476      3.501      9.220
REMARK  10 active torsions:
REMARK  status: ('A' for Active; 'I' for Inactive)
REMARK    1  A    between atoms: C3_5  and  C4_6 
REMARK    2  A    between atoms: C6_8  and  O1_9 
REMARK    3  A    between atoms: O1_9  and  C7_10 
REMARK    4  A    between atoms: C7_10  and  C8_11 
REMARK    5  A    between atoms: C8_11  and  C9_12 
REMARK    6  A    between atoms: C9_12  and  C10_13 
REMARK    7  A    between atoms: C10_13  and  O2_14 
REMARK    8  A    between atoms: C12_17  and  C13_18 
REMARK    9  A    between atoms: C15_20  and  N2_21 
REMARK   10  A    between atoms: N2_21  and  C16_23 
ROOT
HETATM    1  C4  UNL     1      46.862   9.423   0.798  1.00  0.00     0.017 A 
HETATM    2  C5  UNL     1      46.070   8.814  -0.186  1.00  0.00     0.052 A 
HETATM    3  C6  UNL     1      45.055   9.508  -0.792  1.00  0.00     0.070 A 
HETATM    4  C11 UNL     1      44.795  10.809  -0.453  1.00  0.00     0.052 A 
HETATM    5  C12 UNL     1      45.565  11.444   0.521  1.00  0.00     0.017 A 
HETATM    6  C23 UNL     1      46.571  10.734   1.117  1.00  0.00     0.059 A 
HETATM    7 CL1  UNL     1      47.528  11.427   2.416  1.00  0.00    -0.082 Cl
ENDROOT
BRANCH   5   8
HETATM    8  C13 UNL     1      45.255  12.815   0.891  1.00  0.00     0.064 A 
HETATM    9  C14 UNL     1      45.294  13.489   2.068  1.00  0.00     0.081 A 
HETATM   10  C15 UNL     1      44.936  14.840   1.887  1.00  0.00     0.120 A 
HETATM   11  N3  UNL     1      44.692  14.938   0.591  1.00  0.00    -0.281 N 
HETATM   12  C22 UNL     1      44.277  16.142  -0.145  1.00  0.00     0.179 C 
HETATM   13  N4  UNL     1      44.867  13.785  -0.012  1.00  0.00    -0.296 N 
ATOM     14  H4  UNL     1      44.734  13.627  -1.011  1.00  0.00     0.187 HD
BRANCH  10  15
HETATM   15  N2  UNL     1      44.879  15.706   2.776  1.00  0.00    -0.370 N 
ATOM     16  H2  UNL     1      44.287  16.510   2.567  1.00  0.00     0.161 HD
BRANCH  15  17
HETATM   17  C16 UNL     1      45.523  15.734   4.047  1.00  0.00     0.083 C 
HETATM   18  C17 UNL     1      45.679  17.165   4.481  1.00  0.00     0.025 C 
HETATM   19  C18 UNL     1      46.904  17.828   3.902  1.00  0.00     0.002 C 
HETATM   20  C19 UNL     1      48.101  17.051   4.428  1.00  0.00     0.000 C 
HETATM   21  C20 UNL     1      48.023  15.692   3.769  1.00  0.00     0.002 C 
HETATM   22  C21 UNL     1      46.786  14.935   4.118  1.00  0.00     0.025 C 
ENDBRANCH  15  17
ENDBRANCH  10  15
ENDBRANCH   5   8
BRANCH   3  23
HETATM   23  O1  UNL     1      44.297   8.875  -1.754  1.00  0.00    -0.351 OA
BRANCH  23  24
HETATM   24  C7  UNL     1      42.971   8.452  -1.552  1.00  0.00     0.175 C 
BRANCH  24  25
HETATM   25  C8  UNL     1      42.112   9.260  -2.537  1.00  0.00     0.029 C 
BRANCH  25  26
HETATM   26  C9  UNL     1      40.827   8.537  -2.835  1.00  0.00     0.028 C 
BRANCH  26  27
HETATM   27  C10 UNL     1      39.634   9.424  -2.633  1.00  0.00     0.164 C 
BRANCH  27  28
HETATM   28  O2  UNL     1      38.714   8.697  -1.848  1.00  0.00    -0.401 OA
ATOM     29  H2  UNL     1      38.766   9.051  -0.967  1.00  0.00     0.209 HD
ENDBRANCH  27  28
ENDBRANCH  26  27
ENDBRANCH  25  26
ENDBRANCH  24  25
ENDBRANCH  23  24
ENDBRANCH   3  23
BRANCH   1  30
HETATM   30  C3  UNL     1      47.908   8.628   1.421  1.00  0.00     0.061 A 
HETATM   31  N1  UNL     1      47.595   7.602   2.273  1.00  0.00    -0.344 N 
HETATM   32  C2  UNL     1      48.688   6.984   2.709  1.00  0.00     0.077 A 
ATOM     33  H1  UNL     1      46.644   7.345   2.540  1.00  0.00     0.167 HD
HETATM   34  C1  UNL     1      48.744   5.816   3.654  1.00  0.00     0.089 C 
HETATM   35  N5  UNL     1      49.726   7.594   2.150  1.00  0.00    -0.354 N 
HETATM   36  C24 UNL     1      49.257   8.609   1.352  1.00  0.00     0.119 A 
ATOM     37  H5  UNL     1      50.706   7.350   2.290  1.00  0.00     0.166 HD
ENDBRANCH   1  30
TORSDOF 10
ENDMDL
