MODEL 1
REMARK VINA RESULT: -7.037031003      0.000      0.000
REMARK  10 active torsions:
REMARK  status: ('A' for Active; 'I' for Inactive)
REMARK    1  A    between atoms: C2_2  and  C3_3 
REMARK    2  A    between atoms: C3_3  and  C4_4 
REMARK    3  A    between atoms: C4_4  and  C5_5 
REMARK    4  A    between atoms: C5_5  and  C6_6 
REMARK    5  A    between atoms: C6_6  and  C7_7 
REMARK    6  A    between atoms: C7_7  and  C8_8 
REMARK    7  A    between atoms: C8_8  and  C10_10 
REMARK    8  A    between atoms: C16_19  and  O1_20 
REMARK    9  A    between atoms: C24_31  and  C25_32 
REMARK   10  A    between atoms: C25_32  and  O3_33 
ROOT
HETATM    1  C10 UNL     1      46.644  10.576  -0.630  1.00  0.00     0.012 A 
HETATM    2  C11 UNL     1      47.734  11.151  -1.220  1.00  0.00     0.100 A 
HETATM    3  N1  UNL     1      48.993  10.824  -0.863  1.00  0.00    -0.363 N 
ATOM      4  H1  UNL     1      49.787  11.270  -1.322  1.00  0.00     0.165 HD
HETATM    5  C12 UNL     1      49.198   9.909   0.099  1.00  0.00     0.074 A 
HETATM    6  C13 UNL     1      50.518   9.605   0.433  1.00  0.00     0.095 A 
HETATM    7 CL1  UNL     1      51.848  10.398  -0.380  1.00  0.00    -0.079 Cl
HETATM    8  C14 UNL     1      50.774   8.673   1.415  1.00  0.00     0.106 A 
HETATM    9  C15 UNL     1      49.710   8.083   2.021  1.00  0.00     0.053 A 
HETATM   10  C16 UNL     1      48.368   8.375   1.698  1.00  0.00     0.094 A 
HETATM   11  C17 UNL     1      48.129   9.314   0.710  1.00  0.00     0.077 A 
HETATM   12  C18 UNL     1      46.836   9.634   0.359  1.00  0.00     0.195 A 
HETATM   13  O2  UNL     1      45.827   9.135   0.870  1.00  0.00    -0.287 OA
HETATM   14  C19 UNL     1      50.233   7.117   3.042  1.00  0.00     0.227 A 
HETATM   15  C20 UNL     1      49.604   7.205   4.366  1.00  0.00     0.052 C 
HETATM   16  C21 UNL     1      49.012   5.843   4.590  1.00  0.00     0.033 C 
HETATM   17  C22 UNL     1      49.549   4.944   3.527  1.00  0.00     0.274 C 
HETATM   18  N2  UNL     1      50.096   5.793   2.532  1.00  0.00     0.109 N 
HETATM   19  C23 UNL     1      51.506   5.758   2.291  1.00  0.00     0.317 A 
HETATM   20  C24 UNL     1      51.689   7.141   2.885  1.00  0.00     0.155 A 
HETATM   21  O4  UNL     1      51.965   8.166   1.962  1.00  0.00    -0.331 OA
ENDROOT
BRANCH   1  22
HETATM   22  C8  UNL     1      45.277  10.976  -1.082  1.00  0.00     0.020 C 
HETATM   23  C9  UNL     1      45.105  10.816  -2.547  1.00  0.00     0.015 C 
BRANCH  22  24
HETATM   24  C7  UNL     1      44.837  12.254  -0.518  1.00  0.00     0.009 C 
BRANCH  24  25
HETATM   25  C6  UNL     1      44.846  12.478   0.949  1.00  0.00     0.001 C 
BRANCH  25  26
HETATM   26  C5  UNL     1      45.720  13.542   1.469  1.00  0.00     0.000 C 
BRANCH  26  27
HETATM   27  C4  UNL     1      46.870  12.926   2.280  1.00  0.00     0.000 C 
BRANCH  27  28
HETATM   28  C3  UNL     1      47.149  13.693   3.526  1.00  0.00    -0.000 C 
BRANCH  28  29
HETATM   29  C2  UNL     1      46.725  15.160   3.412  1.00  0.00    -0.005 C 
HETATM   30  C1  UNL     1      47.911  16.003   3.833  1.00  0.00     0.005 C 
ENDBRANCH  28  29
ENDBRANCH  27  28
ENDBRANCH  26  27
ENDBRANCH  25  26
ENDBRANCH  24  25
ENDBRANCH  22  24
ENDBRANCH   1  22
BRANCH  10  31
HETATM   31  O1  UNL     1      47.372   7.730   2.361  1.00  0.00    -0.359 OA
ATOM     32  H1  UNL     1      47.231   6.806   2.197  1.00  0.00     0.217 HD
ENDBRANCH  10  31
BRANCH  20  33
HETATM   33  C25 UNL     1      52.575   7.084   4.080  1.00  0.00     0.207 C 
BRANCH  33  34
HETATM   34  O3  UNL     1      52.771   8.338   4.650  1.00  0.00    -0.398 OA
ATOM     35  H3  UNL     1      53.548   8.769   4.314  1.00  0.00     0.209 HD
ENDBRANCH  33  34
ENDBRANCH  20  33
TORSDOF 10
ENDMDL
MODEL 2
REMARK VINA RESULT: -6.872307799      1.761      2.629
REMARK  10 active torsions:
REMARK  status: ('A' for Active; 'I' for Inactive)
REMARK    1  A    between atoms: C2_2  and  C3_3 
REMARK    2  A    between atoms: C3_3  and  C4_4 
REMARK    3  A    between atoms: C4_4  and  C5_5 
REMARK    4  A    between atoms: C5_5  and  C6_6 
REMARK    5  A    between atoms: C6_6  and  C7_7 
REMARK    6  A    between atoms: C7_7  and  C8_8 
REMARK    7  A    between atoms: C8_8  and  C10_10 
REMARK    8  A    between atoms: C16_19  and  O1_20 
REMARK    9  A    between atoms: C24_31  and  C25_32 
REMARK   10  A    between atoms: C25_32  and  O3_33 
ROOT
HETATM    1  C10 UNL     1      47.189  11.670   1.320  1.00  0.00     0.012 A 
HETATM    2  C11 UNL     1      47.610  11.935   0.048  1.00  0.00     0.100 A 
HETATM    3  N1  UNL     1      48.604  11.233  -0.535  1.00  0.00    -0.363 N 
ATOM      4  H1  UNL     1      48.896  11.454  -1.486  1.00  0.00     0.165 HD
HETATM    5  C12 UNL     1      49.208  10.243   0.143  1.00  0.00     0.074 A 
HETATM    6  C13 UNL     1      50.231   9.546  -0.502  1.00  0.00     0.095 A 
HETATM    7 CL1  UNL     1      50.699   9.962  -2.136  1.00  0.00    -0.079 Cl
HETATM    8  C14 UNL     1      50.878   8.523   0.155  1.00  0.00     0.106 A 
HETATM    9  C15 UNL     1      50.481   8.235   1.424  1.00  0.00     0.053 A 
HETATM   10  C16 UNL     1      49.449   8.926   2.094  1.00  0.00     0.094 A 
HETATM   11  C17 UNL     1      48.810   9.951   1.419  1.00  0.00     0.077 A 
HETATM   12  C18 UNL     1      47.798  10.656   2.031  1.00  0.00     0.195 A 
HETATM   13  O2  UNL     1      47.391  10.444   3.178  1.00  0.00    -0.287 OA
HETATM   14  C19 UNL     1      51.322   7.099   1.927  1.00  0.00     0.227 A 
HETATM   15  C20 UNL     1      51.890   7.289   3.267  1.00  0.00     0.052 C 
HETATM   16  C21 UNL     1      51.336   6.148   4.073  1.00  0.00     0.033 C 
HETATM   17  C22 UNL     1      50.698   5.196   3.117  1.00  0.00     0.274 C 
HETATM   18  N2  UNL     1      50.542   5.906   1.900  1.00  0.00     0.109 N 
HETATM   19  C23 UNL     1      51.273   5.474   0.748  1.00  0.00     0.317 A 
HETATM   20  C24 UNL     1      52.157   6.705   0.791  1.00  0.00     0.155 A 
HETATM   21  O4  UNL     1      51.920   7.657  -0.217  1.00  0.00    -0.331 OA
ENDROOT
BRANCH   1  22
HETATM   22  C8  UNL     1      46.075  12.478   1.901  1.00  0.00     0.020 C 
HETATM   23  C9  UNL     1      44.887  12.510   1.012  1.00  0.00     0.015 C 
BRANCH  22  24
HETATM   24  C7  UNL     1      46.518  13.771   2.429  1.00  0.00     0.009 C 
BRANCH  24  25
HETATM   25  C6  UNL     1      47.194  13.858   3.748  1.00  0.00     0.001 C 
BRANCH  25  26
HETATM   26  C5  UNL     1      47.102  15.135   4.475  1.00  0.00     0.000 C 
BRANCH  26  27
HETATM   27  C4  UNL     1      47.922  16.212   3.752  1.00  0.00     0.000 C 
BRANCH  27  28
HETATM   28  C3  UNL     1      47.089  17.385   3.366  1.00  0.00    -0.000 C 
BRANCH  28  29
HETATM   29  C2  UNL     1      45.598  17.145   3.615  1.00  0.00    -0.005 C 
HETATM   30  C1  UNL     1      44.915  17.123   2.263  1.00  0.00     0.005 C 
ENDBRANCH  28  29
ENDBRANCH  27  28
ENDBRANCH  26  27
ENDBRANCH  25  26
ENDBRANCH  24  25
ENDBRANCH  22  24
ENDBRANCH   1  22
BRANCH  10  31
HETATM   31  O1  UNL     1      49.126   8.562   3.363  1.00  0.00    -0.359 OA
ATOM     32  H1  UNL     1      49.209   9.200   4.062  1.00  0.00     0.217 HD
ENDBRANCH  10  31
BRANCH  20  33
HETATM   33  C25 UNL     1      53.580   6.321   1.001  1.00  0.00     0.207 C 
BRANCH  33  34
HETATM   34  O3  UNL     1      54.402   6.759  -0.032  1.00  0.00    -0.398 OA
ATOM     35  H3  UNL     1      54.228   7.661  -0.272  1.00  0.00     0.209 HD
ENDBRANCH  33  34
ENDBRANCH  20  33
TORSDOF 10
ENDMDL
MODEL 3
REMARK VINA RESULT: -6.813572146      2.415      3.424
REMARK  10 active torsions:
REMARK  status: ('A' for Active; 'I' for Inactive)
REMARK    1  A    between atoms: C2_2  and  C3_3 
REMARK    2  A    between atoms: C3_3  and  C4_4 
REMARK    3  A    between atoms: C4_4  and  C5_5 
REMARK    4  A    between atoms: C5_5  and  C6_6 
REMARK    5  A    between atoms: C6_6  and  C7_7 
REMARK    6  A    between atoms: C7_7  and  C8_8 
REMARK    7  A    between atoms: C8_8  and  C10_10 
REMARK    8  A    between atoms: C16_19  and  O1_20 
REMARK    9  A    between atoms: C24_31  and  C25_32 
REMARK   10  A    between atoms: C25_32  and  O3_33 
ROOT
HETATM    1  C10 UNL     1      48.738   9.150   1.906  1.00  0.00     0.012 A 
HETATM    2  C11 UNL     1      49.649   9.270   0.895  1.00  0.00     0.100 A 
HETATM    3  N1  UNL     1      50.754   8.499   0.835  1.00  0.00    -0.363 N 
ATOM      4  H1  UNL     1      51.416   8.612   0.068  1.00  0.00     0.165 HD
HETATM    5  C12 UNL     1      50.980   7.583   1.791  1.00  0.00     0.074 A 
HETATM    6  C13 UNL     1      52.138   6.810   1.685  1.00  0.00     0.095 A 
HETATM    7 CL1  UNL     1      53.245   7.040   0.351  1.00  0.00    -0.079 Cl
HETATM    8  C14 UNL     1      52.410   5.858   2.643  1.00  0.00     0.106 A 
HETATM    9  C15 UNL     1      51.522   5.714   3.663  1.00  0.00     0.053 A 
HETATM   10  C16 UNL     1      50.346   6.483   3.788  1.00  0.00     0.094 A 
HETATM   11  C17 UNL     1      50.089   7.436   2.817  1.00  0.00     0.077 A 
HETATM   12  C18 UNL     1      48.954   8.213   2.895  1.00  0.00     0.195 A 
HETATM   13  O2  UNL     1      48.110   8.131   3.794  1.00  0.00    -0.287 OA
HETATM   14  C19 UNL     1      52.027   4.631   4.570  1.00  0.00     0.227 A 
HETATM   15  C20 UNL     1      52.019   4.959   6.000  1.00  0.00     0.052 C 
HETATM   16  C21 UNL     1      51.127   3.919   6.618  1.00  0.00     0.033 C 
HETATM   17  C22 UNL     1      50.878   2.875   5.581  1.00  0.00     0.274 C 
HETATM   18  N2  UNL     1      51.262   3.450   4.343  1.00  0.00     0.109 N 
HETATM   19  C23 UNL     1      52.371   2.888   3.634  1.00  0.00     0.317 A 
HETATM   20  C24 UNL     1      53.227   4.107   3.914  1.00  0.00     0.155 A 
HETATM   21  O4  UNL     1      53.466   4.946   2.810  1.00  0.00    -0.331 OA
ENDROOT
BRANCH   1  22
HETATM   22  C8  UNL     1      47.529  10.028   1.905  1.00  0.00     0.020 C 
HETATM   23  C9  UNL     1      46.590   9.682   0.809  1.00  0.00     0.015 C 
BRANCH  22  24
HETATM   24  C7  UNL     1      47.851  11.449   2.051  1.00  0.00     0.009 C 
BRANCH  24  25
HETATM   25  C6  UNL     1      47.163  12.280   3.070  1.00  0.00     0.001 C 
BRANCH  25  26
HETATM   26  C5  UNL     1      46.713  13.621   2.662  1.00  0.00     0.000 C 
BRANCH  26  27
HETATM   27  C4  UNL     1      47.159  14.662   3.700  1.00  0.00     0.000 C 
BRANCH  27  28
HETATM   28  C3  UNL     1      46.537  15.994   3.458  1.00  0.00    -0.000 C 
BRANCH  28  29
HETATM   29  C2  UNL     1      47.570  17.124   3.449  1.00  0.00    -0.005 C 
HETATM   30  C1  UNL     1      48.724  16.684   4.327  1.00  0.00     0.005 C 
ENDBRANCH  28  29
ENDBRANCH  27  28
ENDBRANCH  26  27
ENDBRANCH  25  26
ENDBRANCH  24  25
ENDBRANCH  22  24
ENDBRANCH   1  22
BRANCH  10  31
HETATM   31  O1  UNL     1      49.521   6.264   4.845  1.00  0.00    -0.359 OA
ATOM     32  H1  UNL     1      49.525   6.877   5.570  1.00  0.00     0.217 HD
ENDBRANCH  10  31
BRANCH  20  33
HETATM   33  C25 UNL     1      54.422   3.733   4.719  1.00  0.00     0.207 C 
BRANCH  33  34
HETATM   34  O3  UNL     1      55.595   3.776   3.971  1.00  0.00    -0.398 OA
ATOM     35  H3  UNL     1      56.371   3.740   4.517  1.00  0.00     0.209 HD
ENDBRANCH  33  34
ENDBRANCH  20  33
TORSDOF 10
ENDMDL
MODEL 4
REMARK VINA RESULT: -6.793607764      1.711      2.518
REMARK  10 active torsions:
REMARK  status: ('A' for Active; 'I' for Inactive)
REMARK    1  A    between atoms: C2_2  and  C3_3 
REMARK    2  A    between atoms: C3_3  and  C4_4 
REMARK    3  A    between atoms: C4_4  and  C5_5 
REMARK    4  A    between atoms: C5_5  and  C6_6 
REMARK    5  A    between atoms: C6_6  and  C7_7 
REMARK    6  A    between atoms: C7_7  and  C8_8 
REMARK    7  A    between atoms: C8_8  and  C10_10 
REMARK    8  A    between atoms: C16_19  and  O1_20 
REMARK    9  A    between atoms: C24_31  and  C25_32 
REMARK   10  A    between atoms: C25_32  and  O3_33 
ROOT
HETATM    1  C10 UNL     1      47.569  10.902   1.307  1.00  0.00     0.012 A 
HETATM    2  C11 UNL     1      48.023  11.107   0.035  1.00  0.00     0.100 A 
HETATM    3  N1  UNL     1      49.075  10.426  -0.465  1.00  0.00    -0.363 N 
ATOM      4  H1  UNL     1      49.391  10.600  -1.419  1.00  0.00     0.165 HD
HETATM    5  C12 UNL     1      49.705   9.517   0.298  1.00  0.00     0.074 A 
HETATM    6  C13 UNL     1      50.788   8.839  -0.264  1.00  0.00     0.095 A 
HETATM    7 CL1  UNL     1      51.295   9.173  -1.904  1.00  0.00    -0.079 Cl
HETATM    8  C14 UNL     1      51.464   7.899   0.483  1.00  0.00     0.106 A 
HETATM    9  C15 UNL     1      51.036   7.672   1.754  1.00  0.00     0.053 A 
HETATM   10  C16 UNL     1      49.943   8.346   2.340  1.00  0.00     0.094 A 
HETATM   11  C17 UNL     1      49.276   9.287   1.576  1.00  0.00     0.077 A 
HETATM   12  C18 UNL     1      48.204   9.972   2.104  1.00  0.00     0.195 A 
HETATM   13  O2  UNL     1      47.766   9.813   3.248  1.00  0.00    -0.287 OA
HETATM   14  C19 UNL     1      51.917   6.621   2.361  1.00  0.00     0.227 A 
HETATM   15  C20 UNL     1      52.423   6.929   3.703  1.00  0.00     0.052 C 
HETATM   16  C21 UNL     1      51.901   5.814   4.565  1.00  0.00     0.033 C 
HETATM   17  C22 UNL     1      51.352   4.768   3.654  1.00  0.00     0.274 C 
HETATM   18  N2  UNL     1      51.204   5.387   2.387  1.00  0.00     0.109 N 
HETATM   19  C23 UNL     1      52.001   4.923   1.293  1.00  0.00     0.317 A 
HETATM   20  C24 UNL     1      52.815   6.202   1.283  1.00  0.00     0.155 A 
HETATM   21  O4  UNL     1      52.565   7.071   0.206  1.00  0.00    -0.331 OA
ENDROOT
BRANCH   1  22
HETATM   22  C8  UNL     1      46.392  11.682   1.793  1.00  0.00     0.020 C 
HETATM   23  C9  UNL     1      45.246  11.606   0.853  1.00  0.00     0.015 C 
BRANCH  22  24
HETATM   24  C7  UNL     1      46.747  13.022   2.268  1.00  0.00     0.009 C 
BRANCH  24  25
HETATM   25  C6  UNL     1      47.335  13.215   3.617  1.00  0.00     0.001 C 
BRANCH  25  26
HETATM   26  C5  UNL     1      47.048  14.483   4.308  1.00  0.00     0.000 C 
BRANCH  26  27
HETATM   27  C4  UNL     1      46.412  15.481   3.329  1.00  0.00     0.000 C 
BRANCH  27  28
HETATM   28  C3  UNL     1      47.133  16.785   3.313  1.00  0.00    -0.000 C 
BRANCH  28  29
HETATM   29  C2  UNL     1      48.467  16.719   4.060  1.00  0.00    -0.005 C 
HETATM   30  C1  UNL     1      48.404  17.735   5.182  1.00  0.00     0.005 C 
ENDBRANCH  28  29
ENDBRANCH  27  28
ENDBRANCH  26  27
ENDBRANCH  25  26
ENDBRANCH  24  25
ENDBRANCH  22  24
ENDBRANCH   1  22
BRANCH  10  31
HETATM   31  O1  UNL     1      49.591   8.048   3.618  1.00  0.00    -0.359 OA
ATOM     32  H1  UNL     1      49.886   7.230   4.001  1.00  0.00     0.217 HD
ENDBRANCH  10  31
BRANCH  20  33
HETATM   33  C25 UNL     1      54.247   5.913   1.568  1.00  0.00     0.207 C 
BRANCH  33  34
HETATM   34  O3  UNL     1      55.087   6.361   0.553  1.00  0.00    -0.398 OA
ATOM     35  H3  UNL     1      54.933   7.273   0.335  1.00  0.00     0.209 HD
ENDBRANCH  33  34
ENDBRANCH  20  33
TORSDOF 10
ENDMDL
MODEL 5
REMARK VINA RESULT: -6.773024463      1.426      1.930
REMARK  10 active torsions:
REMARK  status: ('A' for Active; 'I' for Inactive)
REMARK    1  A    between atoms: C2_2  and  C3_3 
REMARK    2  A    between atoms: C3_3  and  C4_4 
REMARK    3  A    between atoms: C4_4  and  C5_5 
REMARK    4  A    between atoms: C5_5  and  C6_6 
REMARK    5  A    between atoms: C6_6  and  C7_7 
REMARK    6  A    between atoms: C7_7  and  C8_8 
REMARK    7  A    between atoms: C8_8  and  C10_10 
REMARK    8  A    between atoms: C16_19  and  O1_20 
REMARK    9  A    between atoms: C24_31  and  C25_32 
REMARK   10  A    between atoms: C25_32  and  O3_33 
ROOT
HETATM    1  C10 UNL     1      47.084  11.701   0.837  1.00  0.00     0.012 A 
HETATM    2  C11 UNL     1      47.933  11.969  -0.199  1.00  0.00     0.100 A 
HETATM    3  N1  UNL     1      49.059  11.255  -0.402  1.00  0.00    -0.363 N 
ATOM      4  H1  UNL     1      49.673  11.478  -1.185  1.00  0.00     0.165 HD
HETATM    5  C12 UNL     1      49.368  10.247   0.430  1.00  0.00     0.074 A 
HETATM    6  C13 UNL     1      50.544   9.537   0.179  1.00  0.00     0.095 A 
HETATM    7 CL1  UNL     1      51.567   9.959  -1.176  1.00  0.00    -0.079 Cl
HETATM    8  C14 UNL     1      50.901   8.496   1.008  1.00  0.00     0.106 A 
HETATM    9  C15 UNL     1      50.076   8.204   2.049  1.00  0.00     0.053 A 
HETATM   10  C16 UNL     1      48.884   8.908   2.320  1.00  0.00     0.094 A 
HETATM   11  C17 UNL     1      48.540   9.951   1.478  1.00  0.00     0.077 A 
HETATM   12  C18 UNL     1      47.386  10.669   1.702  1.00  0.00     0.195 A 
HETATM   13  O2  UNL     1      46.596  10.454   2.627  1.00  0.00    -0.287 OA
HETATM   14  C19 UNL     1      50.667   7.049   2.800  1.00  0.00     0.227 A 
HETATM   15  C20 UNL     1      50.727   7.215   4.257  1.00  0.00     0.052 C 
HETATM   16  C21 UNL     1      49.906   6.078   4.798  1.00  0.00     0.033 C 
HETATM   17  C22 UNL     1      49.636   5.147   3.663  1.00  0.00     0.274 C 
HETATM   18  N2  UNL     1      49.931   5.870   2.481  1.00  0.00     0.109 N 
HETATM   19  C23 UNL     1      51.017   5.435   1.656  1.00  0.00     0.317 A 
HETATM   20  C24 UNL     1      51.846   6.649   2.028  1.00  0.00     0.155 A 
HETATM   21  O4  UNL     1      51.995   7.615   1.016  1.00  0.00    -0.331 OA
ENDROOT
BRANCH   1  22
HETATM   22  C8  UNL     1      45.848  12.524   0.997  1.00  0.00     0.020 C 
HETATM   23  C9  UNL     1      45.192  12.805  -0.304  1.00  0.00     0.015 C 
BRANCH  22  24
HETATM   24  C7  UNL     1      46.035  13.675   1.885  1.00  0.00     0.009 C 
BRANCH  24  25
HETATM   25  C6  UNL     1      45.063  14.796   1.885  1.00  0.00     0.001 C 
BRANCH  25  26
HETATM   26  C5  UNL     1      45.104  15.731   3.022  1.00  0.00     0.000 C 
BRANCH  26  27
HETATM   27  C4  UNL     1      45.696  17.075   2.575  1.00  0.00     0.000 C 
BRANCH  27  28
HETATM   28  C3  UNL     1      46.883  17.461   3.389  1.00  0.00    -0.000 C 
BRANCH  28  29
HETATM   29  C2  UNL     1      47.749  16.255   3.759  1.00  0.00    -0.005 C 
HETATM   30  C1  UNL     1      48.955  16.783   4.510  1.00  0.00     0.005 C 
ENDBRANCH  28  29
ENDBRANCH  27  28
ENDBRANCH  26  27
ENDBRANCH  25  26
ENDBRANCH  24  25
ENDBRANCH  22  24
ENDBRANCH   1  22
BRANCH  10  31
HETATM   31  O1  UNL     1      48.126   8.539   3.386  1.00  0.00    -0.359 OA
ATOM     32  H1  UNL     1      47.196   8.734   3.382  1.00  0.00     0.217 HD
ENDBRANCH  10  31
BRANCH  20  33
HETATM   33  C25 UNL     1      53.096   6.236   2.724  1.00  0.00     0.207 C 
BRANCH  33  34
HETATM   34  O3  UNL     1      54.205   6.283   1.885  1.00  0.00    -0.398 OA
ATOM     35  H3  UNL     1      54.758   5.516   1.976  1.00  0.00     0.209 HD
ENDBRANCH  33  34
ENDBRANCH  20  33
TORSDOF 10
ENDMDL
