MODEL 1
REMARK VINA RESULT: -7.179553259      0.000      0.000
REMARK  9 active torsions:
REMARK  status: ('A' for Active; 'I' for Inactive)
REMARK    1  A    between atoms: C2_2  and  N1_3 
REMARK    2  A    between atoms: N1_3  and  C3_4 
REMARK    3  A    between atoms: N1_3  and  C5_6 
REMARK    4  A    between atoms: C5_6  and  C6_7 
REMARK    5  A    between atoms: C6_7  and  O1_8 
REMARK    6  A    between atoms: O1_8  and  C7_9 
REMARK    7  A    between atoms: C8_10  and  C9_11 
REMARK    8  A    between atoms: C12_18  and  N4_19 
REMARK    9  A    between atoms: C17_31  and  C18_32 
ROOT
HETATM    1  C7  UNL     1      44.694  14.140   0.400  1.00  0.00     0.087 A 
HETATM    2  C8  UNL     1      45.492  13.168   0.947  1.00  0.00     0.010 A 
HETATM    3  C16 UNL     1      46.189  13.491   2.118  1.00  0.00     0.024 A 
HETATM    4  C17 UNL     1      46.103  14.724   2.724  1.00  0.00    -0.027 A 
HETATM    5  C22 UNL     1      45.297  15.699   2.165  1.00  0.00     0.049 A 
HETATM    6 CL1  UNL     1      45.122  17.297   2.856  1.00  0.00    -0.083 Cl
HETATM    7  C23 UNL     1      44.603  15.405   1.015  1.00  0.00    -0.005 A 
HETATM    8  C24 UNL     1      43.722  16.405   0.357  1.00  0.00     0.053 C 
ENDROOT
BRANCH   2   9
HETATM    9  C9  UNL     1      45.678  11.855   0.340  1.00  0.00    -0.007 A 
HETATM   10  C10 UNL     1      44.769  10.841   0.420  1.00  0.00     0.102 A 
HETATM   11  N2  UNL     1      45.058   9.672  -0.174  1.00  0.00    -0.350 N 
HETATM   12  C11 UNL     1      46.193   9.423  -0.852  1.00  0.00     0.135 A 
ATOM     13  H2  UNL     1      44.370   8.922  -0.107  1.00  0.00     0.166 HD
HETATM   14  N3  UNL     1      46.442   8.243  -1.435  1.00  0.00    -0.176 N 
HETATM   15  C14 UNL     1      47.140  10.448  -0.949  1.00  0.00     0.053 A 
HETATM   16  C12 UNL     1      47.578   8.003  -2.115  1.00  0.00     0.679 A 
ATOM     17  H3  UNL     1      45.746   7.501  -1.361  1.00  0.00     0.186 HD
HETATM   18  N5  UNL     1      48.507   8.956  -2.228  1.00  0.00    -0.176 N 
HETATM   19  C13 UNL     1      48.301  10.177  -1.653  1.00  0.00     0.128 A 
ATOM     20  H5  UNL     1      49.368   8.773  -2.743  1.00  0.00     0.186 HD
HETATM   21  N6  UNL     1      49.184  11.097  -1.757  1.00  0.00    -0.384 N 
ATOM     22  H62 UNL     1      50.039  10.898  -2.275  1.00  0.00     0.157 HD
ATOM     23  H61 UNL     1      49.030  12.010  -1.327  1.00  0.00     0.157 HD
HETATM   24  C15 UNL     1      46.875  11.652  -0.352  1.00  0.00     0.032 A 
BRANCH  16  25
HETATM   25  N4  UNL     1      47.771   6.847  -2.660  1.00  0.00    -0.234 N 
ATOM     26  H42 UNL     1      46.990   6.349  -3.088  1.00  0.00     0.174 HD
ATOM     27  H41 UNL     1      48.704   6.434  -2.662  1.00  0.00     0.174 HD
ENDBRANCH  16  25
ENDBRANCH   2   9
BRANCH   1  28
HETATM   28  O1  UNL     1      43.960  13.909  -0.746  1.00  0.00    -0.348 OA
BRANCH  28  29
HETATM   29  C6  UNL     1      44.593  14.106  -2.004  1.00  0.00     0.206 C 
BRANCH  29  30
HETATM   30  C5  UNL     1      43.764  14.708  -3.069  1.00  0.00     0.299 C 
BRANCH  30  31
HETATM   31  N1  UNL     1      43.644  16.131  -2.898  1.00  0.00     0.089 N 
BRANCH  31  32
HETATM   32  C2  UNL     1      42.327  16.595  -3.306  1.00  0.00     0.268 C 
HETATM   33  C1  UNL     1      41.206  16.123  -2.454  1.00  0.00     0.037 C 
ENDBRANCH  31  32
BRANCH  31  34
HETATM   34  C3  UNL     1      44.693  16.942  -3.413  1.00  0.00     0.268 C 
HETATM   35  C4  UNL     1      44.558  18.327  -2.794  1.00  0.00     0.037 C 
ENDBRANCH  31  34
ENDBRANCH  30  31
ENDBRANCH  29  30
ENDBRANCH  28  29
ENDBRANCH   1  28
BRANCH   4  36
HETATM   36  C18 UNL     1      46.851  15.013   3.964  1.00  0.00    -0.022 C 
HETATM   37  C19 UNL     1      47.604  13.757   4.375  1.00  0.00     0.019 C 
HETATM   38  C20 UNL     1      47.846  16.119   3.823  1.00  0.00     0.019 C 
HETATM   39  C21 UNL     1      45.901  15.328   5.120  1.00  0.00     0.019 C 
ENDBRANCH   4  36
TORSDOF 9
ENDMDL
MODEL 2
REMARK VINA RESULT: -7.157889810      1.511      2.557
REMARK  9 active torsions:
REMARK  status: ('A' for Active; 'I' for Inactive)
REMARK    1  A    between atoms: C2_2  and  N1_3 
REMARK    2  A    between atoms: N1_3  and  C3_4 
REMARK    3  A    between atoms: N1_3  and  C5_6 
REMARK    4  A    between atoms: C5_6  and  C6_7 
REMARK    5  A    between atoms: C6_7  and  O1_8 
REMARK    6  A    between atoms: O1_8  and  C7_9 
REMARK    7  A    between atoms: C8_10  and  C9_11 
REMARK    8  A    between atoms: C12_18  and  N4_19 
REMARK    9  A    between atoms: C17_31  and  C18_32 
ROOT
HETATM    1  C7  UNL     1      44.695  14.102   0.380  1.00  0.00     0.087 A 
HETATM    2  C8  UNL     1      45.497  13.157   0.967  1.00  0.00     0.010 A 
HETATM    3  C16 UNL     1      46.181  13.527   2.132  1.00  0.00     0.024 A 
HETATM    4  C17 UNL     1      46.078  14.779   2.695  1.00  0.00    -0.027 A 
HETATM    5  C22 UNL     1      45.268  15.727   2.096  1.00  0.00     0.049 A 
HETATM    6 CL1  UNL     1      45.072  17.346   2.730  1.00  0.00    -0.083 Cl
HETATM    7  C23 UNL     1      44.587  15.387   0.951  1.00  0.00    -0.005 A 
HETATM    8  C24 UNL     1      43.702  16.355   0.251  1.00  0.00     0.053 C 
ENDROOT
BRANCH   2   9
HETATM    9  C9  UNL     1      45.702  11.827   0.407  1.00  0.00    -0.007 A 
HETATM   10  C10 UNL     1      44.815  10.798   0.540  1.00  0.00     0.102 A 
HETATM   11  N2  UNL     1      45.119   9.614  -0.014  1.00  0.00    -0.350 N 
HETATM   12  C11 UNL     1      46.248   9.362  -0.700  1.00  0.00     0.135 A 
ATOM     13  H2  UNL     1      44.447   8.853   0.093  1.00  0.00     0.166 HD
HETATM   14  N3  UNL     1      46.512   8.166  -1.242  1.00  0.00    -0.176 N 
HETATM   15  C14 UNL     1      47.172  10.401  -0.851  1.00  0.00     0.053 A 
HETATM   16  C12 UNL     1      47.643   7.923  -1.932  1.00  0.00     0.679 A 
ATOM     17  H3  UNL     1      45.833   7.413  -1.129  1.00  0.00     0.186 HD
HETATM   18  N5  UNL     1      48.550   8.889  -2.095  1.00  0.00    -0.176 N 
HETATM   19  C13 UNL     1      48.328  10.127  -1.563  1.00  0.00     0.128 A 
ATOM     20  H5  UNL     1      49.406   8.704  -2.617  1.00  0.00     0.186 HD
HETATM   21  N6  UNL     1      49.189  11.060  -1.716  1.00  0.00    -0.384 N 
ATOM     22  H62 UNL     1      50.040  10.858  -2.240  1.00  0.00     0.157 HD
ATOM     23  H61 UNL     1      49.023  11.985  -1.318  1.00  0.00     0.157 HD
HETATM   24  C15 UNL     1      46.892  11.621  -0.296  1.00  0.00     0.032 A 
BRANCH  16  25
HETATM   25  N4  UNL     1      47.851   6.751  -2.435  1.00  0.00    -0.234 N 
ATOM     26  H42 UNL     1      47.473   5.923  -1.974  1.00  0.00     0.174 HD
ATOM     27  H41 UNL     1      48.393   6.655  -3.295  1.00  0.00     0.174 HD
ENDBRANCH  16  25
ENDBRANCH   2   9
BRANCH   1  28
HETATM   28  O1  UNL     1      43.973  13.825  -0.763  1.00  0.00    -0.348 OA
BRANCH  28  29
HETATM   29  C6  UNL     1      44.600  14.033  -2.023  1.00  0.00     0.206 C 
BRANCH  29  30
HETATM   30  C5  UNL     1      44.094  13.220  -3.149  1.00  0.00     0.299 C 
BRANCH  30  31
HETATM   31  N1  UNL     1      44.448  11.834  -2.994  1.00  0.00     0.089 N 
BRANCH  31  32
HETATM   32  C2  UNL     1      45.496  11.457  -3.931  1.00  0.00     0.268 C 
HETATM   33  C1  UNL     1      45.531  10.015  -4.281  1.00  0.00     0.037 C 
ENDBRANCH  31  32
BRANCH  31  34
HETATM   34  C3  UNL     1      43.386  10.889  -2.952  1.00  0.00     0.268 C 
HETATM   35  C4  UNL     1      42.163  11.533  -3.593  1.00  0.00     0.037 C 
ENDBRANCH  31  34
ENDBRANCH  30  31
ENDBRANCH  29  30
ENDBRANCH  28  29
ENDBRANCH   1  28
BRANCH   4  36
HETATM   36  C18 UNL     1      46.812  15.118   3.931  1.00  0.00    -0.022 C 
HETATM   37  C19 UNL     1      47.589  13.890   4.380  1.00  0.00     0.019 C 
HETATM   38  C20 UNL     1      47.784  16.241   3.765  1.00  0.00     0.019 C 
HETATM   39  C21 UNL     1      45.848  15.445   5.072  1.00  0.00     0.019 C 
ENDBRANCH   4  36
TORSDOF 9
ENDMDL
MODEL 3
REMARK VINA RESULT: -7.143294367      0.313      1.200
REMARK  9 active torsions:
REMARK  status: ('A' for Active; 'I' for Inactive)
REMARK    1  A    between atoms: C2_2  and  N1_3 
REMARK    2  A    between atoms: N1_3  and  C3_4 
REMARK    3  A    between atoms: N1_3  and  C5_6 
REMARK    4  A    between atoms: C5_6  and  C6_7 
REMARK    5  A    between atoms: C6_7  and  O1_8 
REMARK    6  A    between atoms: O1_8  and  C7_9 
REMARK    7  A    between atoms: C8_10  and  C9_11 
REMARK    8  A    between atoms: C12_18  and  N4_19 
REMARK    9  A    between atoms: C17_31  and  C18_32 
ROOT
HETATM    1  C7  UNL     1      44.641  14.191   0.388  1.00  0.00     0.087 A 
HETATM    2  C8  UNL     1      45.447  13.214   0.915  1.00  0.00     0.010 A 
HETATM    3  C16 UNL     1      46.166  13.530   2.074  1.00  0.00     0.024 A 
HETATM    4  C17 UNL     1      46.093  14.760   2.689  1.00  0.00    -0.027 A 
HETATM    5  C22 UNL     1      45.279  15.739   2.150  1.00  0.00     0.049 A 
HETATM    6 CL1  UNL     1      45.119  17.334   2.853  1.00  0.00    -0.083 Cl
HETATM    7  C23 UNL     1      44.563  15.453   1.012  1.00  0.00    -0.005 A 
HETATM    8  C24 UNL     1      43.672  16.458   0.375  1.00  0.00     0.053 C 
ENDROOT
BRANCH   2   9
HETATM    9  C9  UNL     1      45.620  11.905   0.297  1.00  0.00    -0.007 A 
HETATM   10  C10 UNL     1      44.817  10.830   0.548  1.00  0.00     0.102 A 
HETATM   11  N2  UNL     1      45.082   9.672  -0.077  1.00  0.00    -0.350 N 
HETATM   12  C11 UNL     1      46.095   9.489  -0.943  1.00  0.00     0.135 A 
ATOM     13  H2  UNL     1      44.475   8.877   0.119  1.00  0.00     0.166 HD
HETATM   14  N3  UNL     1      46.324   8.317  -1.549  1.00  0.00    -0.176 N 
HETATM   15  C14 UNL     1      46.932  10.576  -1.217  1.00  0.00     0.053 A 
HETATM   16  C12 UNL     1      47.337   8.143  -2.419  1.00  0.00     0.679 A 
ATOM     17  H3  UNL     1      45.709   7.529  -1.345  1.00  0.00     0.186 HD
HETATM   18  N5  UNL     1      48.158   9.157  -2.704  1.00  0.00    -0.176 N 
HETATM   19  C13 UNL     1      47.967  10.373  -2.113  1.00  0.00     0.128 A 
ATOM     20  H5  UNL     1      48.926   9.024  -3.362  1.00  0.00     0.186 HD
HETATM   21  N6  UNL     1      48.747  11.351  -2.381  1.00  0.00    -0.384 N 
ATOM     22  H62 UNL     1      49.510  11.201  -3.041  1.00  0.00     0.157 HD
ATOM     23  H61 UNL     1      48.604  12.260  -1.940  1.00  0.00     0.157 HD
HETATM   24  C15 UNL     1      46.688  11.772  -0.594  1.00  0.00     0.032 A 
BRANCH  16  25
HETATM   25  N4  UNL     1      47.516   6.991  -2.978  1.00  0.00    -0.234 N 
ATOM     26  H42 UNL     1      48.462   6.652  -3.156  1.00  0.00     0.174 HD
ATOM     27  H41 UNL     1      46.710   6.422  -3.240  1.00  0.00     0.174 HD
ENDBRANCH  16  25
ENDBRANCH   2   9
BRANCH   1  28
HETATM   28  O1  UNL     1      43.886  13.968  -0.746  1.00  0.00    -0.348 OA
BRANCH  28  29
HETATM   29  C6  UNL     1      44.392  14.425  -1.994  1.00  0.00     0.206 C 
BRANCH  29  30
HETATM   30  C5  UNL     1      43.392  14.680  -3.054  1.00  0.00     0.299 C 
BRANCH  30  31
HETATM   31  N1  UNL     1      43.450  16.042  -3.511  1.00  0.00     0.089 N 
BRANCH  31  32
HETATM   32  C2  UNL     1      44.699  16.672  -3.113  1.00  0.00     0.268 C 
HETATM   33  C1  UNL     1      44.608  18.131  -2.853  1.00  0.00     0.037 C 
ENDBRANCH  31  32
BRANCH  31  34
HETATM   34  C3  UNL     1      42.317  16.864  -3.258  1.00  0.00     0.268 C 
HETATM   35  C4  UNL     1      41.284  16.021  -2.520  1.00  0.00     0.037 C 
ENDBRANCH  31  34
ENDBRANCH  30  31
ENDBRANCH  29  30
ENDBRANCH  28  29
ENDBRANCH   1  28
BRANCH   4  36
HETATM   36  C18 UNL     1      46.864  15.041   3.917  1.00  0.00    -0.022 C 
HETATM   37  C19 UNL     1      47.599  13.773   4.324  1.00  0.00     0.019 C 
HETATM   38  C20 UNL     1      47.876  16.128   3.757  1.00  0.00     0.019 C 
HETATM   39  C21 UNL     1      45.936  15.378   5.085  1.00  0.00     0.019 C 
ENDBRANCH   4  36
TORSDOF 9
ENDMDL
MODEL 4
REMARK VINA RESULT: -7.109111764      3.774      7.783
REMARK  9 active torsions:
REMARK  status: ('A' for Active; 'I' for Inactive)
REMARK    1  A    between atoms: C2_2  and  N1_3 
REMARK    2  A    between atoms: N1_3  and  C3_4 
REMARK    3  A    between atoms: N1_3  and  C5_6 
REMARK    4  A    between atoms: C5_6  and  C6_7 
REMARK    5  A    between atoms: C6_7  and  O1_8 
REMARK    6  A    between atoms: O1_8  and  C7_9 
REMARK    7  A    between atoms: C8_10  and  C9_11 
REMARK    8  A    between atoms: C12_18  and  N4_19 
REMARK    9  A    between atoms: C17_31  and  C18_32 
ROOT
HETATM    1  C7  UNL     1      44.877  12.878  -0.440  1.00  0.00     0.087 A 
HETATM    2  C8  UNL     1      44.463  13.012  -1.741  1.00  0.00     0.010 A 
HETATM    3  C16 UNL     1      44.063  11.850  -2.411  1.00  0.00     0.024 A 
HETATM    4  C17 UNL     1      44.072  10.605  -1.823  1.00  0.00    -0.027 A 
HETATM    5  C22 UNL     1      44.493  10.478  -0.512  1.00  0.00     0.049 A 
HETATM    6 CL1  UNL     1      44.545   8.942   0.325  1.00  0.00    -0.083 Cl
HETATM    7  C23 UNL     1      44.891  11.606   0.167  1.00  0.00    -0.005 A 
HETATM    8  C24 UNL     1      45.359  11.545   1.577  1.00  0.00     0.053 C 
ENDROOT
BRANCH   2   9
HETATM    9  C9  UNL     1      44.472  14.284  -2.453  1.00  0.00    -0.007 A 
HETATM   10  C10 UNL     1      45.576  14.813  -3.057  1.00  0.00     0.102 A 
HETATM   11  N2  UNL     1      45.462  15.998  -3.676  1.00  0.00    -0.350 N 
HETATM   12  C11 UNL     1      44.325  16.714  -3.747  1.00  0.00     0.135 A 
ATOM     13  H2  UNL     1      46.295  16.382  -4.123  1.00  0.00     0.166 HD
HETATM   14  N3  UNL     1      44.252  17.892  -4.379  1.00  0.00    -0.176 N 
HETATM   15  C14 UNL     1      43.180  16.192  -3.137  1.00  0.00     0.053 A 
HETATM   16  C12 UNL     1      43.109  18.601  -4.450  1.00  0.00     0.679 A 
ATOM     17  H3  UNL     1      45.091  18.266  -4.823  1.00  0.00     0.186 HD
HETATM   18  N5  UNL     1      41.996  18.136  -3.878  1.00  0.00    -0.176 N 
HETATM   19  C13 UNL     1      42.017  16.939  -3.222  1.00  0.00     0.128 A 
ATOM     20  H5  UNL     1      41.131  18.673  -3.931  1.00  0.00     0.186 HD
HETATM   21  N6  UNL     1      40.955  16.484  -2.672  1.00  0.00    -0.384 N 
ATOM     22  H62 UNL     1      40.099  17.034  -2.735  1.00  0.00     0.157 HD
ATOM     23  H61 UNL     1      40.971  15.589  -2.182  1.00  0.00     0.157 HD
HETATM   24  C15 UNL     1      43.264  14.985  -2.495  1.00  0.00     0.032 A 
BRANCH  16  25
HETATM   25  N4  UNL     1      43.091  19.734  -5.072  1.00  0.00    -0.234 N 
ATOM     26  H42 UNL     1      43.816  19.951  -5.757  1.00  0.00     0.174 HD
ATOM     27  H41 UNL     1      42.351  20.409  -4.878  1.00  0.00     0.174 HD
ENDBRANCH  16  25
ENDBRANCH   2   9
BRANCH   1  28
HETATM   28  O1  UNL     1      45.279  13.969   0.304  1.00  0.00    -0.348 OA
BRANCH  28  29
HETATM   29  C6  UNL     1      44.277  14.810   0.862  1.00  0.00     0.206 C 
BRANCH  29  30
HETATM   30  C5  UNL     1      44.425  15.145   2.295  1.00  0.00     0.299 C 
BRANCH  30  31
HETATM   31  N1  UNL     1      45.666  15.826   2.548  1.00  0.00     0.089 N 
BRANCH  31  32
HETATM   32  C2  UNL     1      46.389  15.198   3.643  1.00  0.00     0.268 C 
HETATM   33  C1  UNL     1      47.352  14.145   3.234  1.00  0.00     0.037 C 
ENDBRANCH  31  32
BRANCH  31  34
HETATM   34  C3  UNL     1      45.622  17.243   2.662  1.00  0.00     0.268 C 
HETATM   35  C4  UNL     1      46.565  17.649   3.789  1.00  0.00     0.037 C 
ENDBRANCH  31  34
ENDBRANCH  30  31
ENDBRANCH  29  30
ENDBRANCH  28  29
ENDBRANCH   1  28
BRANCH   4  36
HETATM   36  C18 UNL     1      43.630   9.410  -2.570  1.00  0.00    -0.022 C 
HETATM   37  C19 UNL     1      43.009   9.864  -3.881  1.00  0.00     0.019 C 
HETATM   38  C20 UNL     1      44.737   8.459  -2.892  1.00  0.00     0.019 C 
HETATM   39  C21 UNL     1      42.525   8.668  -1.818  1.00  0.00     0.019 C 
ENDBRANCH   4  36
TORSDOF 9
ENDMDL
MODEL 5
REMARK VINA RESULT: -7.045561032      1.489      2.249
REMARK  9 active torsions:
REMARK  status: ('A' for Active; 'I' for Inactive)
REMARK    1  A    between atoms: C2_2  and  N1_3 
REMARK    2  A    between atoms: N1_3  and  C3_4 
REMARK    3  A    between atoms: N1_3  and  C5_6 
REMARK    4  A    between atoms: C5_6  and  C6_7 
REMARK    5  A    between atoms: C6_7  and  O1_8 
REMARK    6  A    between atoms: O1_8  and  C7_9 
REMARK    7  A    between atoms: C8_10  and  C9_11 
REMARK    8  A    between atoms: C12_18  and  N4_19 
REMARK    9  A    between atoms: C17_31  and  C18_32 
ROOT
HETATM    1  C7  UNL     1      44.694  14.142   0.406  1.00  0.00     0.087 A 
HETATM    2  C8  UNL     1      45.493  13.200   1.002  1.00  0.00     0.010 A 
HETATM    3  C16 UNL     1      46.178  13.579   2.163  1.00  0.00     0.024 A 
HETATM    4  C17 UNL     1      46.081  14.837   2.713  1.00  0.00    -0.027 A 
HETATM    5  C22 UNL     1      45.274  15.781   2.105  1.00  0.00     0.049 A 
HETATM    6 CL1  UNL     1      45.084  17.408   2.723  1.00  0.00    -0.083 Cl
HETATM    7  C23 UNL     1      44.591  15.433   0.964  1.00  0.00    -0.005 A 
HETATM    8  C24 UNL     1      43.710  16.397   0.255  1.00  0.00     0.053 C 
ENDROOT
BRANCH   2   9
HETATM    9  C9  UNL     1      45.692  11.863   0.455  1.00  0.00    -0.007 A 
HETATM   10  C10 UNL     1      44.784  10.850   0.565  1.00  0.00     0.102 A 
HETATM   11  N2  UNL     1      45.084   9.658   0.026  1.00  0.00    -0.350 N 
HETATM   12  C11 UNL     1      46.230   9.383  -0.623  1.00  0.00     0.135 A 
ATOM     13  H2  UNL     1      44.397   8.910   0.115  1.00  0.00     0.166 HD
HETATM   14  N3  UNL     1      46.490   8.180  -1.150  1.00  0.00    -0.176 N 
HETATM   15  C14 UNL     1      47.176  10.406  -0.749  1.00  0.00     0.053 A 
HETATM   16  C12 UNL     1      47.638   7.914  -1.802  1.00  0.00     0.679 A 
ATOM     17  H3  UNL     1      45.795   7.440  -1.055  1.00  0.00     0.186 HD
HETATM   18  N5  UNL     1      48.566   8.864  -1.942  1.00  0.00    -0.176 N 
HETATM   19  C13 UNL     1      48.349  10.108  -1.423  1.00  0.00     0.128 A 
ATOM     20  H5  UNL     1      49.435   8.662  -2.435  1.00  0.00     0.186 HD
HETATM   21  N6  UNL     1      49.231  11.026  -1.553  1.00  0.00    -0.384 N 
ATOM     22  H62 UNL     1      50.094  10.807  -2.049  1.00  0.00     0.157 HD
ATOM     23  H61 UNL     1      49.068  11.955  -1.165  1.00  0.00     0.157 HD
HETATM   24  C15 UNL     1      46.899  11.634  -0.209  1.00  0.00     0.032 A 
BRANCH  16  25
HETATM   25  N4  UNL     1      47.842   6.736  -2.294  1.00  0.00    -0.234 N 
ATOM     26  H42 UNL     1      47.621   6.547  -3.272  1.00  0.00     0.174 HD
ATOM     27  H41 UNL     1      48.224   5.997  -1.703  1.00  0.00     0.174 HD
ENDBRANCH  16  25
ENDBRANCH   2   9
BRANCH   1  28
HETATM   28  O1  UNL     1      43.971  13.857  -0.735  1.00  0.00    -0.348 OA
BRANCH  28  29
HETATM   29  C6  UNL     1      44.612  14.008  -1.995  1.00  0.00     0.206 C 
BRANCH  29  30
HETATM   30  C5  UNL     1      44.001  13.287  -3.132  1.00  0.00     0.299 C 
BRANCH  30  31
HETATM   31  N1  UNL     1      44.956  12.429  -3.781  1.00  0.00     0.089 N 
BRANCH  31  32
HETATM   32  C2  UNL     1      44.687  11.031  -3.481  1.00  0.00     0.268 C 
HETATM   33  C1  UNL     1      43.330  10.757  -2.946  1.00  0.00     0.037 C 
ENDBRANCH  31  32
BRANCH  31  34
HETATM   34  C3  UNL     1      46.332  12.764  -3.647  1.00  0.00     0.268 C 
HETATM   35  C4  UNL     1      47.134  11.784  -4.495  1.00  0.00     0.037 C 
ENDBRANCH  31  34
ENDBRANCH  30  31
ENDBRANCH  29  30
ENDBRANCH  28  29
ENDBRANCH   1  28
BRANCH   4  36
HETATM   36  C18 UNL     1      46.816  15.185   3.945  1.00  0.00    -0.022 C 
HETATM   37  C19 UNL     1      47.592  13.960   4.404  1.00  0.00     0.019 C 
HETATM   38  C20 UNL     1      47.789  16.305   3.769  1.00  0.00     0.019 C 
HETATM   39  C21 UNL     1      45.854  15.521   5.085  1.00  0.00     0.019 C 
ENDBRANCH   4  36
TORSDOF 9
ENDMDL
