MODEL 1
REMARK VINA RESULT: -7.653347174      0.000      0.000
REMARK  9 active torsions:
REMARK  status: ('A' for Active; 'I' for Inactive)
REMARK    1  A    between atoms: N1_2  and  C2_4 
REMARK    2  A    between atoms: C5_9  and  N3_10 
REMARK    3  A    between atoms: N3_10  and  C6_12 
REMARK    4  A    between atoms: C8_15  and  O2_16 
REMARK    5  A    between atoms: N4_19  and  S1_20 
REMARK    6  A    between atoms: S1_20  and  C10_22 
REMARK    7  A    between atoms: S1_20  and  O5_26 
REMARK    8  A    between atoms: C10_22  and  O4_23 
REMARK    9  A    between atoms: O5_26  and  N6_27 
ROOT
HETATM    1  O4  UNL     1     -25.608  37.427  -1.285  1.00  0.00    -0.268 OA
HETATM    2  C11 UNL     1     -26.043  37.012  -0.084  1.00  0.00     0.229 C 
HETATM    3  N5  UNL     1     -26.394  36.648   0.937  1.00  0.00    -0.164 NA
ENDROOT
BRANCH   1   4
HETATM    4  C10 UNL     1     -24.295  37.057  -1.777  1.00  0.00     0.339 C 
BRANCH   4   5
HETATM    5  S1  UNL     1     -22.921  38.034  -1.144  1.00  0.00     0.212 S 
HETATM    6  O3  UNL     1     -22.549  36.878   0.115  1.00  0.00    -0.216 OA
BRANCH   5   7
HETATM    7  N4  UNL     1     -22.024  37.895  -2.865  1.00  0.00    -0.064 N 
HETATM    8  C2  UNL     1     -20.878  37.199  -2.849  1.00  0.00     0.694 A 
HETATM    9  N2  UNL     1     -20.196  37.042  -3.973  1.00  0.00    -0.201 N 
HETATM   10  C3  UNL     1     -20.646  37.573  -5.112  1.00  0.00     0.110 A 
ATOM     11  H2  UNL     1     -19.324  36.513  -3.969  1.00  0.00     0.183 HD
HETATM   12  C4  UNL     1     -21.814  38.281  -5.115  1.00  0.00     0.068 A 
HETATM   13  C5  UNL     1     -22.537  38.451  -3.944  1.00  0.00     0.141 A 
BRANCH   8  14
HETATM   14  N1  UNL     1     -20.401  36.676  -1.772  1.00  0.00    -0.229 N 
HETATM   15  C1  UNL     1     -19.221  35.852  -1.800  1.00  0.00     0.165 C 
ATOM     16  H1  UNL     1     -20.868  36.850  -0.882  1.00  0.00     0.177 HD
ENDBRANCH   8  14
BRANCH  13  17
HETATM   17  N3  UNL     1     -23.751  39.175  -3.988  1.00  0.00    -0.339 N 
ATOM     18  H3  UNL     1     -24.436  38.951  -3.266  1.00  0.00     0.167 HD
BRANCH  17  19
HETATM   19  C6  UNL     1     -24.120  40.164  -4.907  1.00  0.00     0.061 A 
HETATM   20  C7  UNL     1     -24.374  41.495  -4.555  1.00  0.00     0.174 A 
HETATM   21  O1  UNL     1     -24.746  42.165  -5.611  1.00  0.00    -0.298 OA
HETATM   22  C8  UNL     1     -24.768  41.396  -6.665  1.00  0.00     0.184 A 
HETATM   23  C9  UNL     1     -24.378  40.127  -6.253  1.00  0.00     0.095 A 
BRANCH  22  24
HETATM   24  O2  UNL     1     -25.109  41.725  -7.987  1.00  0.00    -0.341 OA
ATOM     25  H2  UNL     1     -25.765  41.329  -8.549  1.00  0.00     0.220 HD
ENDBRANCH  22  24
ENDBRANCH  17  19
ENDBRANCH  13  17
ENDBRANCH   5   7
BRANCH   5  26
HETATM   26  O5  UNL     1     -21.673  38.896  -0.619  1.00  0.00    -0.163 OA
BRANCH  26  27
HETATM   27  N6  UNL     1     -21.006  39.126   0.512  1.00  0.00    -0.224 N 
HETATM   28  C12 UNL     1     -19.740  39.465   0.437  1.00  0.00     0.222 C 
HETATM   29  N7  UNL     1     -19.086  39.587  -0.817  1.00  0.00    -0.065 NA
HETATM   30  N8  UNL     1     -18.966  39.725   1.586  1.00  0.00    -0.065 NA
ATOM     31  H6  UNL     1     -21.470  39.040   1.416  1.00  0.00     0.198 HD
ENDBRANCH  26  27
ENDBRANCH   5  26
ENDBRANCH   4   5
ENDBRANCH   1   4
TORSDOF 9
ENDMDL
MODEL 2
REMARK VINA RESULT: -7.244756575      3.195      5.163
REMARK  9 active torsions:
REMARK  status: ('A' for Active; 'I' for Inactive)
REMARK    1  A    between atoms: N1_2  and  C2_4 
REMARK    2  A    between atoms: C5_9  and  N3_10 
REMARK    3  A    between atoms: N3_10  and  C6_12 
REMARK    4  A    between atoms: C8_15  and  O2_16 
REMARK    5  A    between atoms: N4_19  and  S1_20 
REMARK    6  A    between atoms: S1_20  and  C10_22 
REMARK    7  A    between atoms: S1_20  and  O5_26 
REMARK    8  A    between atoms: C10_22  and  O4_23 
REMARK    9  A    between atoms: O5_26  and  N6_27 
ROOT
HETATM    1  O4  UNL     1     -18.893  40.416   0.905  1.00  0.00    -0.268 OA
HETATM    2  C11 UNL     1     -19.230  41.205   1.938  1.00  0.00     0.229 C 
HETATM    3  N5  UNL     1     -19.535  41.876   2.807  1.00  0.00    -0.164 NA
ENDROOT
BRANCH   1   4
HETATM    4  C10 UNL     1     -19.877  40.007  -0.079  1.00  0.00     0.339 C 
BRANCH   4   5
HETATM    5  S1  UNL     1     -19.614  38.386  -0.818  1.00  0.00     0.212 S 
HETATM    6  O3  UNL     1     -18.639  37.824   0.522  1.00  0.00    -0.216 OA
BRANCH   5   7
HETATM    7  N4  UNL     1     -21.533  38.064  -0.806  1.00  0.00    -0.064 N 
HETATM    8  C2  UNL     1     -22.039  37.722   0.387  1.00  0.00     0.694 A 
HETATM    9  N2  UNL     1     -23.338  37.488   0.500  1.00  0.00    -0.201 N 
HETATM   10  C3  UNL     1     -24.134  37.593  -0.565  1.00  0.00     0.110 A 
ATOM     11  H2  UNL     1     -23.731  37.228   1.405  1.00  0.00     0.183 HD
HETATM   12  C4  UNL     1     -23.605  37.940  -1.776  1.00  0.00     0.068 A 
HETATM   13  C5  UNL     1     -22.247  38.187  -1.906  1.00  0.00     0.141 A 
BRANCH   8  14
HETATM   14  N1  UNL     1     -21.307  37.601   1.442  1.00  0.00    -0.229 N 
HETATM   15  C1  UNL     1     -21.488  38.463   2.580  1.00  0.00     0.165 C 
ATOM     16  H1  UNL     1     -20.585  36.880   1.470  1.00  0.00     0.177 HD
ENDBRANCH   8  14
BRANCH  13  17
HETATM   17  N3  UNL     1     -21.737  38.562  -3.170  1.00  0.00    -0.339 N 
ATOM     18  H3  UNL     1     -21.308  39.486  -3.228  1.00  0.00     0.167 HD
BRANCH  17  19
HETATM   19  C6  UNL     1     -21.755  37.812  -4.352  1.00  0.00     0.061 A 
HETATM   20  C7  UNL     1     -20.602  37.319  -4.975  1.00  0.00     0.174 A 
HETATM   21  O1  UNL     1     -20.928  36.706  -6.080  1.00  0.00    -0.298 OA
HETATM   22  C8  UNL     1     -22.219  36.742  -6.266  1.00  0.00     0.184 A 
HETATM   23  C9  UNL     1     -22.769  37.432  -5.193  1.00  0.00     0.095 A 
BRANCH  22  24
HETATM   24  O2  UNL     1     -22.970  36.204  -7.325  1.00  0.00    -0.341 OA
ATOM     25  H2  UNL     1     -23.195  36.602  -8.158  1.00  0.00     0.220 HD
ENDBRANCH  22  24
ENDBRANCH  17  19
ENDBRANCH  13  17
ENDBRANCH   5   7
BRANCH   5  26
HETATM   26  O5  UNL     1     -19.423  36.931  -1.470  1.00  0.00    -0.163 OA
BRANCH  26  27
HETATM   27  N6  UNL     1     -19.404  35.651  -1.100  1.00  0.00    -0.224 N 
HETATM   28  C12 UNL     1     -18.364  34.919  -1.423  1.00  0.00     0.222 C 
HETATM   29  N7  UNL     1     -17.277  35.470  -2.151  1.00  0.00    -0.065 NA
HETATM   30  N8  UNL     1     -18.267  33.559  -1.068  1.00  0.00    -0.065 NA
ATOM     31  H6  UNL     1     -20.182  35.249  -0.577  1.00  0.00     0.198 HD
ENDBRANCH  26  27
ENDBRANCH   5  26
ENDBRANCH   4   5
ENDBRANCH   1   4
TORSDOF 9
ENDMDL
MODEL 3
REMARK VINA RESULT: -7.210134372      2.128      3.629
REMARK  9 active torsions:
REMARK  status: ('A' for Active; 'I' for Inactive)
REMARK    1  A    between atoms: N1_2  and  C2_4 
REMARK    2  A    between atoms: C5_9  and  N3_10 
REMARK    3  A    between atoms: N3_10  and  C6_12 
REMARK    4  A    between atoms: C8_15  and  O2_16 
REMARK    5  A    between atoms: N4_19  and  S1_20 
REMARK    6  A    between atoms: S1_20  and  C10_22 
REMARK    7  A    between atoms: S1_20  and  O5_26 
REMARK    8  A    between atoms: C10_22  and  O4_23 
REMARK    9  A    between atoms: O5_26  and  N6_27 
ROOT
HETATM    1  O4  UNL     1     -21.698  36.608  -4.812  1.00  0.00    -0.268 OA
HETATM    2  C11 UNL     1     -22.772  36.405  -5.592  1.00  0.00     0.229 C 
HETATM    3  N5  UNL     1     -23.695  36.225  -6.237  1.00  0.00    -0.164 NA
ENDROOT
BRANCH   1   4
HETATM    4  C10 UNL     1     -21.750  36.363  -3.383  1.00  0.00     0.339 C 
BRANCH   4   5
HETATM    5  S1  UNL     1     -21.073  37.669  -2.343  1.00  0.00     0.212 S 
HETATM    6  O3  UNL     1     -20.302  38.477  -3.690  1.00  0.00    -0.216 OA
BRANCH   5   7
HETATM    7  N4  UNL     1     -22.873  38.190  -1.819  1.00  0.00    -0.064 N 
HETATM    8  C2  UNL     1     -23.270  37.723  -0.627  1.00  0.00     0.694 A 
HETATM    9  N2  UNL     1     -24.478  38.029  -0.178  1.00  0.00    -0.201 N 
HETATM   10  C3  UNL     1     -25.292  38.793  -0.908  1.00  0.00     0.110 A 
ATOM     11  H2  UNL     1     -24.787  37.678   0.729  1.00  0.00     0.183 HD
HETATM   12  C4  UNL     1     -24.877  39.261  -2.122  1.00  0.00     0.068 A 
HETATM   13  C5  UNL     1     -23.614  38.948  -2.602  1.00  0.00     0.141 A 
BRANCH   8  14
HETATM   14  N1  UNL     1     -22.521  36.975   0.109  1.00  0.00    -0.229 N 
HETATM   15  C1  UNL     1     -22.198  37.341   1.462  1.00  0.00     0.165 C 
ATOM     16  H1  UNL     1     -22.151  36.106  -0.277  1.00  0.00     0.177 HD
ENDBRANCH   8  14
BRANCH  13  17
HETATM   17  N3  UNL     1     -23.210  39.464  -3.855  1.00  0.00    -0.339 N 
ATOM     18  H3  UNL     1     -22.269  39.219  -4.162  1.00  0.00     0.167 HD
BRANCH  17  19
HETATM   19  C6  UNL     1     -23.954  40.272  -4.722  1.00  0.00     0.061 A 
HETATM   20  C7  UNL     1     -24.231  39.934  -6.052  1.00  0.00     0.174 A 
HETATM   21  O1  UNL     1     -24.895  40.901  -6.623  1.00  0.00    -0.298 OA
HETATM   22  C8  UNL     1     -25.096  41.882  -5.786  1.00  0.00     0.184 A 
HETATM   23  C9  UNL     1     -24.515  41.515  -4.578  1.00  0.00     0.095 A 
BRANCH  22  24
HETATM   24  O2  UNL     1     -25.764  43.099  -6.001  1.00  0.00    -0.341 OA
ATOM     25  H2  UNL     1     -26.132  43.697  -5.361  1.00  0.00     0.220 HD
ENDBRANCH  22  24
ENDBRANCH  17  19
ENDBRANCH  13  17
ENDBRANCH   5   7
BRANCH   5  26
HETATM   26  O5  UNL     1     -20.513  38.848  -1.410  1.00  0.00    -0.163 OA
BRANCH  26  27
HETATM   27  N6  UNL     1     -19.430  39.616  -1.290  1.00  0.00    -0.224 N 
HETATM   28  C12 UNL     1     -19.099  40.055  -0.098  1.00  0.00     0.222 C 
HETATM   29  N7  UNL     1     -19.872  39.723   1.046  1.00  0.00    -0.065 NA
HETATM   30  N8  UNL     1     -17.970  40.870   0.112  1.00  0.00    -0.065 NA
ATOM     31  H6  UNL     1     -18.871  39.857  -2.108  1.00  0.00     0.198 HD
ENDBRANCH  26  27
ENDBRANCH   5  26
ENDBRANCH   4   5
ENDBRANCH   1   4
TORSDOF 9
ENDMDL
MODEL 4
REMARK VINA RESULT: -7.189884509      3.263      5.645
REMARK  9 active torsions:
REMARK  status: ('A' for Active; 'I' for Inactive)
REMARK    1  A    between atoms: N1_2  and  C2_4 
REMARK    2  A    between atoms: C5_9  and  N3_10 
REMARK    3  A    between atoms: N3_10  and  C6_12 
REMARK    4  A    between atoms: C8_15  and  O2_16 
REMARK    5  A    between atoms: N4_19  and  S1_20 
REMARK    6  A    between atoms: S1_20  and  C10_22 
REMARK    7  A    between atoms: S1_20  and  O5_26 
REMARK    8  A    between atoms: C10_22  and  O4_23 
REMARK    9  A    between atoms: O5_26  and  N6_27 
ROOT
HETATM    1  O4  UNL     1     -19.117  41.635   1.220  1.00  0.00    -0.268 OA
HETATM    2  C11 UNL     1     -18.792  42.932   1.339  1.00  0.00     0.229 C 
HETATM    3  N5  UNL     1     -18.512  44.034   1.419  1.00  0.00    -0.164 NA
ENDROOT
BRANCH   1   4
HETATM    4  C10 UNL     1     -19.121  40.977  -0.073  1.00  0.00     0.339 C 
BRANCH   4   5
HETATM    5  S1  UNL     1     -18.419  39.319  -0.107  1.00  0.00     0.212 S 
HETATM    6  O3  UNL     1     -17.396  39.617   1.281  1.00  0.00    -0.216 OA
BRANCH   5   7
HETATM    7  N4  UNL     1     -20.191  38.559   0.158  1.00  0.00    -0.064 N 
HETATM    8  C2  UNL     1     -20.502  38.283   1.432  1.00  0.00     0.694 A 
HETATM    9  N2  UNL     1     -21.688  37.769   1.716  1.00  0.00    -0.201 N 
HETATM   10  C3  UNL     1     -22.566  37.527   0.741  1.00  0.00     0.110 A 
ATOM     11  H2  UNL     1     -21.933  37.558   2.684  1.00  0.00     0.183 HD
HETATM   12  C4  UNL     1     -22.237  37.811  -0.554  1.00  0.00     0.068 A 
HETATM   13  C5  UNL     1     -20.998  38.349  -0.863  1.00  0.00     0.141 A 
BRANCH   8  14
HETATM   14  N1  UNL     1     -19.682  38.493   2.405  1.00  0.00    -0.229 N 
HETATM   15  C1  UNL     1     -20.119  39.108   3.631  1.00  0.00     0.165 C 
ATOM     16  H1  UNL     1     -18.705  38.216   2.305  1.00  0.00     0.177 HD
ENDBRANCH   8  14
BRANCH  13  17
HETATM   17  N3  UNL     1     -20.697  38.647  -2.212  1.00  0.00    -0.339 N 
ATOM     18  H3  UNL     1     -19.891  39.251  -2.373  1.00  0.00     0.167 HD
BRANCH  17  19
HETATM   19  C6  UNL     1     -21.379  38.207  -3.353  1.00  0.00     0.061 A 
HETATM   20  C7  UNL     1     -20.839  37.310  -4.283  1.00  0.00     0.174 A 
HETATM   21  O1  UNL     1     -21.683  37.130  -5.261  1.00  0.00    -0.298 OA
HETATM   22  C8  UNL     1     -22.764  37.837  -5.077  1.00  0.00     0.184 A 
HETATM   23  C9  UNL     1     -22.603  38.527  -3.882  1.00  0.00     0.095 A 
BRANCH  22  24
HETATM   24  O2  UNL     1     -23.906  37.926  -5.890  1.00  0.00    -0.341 OA
ATOM     25  H2  UNL     1     -24.536  37.248  -6.108  1.00  0.00     0.220 HD
ENDBRANCH  22  24
ENDBRANCH  17  19
ENDBRANCH  13  17
ENDBRANCH   5   7
BRANCH   5  26
HETATM   26  O5  UNL     1     -17.834  37.824  -0.124  1.00  0.00    -0.163 OA
BRANCH  26  27
HETATM   27  N6  UNL     1     -16.680  37.187   0.067  1.00  0.00    -0.224 N 
HETATM   28  C12 UNL     1     -16.556  36.413   1.120  1.00  0.00     0.222 C 
HETATM   29  N7  UNL     1     -17.624  36.251   2.041  1.00  0.00    -0.065 NA
HETATM   30  N8  UNL     1     -15.369  35.705   1.393  1.00  0.00    -0.065 NA
ATOM     31  H6  UNL     1     -15.908  37.299  -0.590  1.00  0.00     0.198 HD
ENDBRANCH  26  27
ENDBRANCH   5  26
ENDBRANCH   4   5
ENDBRANCH   1   4
TORSDOF 9
ENDMDL
MODEL 5
REMARK VINA RESULT: -7.169669603      2.852      6.204
REMARK  9 active torsions:
REMARK  status: ('A' for Active; 'I' for Inactive)
REMARK    1  A    between atoms: N1_2  and  C2_4 
REMARK    2  A    between atoms: C5_9  and  N3_10 
REMARK    3  A    between atoms: N3_10  and  C6_12 
REMARK    4  A    between atoms: C8_15  and  O2_16 
REMARK    5  A    between atoms: N4_19  and  S1_20 
REMARK    6  A    between atoms: S1_20  and  C10_22 
REMARK    7  A    between atoms: S1_20  and  O5_26 
REMARK    8  A    between atoms: C10_22  and  O4_23 
REMARK    9  A    between atoms: O5_26  and  N6_27 
ROOT
HETATM    1  O4  UNL     1     -23.598  38.042  -3.967  1.00  0.00    -0.268 OA
HETATM    2  C11 UNL     1     -23.255  38.237  -5.250  1.00  0.00     0.229 C 
HETATM    3  N5  UNL     1     -22.947  38.413  -6.334  1.00  0.00    -0.164 NA
ENDROOT
BRANCH   1   4
HETATM    4  C10 UNL     1     -22.731  38.469  -2.885  1.00  0.00     0.339 C 
BRANCH   4   5
HETATM    5  S1  UNL     1     -21.285  37.437  -2.591  1.00  0.00     0.212 S 
HETATM    6  O3  UNL     1     -20.264  38.399  -3.637  1.00  0.00    -0.216 OA
BRANCH   5   7
HETATM    7  N4  UNL     1     -21.369  37.853  -0.692  1.00  0.00    -0.064 N 
HETATM    8  C2  UNL     1     -22.320  37.196  -0.013  1.00  0.00     0.694 A 
HETATM    9  N2  UNL     1     -22.454  37.407   1.288  1.00  0.00    -0.201 N 
HETATM   10  C3  UNL     1     -21.649  38.265   1.916  1.00  0.00     0.110 A 
ATOM     11  H2  UNL     1     -23.174  36.910   1.812  1.00  0.00     0.183 HD
HETATM   12  C4  UNL     1     -20.685  38.930   1.212  1.00  0.00     0.068 A 
HETATM   13  C5  UNL     1     -20.535  38.718  -0.150  1.00  0.00     0.141 A 
BRANCH   8  14
HETATM   14  N1  UNL     1     -23.126  36.364  -0.579  1.00  0.00    -0.229 N 
HETATM   15  C1  UNL     1     -24.545  36.600  -0.607  1.00  0.00     0.165 C 
ATOM     16  H1  UNL     1     -22.750  35.522  -1.015  1.00  0.00     0.177 HD
ENDBRANCH   8  14
BRANCH  13  17
HETATM   17  N3  UNL     1     -19.516  39.410  -0.843  1.00  0.00    -0.339 N 
ATOM     18  H3  UNL     1     -19.311  39.084  -1.788  1.00  0.00     0.167 HD
BRANCH  17  19
HETATM   19  C6  UNL     1     -18.754  40.490  -0.382  1.00  0.00     0.061 A 
HETATM   20  C7  UNL     1     -17.449  40.367   0.107  1.00  0.00     0.174 A 
HETATM   21  O1  UNL     1     -17.018  41.530   0.510  1.00  0.00    -0.298 OA
HETATM   22  C8  UNL     1     -17.931  42.447   0.338  1.00  0.00     0.184 A 
HETATM   23  C9  UNL     1     -19.038  41.822  -0.223  1.00  0.00     0.095 A 
BRANCH  22  24
HETATM   24  O2  UNL     1     -17.868  43.818   0.639  1.00  0.00    -0.341 OA
ATOM     25  H2  UNL     1     -17.420  44.250   1.357  1.00  0.00     0.220 HD
ENDBRANCH  22  24
ENDBRANCH  17  19
ENDBRANCH  13  17
ENDBRANCH   5   7
BRANCH   5  26
HETATM   26  O5  UNL     1     -19.994  36.533  -2.285  1.00  0.00    -0.163 OA
BRANCH  26  27
HETATM   27  N6  UNL     1     -19.607  35.572  -1.448  1.00  0.00    -0.224 N 
HETATM   28  C12 UNL     1     -18.374  35.128  -1.527  1.00  0.00     0.222 C 
HETATM   29  N7  UNL     1     -17.464  35.655  -2.481  1.00  0.00    -0.065 NA
HETATM   30  N8  UNL     1     -17.888  34.115  -0.677  1.00  0.00    -0.065 NA
ATOM     31  H6  UNL     1     -20.255  35.189  -0.760  1.00  0.00     0.198 HD
ENDBRANCH  26  27
ENDBRANCH   5  26
ENDBRANCH   4   5
ENDBRANCH   1   4
TORSDOF 9
ENDMDL
