MODEL 1
REMARK VINA RESULT: -8.683335960      0.000      0.000
REMARK  14 active torsions:
REMARK  status: ('A' for Active; 'I' for Inactive)
REMARK    1  A    between atoms: O1_2  and  C2_3 
REMARK    2  A    between atoms: C4_5  and  C5_6 
REMARK    3  A    between atoms: C5_6  and  O2_7 
REMARK    4  A    between atoms: C5_6  and  N1_9 
REMARK    5  A    between atoms: N1_9  and  C7_11 
REMARK    6  A    between atoms: C7_11  and  C8_12 
REMARK    7  A    between atoms: N2_17  and  C12_18 
REMARK    8  A    between atoms: C12_18  and  C13_19 
REMARK    9  A    between atoms: C17_23  and  O4_24 
REMARK   10  A    between atoms: N4_34  and  C24_35 
REMARK   11  A    between atoms: C24_35  and  C25_36 
REMARK   12  A    between atoms: C25_36  and  O6_37 
REMARK   13  A    between atoms: C27_40  and  O7_41 
REMARK   14  A    between atoms: C29_43  and  O8_44 
ROOT
HETATM    1  C8  UNL     1      19.849  24.483  16.867  1.00  0.00     0.031 A 
HETATM    2  C9  UNL     1      19.788  24.242  18.217  1.00  0.00     0.046 A 
HETATM    3  C10 UNL     1      20.390  25.284  18.891  1.00  0.00     0.068 A 
HETATM    4  C11 UNL     1      20.604  25.547  20.240  1.00  0.00     0.275 A 
HETATM    5  O3  UNL     1      20.208  24.735  21.113  1.00  0.00    -0.266 OA
HETATM    6  N2  UNL     1      21.238  26.683  20.574  1.00  0.00    -0.250 N 
HETATM    7  N3  UNL     1      21.628  27.493  19.604  1.00  0.00    -0.259 N 
ATOM      8  H3  UNL     1      22.107  28.350  19.880  1.00  0.00     0.190 HD
HETATM    9  C22 UNL     1      21.452  27.292  18.303  1.00  0.00     0.288 A 
HETATM   10  O5  UNL     1      21.841  28.094  17.413  1.00  0.00    -0.264 OA
HETATM   11  C23 UNL     1      20.803  26.141  17.889  1.00  0.00     0.121 A 
HETATM   12  N4  UNL     1      20.482  25.668  16.672  1.00  0.00    -0.342 N 
ENDROOT
BRANCH   1  13
HETATM   13  C7  UNL     1      19.337  23.655  15.748  1.00  0.00     0.181 C 
BRANCH  13  14
HETATM   14  N1  UNL     1      17.842  23.519  15.896  1.00  0.00    -0.360 N 
HETATM   15  C6  UNL     1      17.097  24.730  15.771  1.00  0.00     0.152 C 
BRANCH  14  16
HETATM   16  C5  UNL     1      17.360  22.253  16.134  1.00  0.00     0.148 C 
BRANCH  16  17
HETATM   17  C4  UNL     1      16.019  21.746  16.187  1.00  0.00     0.020 A 
HETATM   18  C3  UNL     1      15.173  21.524  15.135  1.00  0.00     0.055 A 
HETATM   19  C2  UNL     1      13.874  21.022  15.308  1.00  0.00     0.105 A 
HETATM   20  C29 UNL     1      13.381  20.725  16.549  1.00  0.00     0.135 A 
HETATM   21  C27 UNL     1      14.226  20.946  17.606  1.00  0.00     0.105 A 
HETATM   22  C26 UNL     1      15.490  21.432  17.466  1.00  0.00     0.055 A 
BRANCH  19  23
HETATM   23  O1  UNL     1      13.058  20.816  14.217  1.00  0.00    -0.353 OA
HETATM   24  C1  UNL     1      13.294  19.859  13.224  1.00  0.00     0.210 C 
ENDBRANCH  19  23
BRANCH  20  25
HETATM   25  O8  UNL     1      12.106  20.236  16.687  1.00  0.00    -0.351 OA
HETATM   26  C30 UNL     1      11.741  18.890  16.713  1.00  0.00     0.210 C 
ENDBRANCH  20  25
BRANCH  21  27
HETATM   27  O7  UNL     1      13.715  20.640  18.881  1.00  0.00    -0.353 OA
HETATM   28  C28 UNL     1      14.119  19.477  19.537  1.00  0.00     0.210 C 
ENDBRANCH  21  27
ENDBRANCH  16  17
BRANCH  16  29
HETATM   29  O2  UNL     1      18.283  21.334  16.355  1.00  0.00    -0.346 OA
ATOM     30  H2  UNL     1      18.982  21.626  16.927  1.00  0.00     0.219 HD
ENDBRANCH  16  29
ENDBRANCH  14  16
ENDBRANCH  13  14
ENDBRANCH   1  13
BRANCH  12  31
HETATM   31  C24 UNL     1      20.750  26.285  15.364  1.00  0.00     0.155 C 
BRANCH  31  32
HETATM   32  C25 UNL     1      19.648  27.282  15.047  1.00  0.00     0.184 C 
BRANCH  32  33
HETATM   33  O6  UNL     1      20.093  28.580  15.111  1.00  0.00    -0.399 OA
ATOM     34  H6  UNL     1      19.523  29.127  15.639  1.00  0.00     0.209 HD
ENDBRANCH  32  33
ENDBRANCH  31  32
ENDBRANCH  12  31
BRANCH   6  35
HETATM   35  C12 UNL     1      21.506  27.047  21.957  1.00  0.00     0.191 C 
BRANCH  35  36
HETATM   36  C13 UNL     1      22.709  26.397  22.509  1.00  0.00    -0.037 A 
HETATM   37  C14 UNL     1      23.544  25.581  21.784  1.00  0.00     0.018 A 
HETATM   38  C15 UNL     1      24.660  24.989  22.335  1.00  0.00    -0.028 A 
HETATM   39  C16 UNL     1      25.515  24.114  21.474  1.00  0.00     0.051 C 
HETATM   40  C17 UNL     1      24.951  25.223  23.659  1.00  0.00     0.080 A 
HETATM   41  C19 UNL     1      24.142  26.035  24.423  1.00  0.00    -0.028 A 
HETATM   42  C20 UNL     1      24.467  26.280  25.853  1.00  0.00     0.051 C 
HETATM   43  C21 UNL     1      23.020  26.617  23.833  1.00  0.00     0.018 A 
BRANCH  40  44
HETATM   44  O4  UNL     1      26.078  24.622  24.205  1.00  0.00    -0.355 OA
HETATM   45  C18 UNL     1      27.363  25.196  24.128  1.00  0.00     0.210 C 
ENDBRANCH  40  44
ENDBRANCH  35  36
ENDBRANCH   6  35
TORSDOF 14
ENDMDL
MODEL 2
REMARK VINA RESULT: -8.561472801      0.876      2.106
REMARK  14 active torsions:
REMARK  status: ('A' for Active; 'I' for Inactive)
REMARK    1  A    between atoms: O1_2  and  C2_3 
REMARK    2  A    between atoms: C4_5  and  C5_6 
REMARK    3  A    between atoms: C5_6  and  O2_7 
REMARK    4  A    between atoms: C5_6  and  N1_9 
REMARK    5  A    between atoms: N1_9  and  C7_11 
REMARK    6  A    between atoms: C7_11  and  C8_12 
REMARK    7  A    between atoms: N2_17  and  C12_18 
REMARK    8  A    between atoms: C12_18  and  C13_19 
REMARK    9  A    between atoms: C17_23  and  O4_24 
REMARK   10  A    between atoms: N4_34  and  C24_35 
REMARK   11  A    between atoms: C24_35  and  C25_36 
REMARK   12  A    between atoms: C25_36  and  O6_37 
REMARK   13  A    between atoms: C27_40  and  O7_41 
REMARK   14  A    between atoms: C29_43  and  O8_44 
ROOT
HETATM    1  C8  UNL     1      19.583  24.179  16.943  1.00  0.00     0.031 A 
HETATM    2  C9  UNL     1      19.635  23.956  18.298  1.00  0.00     0.046 A 
HETATM    3  C10 UNL     1      20.200  25.052  18.915  1.00  0.00     0.068 A 
HETATM    4  C11 UNL     1      20.487  25.354  20.243  1.00  0.00     0.275 A 
HETATM    5  O3  UNL     1      20.215  24.528  21.150  1.00  0.00    -0.266 OA
HETATM    6  N2  UNL     1      21.054  26.540  20.518  1.00  0.00    -0.250 N 
HETATM    7  N3  UNL     1      21.312  27.360  19.514  1.00  0.00    -0.259 N 
ATOM      8  H3  UNL     1      21.742  28.255  19.745  1.00  0.00     0.190 HD
HETATM    9  C22 UNL     1      21.062  27.125  18.231  1.00  0.00     0.288 A 
HETATM   10  O5  UNL     1      21.326  27.939  17.306  1.00  0.00    -0.264 OA
HETATM   11  C23 UNL     1      20.476  25.921  17.876  1.00  0.00     0.121 A 
HETATM   12  N4  UNL     1      20.109  25.404  16.691  1.00  0.00    -0.342 N 
ENDROOT
BRANCH   1  13
HETATM   13  C7  UNL     1      19.060  23.295  15.873  1.00  0.00     0.181 C 
BRANCH  13  14
HETATM   14  N1  UNL     1      17.576  23.118  16.080  1.00  0.00    -0.360 N 
HETATM   15  C6  UNL     1      16.780  24.285  15.872  1.00  0.00     0.152 C 
BRANCH  14  16
HETATM   16  C5  UNL     1      17.152  21.861  16.443  1.00  0.00     0.148 C 
BRANCH  16  17
HETATM   17  C4  UNL     1      15.841  21.350  16.725  1.00  0.00     0.020 A 
HETATM   18  C3  UNL     1      15.346  20.957  17.939  1.00  0.00     0.055 A 
HETATM   19  C2  UNL     1      14.040  20.470  18.096  1.00  0.00     0.105 A 
HETATM   20  C29 UNL     1      13.185  20.360  17.033  1.00  0.00     0.135 A 
HETATM   21  C27 UNL     1      13.677  20.753  15.815  1.00  0.00     0.105 A 
HETATM   22  C26 UNL     1      14.940  21.229  15.636  1.00  0.00     0.055 A 
BRANCH  19  23
HETATM   23  O1  UNL     1      13.587  20.085  19.339  1.00  0.00    -0.353 OA
HETATM   24  C1  UNL     1      13.859  18.846  19.930  1.00  0.00     0.210 C 
ENDBRANCH  19  23
BRANCH  20  25
HETATM   25  O8  UNL     1      11.913  19.879  17.218  1.00  0.00    -0.351 OA
HETATM   26  C30 UNL     1      11.499  18.559  17.035  1.00  0.00     0.210 C 
ENDBRANCH  20  25
BRANCH  21  27
HETATM   27  O7  UNL     1      12.795  20.639  14.726  1.00  0.00    -0.353 OA
HETATM   28  C28 UNL     1      12.221  21.780  14.166  1.00  0.00     0.210 C 
ENDBRANCH  21  27
ENDBRANCH  16  17
BRANCH  16  29
HETATM   29  O2  UNL     1      18.108  20.958  16.557  1.00  0.00    -0.346 OA
ATOM     30  H2  UNL     1      17.979  20.194  16.007  1.00  0.00     0.219 HD
ENDBRANCH  16  29
ENDBRANCH  14  16
ENDBRANCH  13  14
ENDBRANCH   1  13
BRANCH  12  31
HETATM   31  C24 UNL     1      20.237  26.018  15.360  1.00  0.00     0.155 C 
BRANCH  31  32
HETATM   32  C25 UNL     1      21.461  25.448  14.662  1.00  0.00     0.184 C 
BRANCH  32  33
HETATM   33  O6  UNL     1      22.623  25.751  15.329  1.00  0.00    -0.399 OA
ATOM     34  H6  UNL     1      22.919  26.635  15.148  1.00  0.00     0.209 HD
ENDBRANCH  32  33
ENDBRANCH  31  32
ENDBRANCH  12  31
BRANCH   6  35
HETATM   35  C12 UNL     1      21.388  26.946  21.875  1.00  0.00     0.191 C 
BRANCH  35  36
HETATM   36  C13 UNL     1      22.734  26.518  22.297  1.00  0.00    -0.037 A 
HETATM   37  C14 UNL     1      23.737  26.162  21.427  1.00  0.00     0.018 A 
HETATM   38  C15 UNL     1      24.984  25.765  21.859  1.00  0.00    -0.028 A 
HETATM   39  C16 UNL     1      26.018  25.395  20.843  1.00  0.00     0.051 C 
HETATM   40  C17 UNL     1      25.237  25.724  23.210  1.00  0.00     0.080 A 
HETATM   41  C19 UNL     1      24.262  26.072  24.118  1.00  0.00    -0.028 A 
HETATM   42  C20 UNL     1      24.547  26.023  25.576  1.00  0.00     0.051 C 
HETATM   43  C21 UNL     1      23.010  26.468  23.646  1.00  0.00     0.018 A 
BRANCH  40  44
HETATM   44  O4  UNL     1      26.497  25.323  23.636  1.00  0.00    -0.355 OA
HETATM   45  C18 UNL     1      26.822  23.976  23.897  1.00  0.00     0.210 C 
ENDBRANCH  40  44
ENDBRANCH  35  36
ENDBRANCH   6  35
TORSDOF 14
ENDMDL
MODEL 3
REMARK VINA RESULT: -8.543152520      2.610      4.972
REMARK  14 active torsions:
REMARK  status: ('A' for Active; 'I' for Inactive)
REMARK    1  A    between atoms: O1_2  and  C2_3 
REMARK    2  A    between atoms: C4_5  and  C5_6 
REMARK    3  A    between atoms: C5_6  and  O2_7 
REMARK    4  A    between atoms: C5_6  and  N1_9 
REMARK    5  A    between atoms: N1_9  and  C7_11 
REMARK    6  A    between atoms: C7_11  and  C8_12 
REMARK    7  A    between atoms: N2_17  and  C12_18 
REMARK    8  A    between atoms: C12_18  and  C13_19 
REMARK    9  A    between atoms: C17_23  and  O4_24 
REMARK   10  A    between atoms: N4_34  and  C24_35 
REMARK   11  A    between atoms: C24_35  and  C25_36 
REMARK   12  A    between atoms: C25_36  and  O6_37 
REMARK   13  A    between atoms: C27_40  and  O7_41 
REMARK   14  A    between atoms: C29_43  and  O8_44 
ROOT
HETATM    1  C8  UNL     1      16.381  22.287  15.558  1.00  0.00     0.031 A 
HETATM    2  C9  UNL     1      16.624  23.517  14.998  1.00  0.00     0.046 A 
HETATM    3  C10 UNL     1      17.677  24.114  15.659  1.00  0.00     0.068 A 
HETATM    4  C11 UNL     1      18.325  25.336  15.507  1.00  0.00     0.275 A 
HETATM    5  O3  UNL     1      17.956  26.140  14.615  1.00  0.00    -0.266 OA
HETATM    6  N2  UNL     1      19.344  25.624  16.335  1.00  0.00    -0.250 N 
HETATM    7  N3  UNL     1      19.678  24.730  17.251  1.00  0.00    -0.259 N 
ATOM      8  H3  UNL     1      20.455  24.969  17.868  1.00  0.00     0.190 HD
HETATM    9  C22 UNL     1      19.096  23.552  17.441  1.00  0.00     0.288 A 
HETATM   10  O5  UNL     1      19.451  22.732  18.330  1.00  0.00    -0.264 OA
HETATM   11  C23 UNL     1      18.040  23.191  16.622  1.00  0.00     0.121 A 
HETATM   12  N4  UNL     1      17.267  22.093  16.568  1.00  0.00    -0.342 N 
ENDROOT
BRANCH   1  13
HETATM   13  C7  UNL     1      15.355  21.281  15.188  1.00  0.00     0.181 C 
BRANCH  13  14
HETATM   14  N1  UNL     1      13.996  21.824  15.553  1.00  0.00    -0.360 N 
HETATM   15  C6  UNL     1      13.452  22.785  14.647  1.00  0.00     0.152 C 
BRANCH  14  16
HETATM   16  C5  UNL     1      13.430  21.340  16.708  1.00  0.00     0.148 C 
BRANCH  16  17
HETATM   17  C4  UNL     1      12.582  20.207  16.944  1.00  0.00     0.020 A 
HETATM   18  C3  UNL     1      11.945  19.437  16.008  1.00  0.00     0.055 A 
HETATM   19  C2  UNL     1      11.135  18.346  16.358  1.00  0.00     0.105 A 
HETATM   20  C29 UNL     1      10.937  17.993  17.665  1.00  0.00     0.135 A 
HETATM   21  C27 UNL     1      11.573  18.761  18.605  1.00  0.00     0.105 A 
HETATM   22  C26 UNL     1      12.365  19.824  18.293  1.00  0.00     0.055 A 
BRANCH  19  23
HETATM   23  O1  UNL     1      10.513  17.601  15.380  1.00  0.00    -0.353 OA
HETATM   24  C1  UNL     1      11.064  17.333  14.123  1.00  0.00     0.210 C 
ENDBRANCH  19  23
BRANCH  20  25
HETATM   25  O8  UNL     1      10.138  16.920  17.976  1.00  0.00    -0.351 OA
HETATM   26  C30 UNL     1      10.409  15.583  17.688  1.00  0.00     0.210 C 
ENDBRANCH  20  25
BRANCH  21  27
HETATM   27  O7  UNL     1      11.367  18.393  19.947  1.00  0.00    -0.353 OA
HETATM   28  C28 UNL     1      12.433  18.400  20.847  1.00  0.00     0.210 C 
ENDBRANCH  21  27
ENDBRANCH  16  17
BRANCH  16  29
HETATM   29  O2  UNL     1      13.708  22.030  17.800  1.00  0.00    -0.346 OA
ATOM     30  H2  UNL     1      14.596  22.365  17.823  1.00  0.00     0.219 HD
ENDBRANCH  16  29
ENDBRANCH  14  16
ENDBRANCH  13  14
ENDBRANCH   1  13
BRANCH  12  31
HETATM   31  C24 UNL     1      17.338  20.897  17.420  1.00  0.00     0.155 C 
BRANCH  31  32
HETATM   32  C25 UNL     1      16.614  21.170  18.727  1.00  0.00     0.184 C 
BRANCH  32  33
HETATM   33  O6  UNL     1      17.485  21.330  19.777  1.00  0.00    -0.399 OA
ATOM     34  H6  UNL     1      17.032  21.419  20.607  1.00  0.00     0.209 HD
ENDBRANCH  32  33
ENDBRANCH  31  32
ENDBRANCH  12  31
BRANCH   6  35
HETATM   35  C12 UNL     1      20.083  26.873  16.253  1.00  0.00     0.191 C 
BRANCH  35  36
HETATM   36  C13 UNL     1      21.249  26.921  17.154  1.00  0.00    -0.037 A 
HETATM   37  C14 UNL     1      22.546  26.720  16.746  1.00  0.00     0.018 A 
HETATM   38  C15 UNL     1      23.611  26.770  17.619  1.00  0.00    -0.028 A 
HETATM   39  C16 UNL     1      24.992  26.540  17.091  1.00  0.00     0.051 C 
HETATM   40  C17 UNL     1      23.371  27.031  18.948  1.00  0.00     0.080 A 
HETATM   41  C19 UNL     1      22.086  27.239  19.401  1.00  0.00    -0.028 A 
HETATM   42  C20 UNL     1      21.838  27.520  20.839  1.00  0.00     0.051 C 
HETATM   43  C21 UNL     1      21.032  27.180  18.490  1.00  0.00     0.018 A 
BRANCH  40  44
HETATM   44  O4  UNL     1      24.450  27.080  19.820  1.00  0.00    -0.355 OA
HETATM   45  C18 UNL     1      24.917  25.950  20.522  1.00  0.00     0.210 C 
ENDBRANCH  40  44
ENDBRANCH  35  36
ENDBRANCH   6  35
TORSDOF 14
ENDMDL
MODEL 4
REMARK VINA RESULT: -8.533069341      2.557      5.260
REMARK  14 active torsions:
REMARK  status: ('A' for Active; 'I' for Inactive)
REMARK    1  A    between atoms: O1_2  and  C2_3 
REMARK    2  A    between atoms: C4_5  and  C5_6 
REMARK    3  A    between atoms: C5_6  and  O2_7 
REMARK    4  A    between atoms: C5_6  and  N1_9 
REMARK    5  A    between atoms: N1_9  and  C7_11 
REMARK    6  A    between atoms: C7_11  and  C8_12 
REMARK    7  A    between atoms: N2_17  and  C12_18 
REMARK    8  A    between atoms: C12_18  and  C13_19 
REMARK    9  A    between atoms: C17_23  and  O4_24 
REMARK   10  A    between atoms: N4_34  and  C24_35 
REMARK   11  A    between atoms: C24_35  and  C25_36 
REMARK   12  A    between atoms: C25_36  and  O6_37 
REMARK   13  A    between atoms: C27_40  and  O7_41 
REMARK   14  A    between atoms: C29_43  and  O8_44 
ROOT
HETATM    1  C8  UNL     1      16.429  22.283  15.440  1.00  0.00     0.031 A 
HETATM    2  C9  UNL     1      16.679  23.525  14.910  1.00  0.00     0.046 A 
HETATM    3  C10 UNL     1      17.709  24.117  15.610  1.00  0.00     0.068 A 
HETATM    4  C11 UNL     1      18.351  25.346  15.500  1.00  0.00     0.275 A 
HETATM    5  O3  UNL     1      18.002  26.164  14.613  1.00  0.00    -0.266 OA
HETATM    6  N2  UNL     1      19.344  25.625  16.361  1.00  0.00    -0.250 N 
HETATM    7  N3  UNL     1      19.660  24.718  17.269  1.00  0.00    -0.259 N 
ATOM      8  H3  UNL     1      20.417  24.950  17.912  1.00  0.00     0.190 HD
HETATM    9  C22 UNL     1      19.081  23.532  17.421  1.00  0.00     0.288 A 
HETATM   10  O5  UNL     1      19.417  22.698  18.304  1.00  0.00    -0.264 OA
HETATM   11  C23 UNL     1      18.051  23.179  16.566  1.00  0.00     0.121 A 
HETATM   12  N4  UNL     1      17.288  22.077  16.470  1.00  0.00    -0.342 N 
ENDROOT
BRANCH   1  13
HETATM   13  C7  UNL     1      15.422  21.277  15.023  1.00  0.00     0.181 C 
BRANCH  13  14
HETATM   14  N1  UNL     1      14.047  21.823  15.316  1.00  0.00    -0.360 N 
HETATM   15  C6  UNL     1      13.464  22.616  14.281  1.00  0.00     0.152 C 
BRANCH  14  16
HETATM   16  C5  UNL     1      13.506  21.503  16.539  1.00  0.00     0.148 C 
BRANCH  16  17
HETATM   17  C4  UNL     1      12.707  20.387  16.957  1.00  0.00     0.020 A 
HETATM   18  C3  UNL     1      12.484  19.959  18.238  1.00  0.00     0.055 A 
HETATM   19  C2  UNL     1      11.679  18.847  18.529  1.00  0.00     0.105 A 
HETATM   20  C29 UNL     1      11.069  18.127  17.538  1.00  0.00     0.135 A 
HETATM   21  C27 UNL     1      11.290  18.552  16.254  1.00  0.00     0.105 A 
HETATM   22  C26 UNL     1      12.067  19.627  15.945  1.00  0.00     0.055 A 
BRANCH  19  23
HETATM   23  O1  UNL     1      11.484  18.453  19.835  1.00  0.00    -0.353 OA
HETATM   24  C1  UNL     1      12.504  18.343  20.786  1.00  0.00     0.210 C 
ENDBRANCH  19  23
BRANCH  20  25
HETATM   25  O8  UNL     1      10.288  17.043  17.854  1.00  0.00    -0.351 OA
HETATM   26  C30 UNL     1      10.608  15.704  17.624  1.00  0.00     0.210 C 
ENDBRANCH  20  25
BRANCH  21  27
HETATM   27  O7  UNL     1      10.662  17.809  15.239  1.00  0.00    -0.353 OA
HETATM   28  C28 UNL     1      11.153  17.849  13.934  1.00  0.00     0.210 C 
ENDBRANCH  21  27
ENDBRANCH  16  17
BRANCH  16  29
HETATM   29  O2  UNL     1      13.758  22.366  17.507  1.00  0.00    -0.346 OA
ATOM     30  H2  UNL     1      13.267  23.175  17.433  1.00  0.00     0.219 HD
ENDBRANCH  16  29
ENDBRANCH  14  16
ENDBRANCH  13  14
ENDBRANCH   1  13
BRANCH  12  31
HETATM   31  C24 UNL     1      17.345  20.865  17.303  1.00  0.00     0.155 C 
BRANCH  31  32
HETATM   32  C25 UNL     1      16.554  21.098  18.579  1.00  0.00     0.184 C 
BRANCH  32  33
HETATM   33  O6  UNL     1      17.371  21.240  19.674  1.00  0.00    -0.399 OA
ATOM     34  H6  UNL     1      17.112  21.972  20.220  1.00  0.00     0.209 HD
ENDBRANCH  32  33
ENDBRANCH  31  32
ENDBRANCH  12  31
BRANCH   6  35
HETATM   35  C12 UNL     1      20.077  26.881  16.323  1.00  0.00     0.191 C 
BRANCH  35  36
HETATM   36  C13 UNL     1      21.209  26.925  17.265  1.00  0.00    -0.037 A 
HETATM   37  C14 UNL     1      22.519  26.719  16.905  1.00  0.00     0.018 A 
HETATM   38  C15 UNL     1      23.552  26.766  17.815  1.00  0.00    -0.028 A 
HETATM   39  C16 UNL     1      24.950  26.531  17.337  1.00  0.00     0.051 C 
HETATM   40  C17 UNL     1      23.265  27.027  19.135  1.00  0.00     0.080 A 
HETATM   41  C19 UNL     1      21.965  27.240  19.541  1.00  0.00    -0.028 A 
HETATM   42  C20 UNL     1      21.667  27.522  20.969  1.00  0.00     0.051 C 
HETATM   43  C21 UNL     1      20.944  27.185  18.592  1.00  0.00     0.018 A 
BRANCH  40  44
HETATM   44  O4  UNL     1      24.312  27.072  20.045  1.00  0.00    -0.355 OA
HETATM   45  C18 UNL     1      24.744  25.943  20.770  1.00  0.00     0.210 C 
ENDBRANCH  40  44
ENDBRANCH  35  36
ENDBRANCH   6  35
TORSDOF 14
ENDMDL
MODEL 5
REMARK VINA RESULT: -8.506416458      2.977      4.594
REMARK  14 active torsions:
REMARK  status: ('A' for Active; 'I' for Inactive)
REMARK    1  A    between atoms: O1_2  and  C2_3 
REMARK    2  A    between atoms: C4_5  and  C5_6 
REMARK    3  A    between atoms: C5_6  and  O2_7 
REMARK    4  A    between atoms: C5_6  and  N1_9 
REMARK    5  A    between atoms: N1_9  and  C7_11 
REMARK    6  A    between atoms: C7_11  and  C8_12 
REMARK    7  A    between atoms: N2_17  and  C12_18 
REMARK    8  A    between atoms: C12_18  and  C13_19 
REMARK    9  A    between atoms: C17_23  and  O4_24 
REMARK   10  A    between atoms: N4_34  and  C24_35 
REMARK   11  A    between atoms: C24_35  and  C25_36 
REMARK   12  A    between atoms: C25_36  and  O6_37 
REMARK   13  A    between atoms: C27_40  and  O7_41 
REMARK   14  A    between atoms: C29_43  and  O8_44 
ROOT
HETATM    1  C8  UNL     1      18.179  22.615  17.422  1.00  0.00     0.031 A 
HETATM    2  C9  UNL     1      18.845  23.545  16.662  1.00  0.00     0.046 A 
HETATM    3  C10 UNL     1      19.467  24.449  17.497  1.00  0.00     0.068 A 
HETATM    4  C11 UNL     1      20.259  25.570  17.265  1.00  0.00     0.275 A 
HETATM    5  O3  UNL     1      20.526  25.922  16.089  1.00  0.00    -0.266 OA
HETATM    6  N2  UNL     1      20.722  26.253  18.325  1.00  0.00    -0.250 N 
HETATM    7  N3  UNL     1      20.402  25.825  19.535  1.00  0.00    -0.259 N 
ATOM      8  H3  UNL     1      20.765  26.358  20.325  1.00  0.00     0.190 HD
HETATM    9  C22 UNL     1      19.651  24.766  19.815  1.00  0.00     0.288 A 
HETATM   10  O5  UNL     1      19.372  24.397  20.987  1.00  0.00    -0.264 OA
HETATM   11  C23 UNL     1      19.142  24.016  18.769  1.00  0.00     0.121 A 
HETATM   12  N4  UNL     1      18.370  22.916  18.731  1.00  0.00    -0.342 N 
ENDROOT
BRANCH   1  13
HETATM   13  C7  UNL     1      17.372  21.453  16.976  1.00  0.00     0.181 C 
BRANCH  13  14
HETATM   14  N1  UNL     1      16.132  21.964  16.287  1.00  0.00    -0.360 N 
HETATM   15  C6  UNL     1      16.312  22.411  14.943  1.00  0.00     0.152 C 
BRANCH  14  16
HETATM   16  C5  UNL     1      14.970  21.947  17.021  1.00  0.00     0.148 C 
BRANCH  16  17
HETATM   17  C4  UNL     1      13.804  21.116  16.927  1.00  0.00     0.020 A 
HETATM   18  C3  UNL     1      13.066  20.845  15.806  1.00  0.00     0.055 A 
HETATM   19  C2  UNL     1      11.937  20.012  15.834  1.00  0.00     0.105 A 
HETATM   20  C29 UNL     1      11.511  19.422  16.993  1.00  0.00     0.135 A 
HETATM   21  C27 UNL     1      12.247  19.691  18.117  1.00  0.00     0.105 A 
HETATM   22  C26 UNL     1      13.346  20.495  18.118  1.00  0.00     0.055 A 
BRANCH  19  23
HETATM   23  O1  UNL     1      11.224  19.769  14.679  1.00  0.00    -0.353 OA
HETATM   24  C1  UNL     1      11.764  19.186  13.527  1.00  0.00     0.210 C 
ENDBRANCH  19  23
BRANCH  20  25
HETATM   25  O8  UNL     1      10.402  18.613  16.988  1.00  0.00    -0.351 OA
HETATM   26  C30 UNL     1      10.402  17.220  16.910  1.00  0.00     0.210 C 
ENDBRANCH  20  25
BRANCH  21  27
HETATM   27  O7  UNL     1      11.806  19.084  19.306  1.00  0.00    -0.353 OA
HETATM   28  C28 UNL     1      12.726  18.711  20.286  1.00  0.00     0.210 C 
ENDBRANCH  21  27
ENDBRANCH  16  17
BRANCH  16  29
HETATM   29  O2  UNL     1      14.901  22.848  17.984  1.00  0.00    -0.346 OA
ATOM     30  H2  UNL     1      15.235  23.701  17.733  1.00  0.00     0.219 HD
ENDBRANCH  16  29
ENDBRANCH  14  16
ENDBRANCH  13  14
ENDBRANCH   1  13
BRANCH  12  31
HETATM   31  C24 UNL     1      17.820  22.161  19.868  1.00  0.00     0.155 C 
BRANCH  31  32
HETATM   32  C25 UNL     1      18.884  21.218  20.403  1.00  0.00     0.184 C 
BRANCH  32  33
HETATM   33  O6  UNL     1      19.083  21.378  21.753  1.00  0.00    -0.399 OA
ATOM     34  H6  UNL     1      19.579  20.661  22.128  1.00  0.00     0.209 HD
ENDBRANCH  32  33
ENDBRANCH  31  32
ENDBRANCH  12  31
BRANCH   6  35
HETATM   35  C12 UNL     1      21.558  27.435  18.184  1.00  0.00     0.191 C 
BRANCH  35  36
HETATM   36  C13 UNL     1      22.971  27.119  17.906  1.00  0.00    -0.037 A 
HETATM   37  C14 UNL     1      23.712  26.210  18.622  1.00  0.00     0.018 A 
HETATM   38  C15 UNL     1      25.033  25.943  18.333  1.00  0.00    -0.028 A 
HETATM   39  C16 UNL     1      25.767  24.937  19.163  1.00  0.00     0.051 C 
HETATM   40  C17 UNL     1      25.634  26.608  17.290  1.00  0.00     0.080 A 
HETATM   41  C19 UNL     1      24.928  27.528  16.545  1.00  0.00    -0.028 A 
HETATM   42  C20 UNL     1      25.588  28.241  15.420  1.00  0.00     0.051 C 
HETATM   43  C21 UNL     1      23.593  27.775  16.865  1.00  0.00     0.018 A 
BRANCH  40  44
HETATM   44  O4  UNL     1      26.965  26.332  17.006  1.00  0.00    -0.355 OA
HETATM   45  C18 UNL     1      28.034  27.029  17.605  1.00  0.00     0.210 C 
ENDBRANCH  40  44
ENDBRANCH  35  36
ENDBRANCH   6  35
TORSDOF 14
ENDMDL
