MODEL 1
REMARK VINA RESULT: -9.037049551      0.000      0.000
REMARK  12 active torsions:
REMARK  status: ('A' for Active; 'I' for Inactive)
REMARK    1  A    between atoms: O1_2  and  C2_3 
REMARK    2  A    between atoms: C5_6  and  N1_7 
REMARK    3  A    between atoms: C6_9  and  C7_10 
REMARK    4  A    between atoms: C7_10  and  N2_11 
REMARK    5  A    between atoms: N2_11  and  C8_12 
REMARK    6  A    between atoms: N5_21  and  C13_22 
REMARK    7  A    between atoms: C13_22  and  C14_23 
REMARK    8  A    between atoms: C24_37  and  O2_38 
REMARK    9  A    between atoms: O2_38  and  C25_39 
REMARK   10  A    between atoms: C25_39  and  C26_40 
REMARK   11  A    between atoms: C26_40  and  C27_41 
REMARK   12  A    between atoms: C27_41  and  N8_42 
ROOT
HETATM    1  C2  UNL     1      19.799  26.049  16.901  1.00  0.00     0.102 A 
HETATM    2  C3  UNL     1      19.801  25.205  17.974  1.00  0.00     0.057 A 
HETATM    3  C4  UNL     1      20.420  25.538  19.163  1.00  0.00     0.037 A 
HETATM    4  C5  UNL     1      20.409  24.678  20.257  1.00  0.00     0.118 A 
HETATM    5  N6  UNL     1      21.062  25.170  21.371  1.00  0.00    -0.338 N 
ATOM      6  H6  UNL     1      21.089  24.588  22.208  1.00  0.00     0.168 HD
HETATM    7  C21 UNL     1      21.652  26.346  21.413  1.00  0.00     0.182 A 
HETATM    8  N7  UNL     1      21.666  27.175  20.367  1.00  0.00    -0.351 N 
ATOM      9  H7  UNL     1      22.126  28.084  20.415  1.00  0.00     0.166 HD
HETATM   10  C22 UNL     1      21.048  26.761  19.249  1.00  0.00     0.050 A 
HETATM   11  C23 UNL     1      21.057  27.639  18.162  1.00  0.00     0.070 A 
HETATM   12  C24 UNL     1      20.436  27.307  16.972  1.00  0.00     0.104 A 
ENDROOT
BRANCH   4  13
HETATM   13  N1  UNL     1      19.909  23.571  20.262  1.00  0.00    -0.349 N 
HETATM   14  C6  UNL     1      19.659  22.339  20.742  1.00  0.00     0.121 C 
ATOM     15  H1  UNL     1      19.358  23.581  19.404  1.00  0.00     0.167 HD
BRANCH  14  16
HETATM   16  C7  UNL     1      18.569  21.538  19.989  1.00  0.00     0.202 C 
BRANCH  16  17
HETATM   17  N2  UNL     1      17.585  22.196  19.403  1.00  0.00    -0.398 NA
BRANCH  17  18
HETATM   18  C8  UNL     1      16.691  22.794  18.875  1.00  0.00     0.189 A 
HETATM   19  N3  UNL     1      16.456  24.148  19.053  1.00  0.00    -0.327 N 
HETATM   20  C9  UNL     1      15.422  24.696  18.426  1.00  0.00     0.183 A 
ATOM     21  H3  UNL     1      17.063  24.710  19.650  1.00  0.00     0.169 HD
HETATM   22  N4  UNL     1      14.584  23.988  17.620  1.00  0.00    -0.355 N 
HETATM   23  C10 UNL     1      14.768  22.678  17.418  1.00  0.00     0.024 A 
ATOM     24  H4  UNL     1      13.805  24.462  17.164  1.00  0.00     0.166 HD
HETATM   25  C11 UNL     1      15.820  22.058  18.038  1.00  0.00     0.051 A 
HETATM   26  C20 UNL     1      13.851  21.866  16.561  1.00  0.00     0.088 C 
HETATM   27  C12 UNL     1      16.069  20.620  17.856  1.00  0.00     0.318 C 
HETATM   28  N5  UNL     1      14.807  19.923  17.784  1.00  0.00     0.093 N 
HETATM   29  C19 UNL     1      14.155  20.405  16.571  1.00  0.00     0.279 C 
BRANCH  28  30
HETATM   30  C13 UNL     1      13.936  20.127  18.893  1.00  0.00     0.277 C 
BRANCH  30  31
HETATM   31  C14 UNL     1      14.079  19.000  19.936  1.00  0.00     0.014 C 
HETATM   32  C15 UNL     1      12.856  18.998  20.833  1.00  0.00     0.006 C 
HETATM   33  C16 UNL     1      11.777  18.561  19.836  1.00  0.00     0.000 C 
HETATM   34  C17 UNL     1      12.470  17.686  18.811  1.00  0.00     0.000 C 
HETATM   35  C18 UNL     1      13.937  17.698  19.182  1.00  0.00     0.006 C 
ENDBRANCH  30  31
ENDBRANCH  28  30
ENDBRANCH  17  18
ENDBRANCH  16  17
ENDBRANCH  14  16
ENDBRANCH   4  13
BRANCH   1  36
HETATM   36  O1  UNL     1      19.155  25.652  15.721  1.00  0.00    -0.353 OA
HETATM   37  C1  UNL     1      17.745  25.587  15.688  1.00  0.00     0.210 C 
ENDBRANCH   1  36
BRANCH  12  38
HETATM   38  O2  UNL     1      20.363  28.046  15.854  1.00  0.00    -0.348 OA
BRANCH  38  39
HETATM   39  C25 UNL     1      21.214  28.247  14.798  1.00  0.00     0.177 C 
BRANCH  39  40
HETATM   40  C26 UNL     1      22.571  27.689  15.008  1.00  0.00     0.057 C 
BRANCH  40  41
HETATM   41  C27 UNL     1      23.596  28.581  15.622  1.00  0.00     0.274 C 
BRANCH  41  42
HETATM   42  N8  UNL     1      24.447  28.054  16.616  1.00  0.00     0.092 N 
HETATM   43  C28 UNL     1      24.244  26.718  17.030  1.00  0.00     0.298 C 
HETATM   44  C29 UNL     1      25.554  25.909  17.014  1.00  0.00     0.198 C 
HETATM   45  O3  UNL     1      26.180  26.022  15.794  1.00  0.00    -0.388 OA
HETATM   46  C30 UNL     1      26.390  27.328  15.403  1.00  0.00     0.198 C 
HETATM   47  C31 UNL     1      25.847  28.325  16.388  1.00  0.00     0.298 C 
ENDBRANCH  41  42
ENDBRANCH  40  41
ENDBRANCH  39  40
ENDBRANCH  38  39
ENDBRANCH  12  38
TORSDOF 12
ENDMDL
MODEL 2
REMARK VINA RESULT: -8.973166133      2.959      9.726
REMARK  12 active torsions:
REMARK  status: ('A' for Active; 'I' for Inactive)
REMARK    1  A    between atoms: O1_2  and  C2_3 
REMARK    2  A    between atoms: C5_6  and  N1_7 
REMARK    3  A    between atoms: C6_9  and  C7_10 
REMARK    4  A    between atoms: C7_10  and  N2_11 
REMARK    5  A    between atoms: N2_11  and  C8_12 
REMARK    6  A    between atoms: N5_21  and  C13_22 
REMARK    7  A    between atoms: C13_22  and  C14_23 
REMARK    8  A    between atoms: C24_37  and  O2_38 
REMARK    9  A    between atoms: O2_38  and  C25_39 
REMARK   10  A    between atoms: C25_39  and  C26_40 
REMARK   11  A    between atoms: C26_40  and  C27_41 
REMARK   12  A    between atoms: C27_41  and  N8_42 
ROOT
HETATM    1  C2  UNL     1      15.313  22.170  14.815  1.00  0.00     0.102 A 
HETATM    2  C3  UNL     1      16.200  23.182  15.053  1.00  0.00     0.057 A 
HETATM    3  C4  UNL     1      16.162  23.925  16.215  1.00  0.00     0.037 A 
HETATM    4  C5  UNL     1      17.074  24.948  16.458  1.00  0.00     0.118 A 
HETATM    5  N6  UNL     1      16.905  25.582  17.674  1.00  0.00    -0.338 N 
ATOM      6  H6  UNL     1      17.544  26.340  17.914  1.00  0.00     0.168 HD
HETATM    7  C21 UNL     1      15.966  25.263  18.541  1.00  0.00     0.182 A 
HETATM    8  N7  UNL     1      15.087  24.284  18.313  1.00  0.00    -0.351 N 
ATOM      9  H7  UNL     1      14.366  24.048  18.995  1.00  0.00     0.166 HD
HETATM   10  C22 UNL     1      15.195  23.624  17.150  1.00  0.00     0.050 A 
HETATM   11  C23 UNL     1      14.278  22.592  16.924  1.00  0.00     0.070 A 
HETATM   12  C24 UNL     1      14.317  21.846  15.761  1.00  0.00     0.104 A 
ENDROOT
BRANCH   4  13
HETATM   13  N1  UNL     1      17.938  25.302  15.681  1.00  0.00    -0.349 N 
HETATM   14  C6  UNL     1      18.659  25.261  14.546  1.00  0.00     0.121 C 
ATOM     15  H1  UNL     1      18.362  26.087  16.176  1.00  0.00     0.167 HD
BRANCH  14  16
HETATM   16  C7  UNL     1      19.645  26.437  14.340  1.00  0.00     0.202 C 
BRANCH  16  17
HETATM   17  N2  UNL     1      20.745  26.482  15.069  1.00  0.00    -0.398 NA
BRANCH  17  18
HETATM   18  C8  UNL     1      21.744  26.520  15.728  1.00  0.00     0.189 A 
HETATM   19  N3  UNL     1      23.015  26.303  15.219  1.00  0.00    -0.327 N 
HETATM   20  C9  UNL     1      24.046  26.355  16.053  1.00  0.00     0.183 A 
ATOM     21  H3  UNL     1      23.154  26.106  14.228  1.00  0.00     0.169 HD
HETATM   22  N4  UNL     1      23.910  26.612  17.383  1.00  0.00    -0.355 N 
HETATM   23  C10 UNL     1      22.706  26.828  17.923  1.00  0.00     0.024 A 
ATOM     24  H4  UNL     1      24.739  26.639  17.977  1.00  0.00     0.166 HD
HETATM   25  C11 UNL     1      21.604  26.787  17.111  1.00  0.00     0.051 A 
HETATM   26  C20 UNL     1      22.520  27.085  19.383  1.00  0.00     0.088 C 
HETATM   27  C12 UNL     1      20.254  27.012  17.648  1.00  0.00     0.318 C 
HETATM   28  N5  UNL     1      20.160  26.422  18.963  1.00  0.00     0.093 N 
HETATM   29  C19 UNL     1      21.090  27.170  19.802  1.00  0.00     0.279 C 
BRANCH  28  30
HETATM   30  C13 UNL     1      20.483  25.036  19.031  1.00  0.00     0.277 C 
BRANCH  30  31
HETATM   31  C14 UNL     1      20.391  24.508  20.477  1.00  0.00     0.014 C 
HETATM   32  C15 UNL     1      18.932  24.427  20.882  1.00  0.00     0.006 C 
HETATM   33  C16 UNL     1      18.445  23.307  19.956  1.00  0.00     0.000 C 
HETATM   34  C17 UNL     1      19.638  22.404  19.714  1.00  0.00     0.000 C 
HETATM   35  C18 UNL     1      20.801  23.055  20.430  1.00  0.00     0.006 C 
ENDBRANCH  30  31
ENDBRANCH  28  30
ENDBRANCH  17  18
ENDBRANCH  16  17
ENDBRANCH  14  16
ENDBRANCH   4  13
BRANCH   1  36
HETATM   36  O1  UNL     1      15.403  21.453  13.613  1.00  0.00    -0.353 OA
HETATM   37  C1  UNL     1      14.715  21.921  12.472  1.00  0.00     0.210 C 
ENDBRANCH   1  36
BRANCH  12  38
HETATM   38  O2  UNL     1      13.509  20.833  15.413  1.00  0.00    -0.348 OA
BRANCH  38  39
HETATM   39  C25 UNL     1      12.148  20.699  15.323  1.00  0.00     0.177 C 
BRANCH  39  40
HETATM   40  C26 UNL     1      11.588  19.669  16.230  1.00  0.00     0.057 C 
BRANCH  40  41
HETATM   41  C27 UNL     1      11.930  19.766  17.679  1.00  0.00     0.274 C 
BRANCH  41  42
HETATM   42  N8  UNL     1      12.745  18.768  18.252  1.00  0.00     0.092 N 
HETATM   43  C28 UNL     1      14.004  19.148  18.768  1.00  0.00     0.298 C 
HETATM   44  C29 UNL     1      14.220  18.617  20.198  1.00  0.00     0.198 C 
HETATM   45  O3  UNL     1      13.163  18.961  21.008  1.00  0.00    -0.388 OA
HETATM   46  C30 UNL     1      11.938  18.572  20.508  1.00  0.00     0.198 C 
HETATM   47  C31 UNL     1      12.044  17.898  19.168  1.00  0.00     0.298 C 
ENDBRANCH  41  42
ENDBRANCH  40  41
ENDBRANCH  39  40
ENDBRANCH  38  39
ENDBRANCH  12  38
TORSDOF 12
ENDMDL
MODEL 3
REMARK VINA RESULT: -8.878517694      2.733      6.237
REMARK  12 active torsions:
REMARK  status: ('A' for Active; 'I' for Inactive)
REMARK    1  A    between atoms: O1_2  and  C2_3 
REMARK    2  A    between atoms: C5_6  and  N1_7 
REMARK    3  A    between atoms: C6_9  and  C7_10 
REMARK    4  A    between atoms: C7_10  and  N2_11 
REMARK    5  A    between atoms: N2_11  and  C8_12 
REMARK    6  A    between atoms: N5_21  and  C13_22 
REMARK    7  A    between atoms: C13_22  and  C14_23 
REMARK    8  A    between atoms: C24_37  and  O2_38 
REMARK    9  A    between atoms: O2_38  and  C25_39 
REMARK   10  A    between atoms: C25_39  and  C26_40 
REMARK   11  A    between atoms: C26_40  and  C27_41 
REMARK   12  A    between atoms: C27_41  and  N8_42 
ROOT
HETATM    1  C2  UNL     1      18.253  22.209  19.186  1.00  0.00     0.102 A 
HETATM    2  C3  UNL     1      16.984  21.713  19.092  1.00  0.00     0.057 A 
HETATM    3  C4  UNL     1      16.001  22.356  18.367  1.00  0.00     0.037 A 
HETATM    4  C5  UNL     1      14.713  21.840  18.266  1.00  0.00     0.118 A 
HETATM    5  N6  UNL     1      13.857  22.600  17.492  1.00  0.00    -0.338 N 
ATOM      6  H6  UNL     1      12.897  22.274  17.376  1.00  0.00     0.168 HD
HETATM    7  C21 UNL     1      14.209  23.719  16.896  1.00  0.00     0.182 A 
HETATM    8  N7  UNL     1      15.443  24.220  16.990  1.00  0.00    -0.351 N 
ATOM      9  H7  UNL     1      15.702  25.089  16.522  1.00  0.00     0.166 HD
HETATM   10  C22 UNL     1      16.329  23.531  17.727  1.00  0.00     0.050 A 
HETATM   11  C23 UNL     1      17.622  24.056  17.810  1.00  0.00     0.070 A 
HETATM   12  C24 UNL     1      18.607  23.411  18.536  1.00  0.00     0.104 A 
ENDROOT
BRANCH   4  13
HETATM   13  N1  UNL     1      14.327  20.830  18.820  1.00  0.00    -0.349 N 
HETATM   14  C6  UNL     1      14.454  19.700  19.539  1.00  0.00     0.121 C 
ATOM     15  H1  UNL     1      13.325  20.850  18.629  1.00  0.00     0.167 HD
BRANCH  14  16
HETATM   16  C7  UNL     1      13.126  19.016  19.946  1.00  0.00     0.202 C 
BRANCH  16  17
HETATM   17  N2  UNL     1      12.413  18.407  19.017  1.00  0.00    -0.398 NA
BRANCH  17  18
HETATM   18  C8  UNL     1      11.768  17.850  18.175  1.00  0.00     0.189 A 
HETATM   19  N3  UNL     1      11.726  16.474  18.016  1.00  0.00    -0.327 N 
HETATM   20  C9  UNL     1      10.986  15.974  17.034  1.00  0.00     0.183 A 
ATOM     21  H3  UNL     1      12.251  15.860  18.639  1.00  0.00     0.169 HD
HETATM   22  N4  UNL     1      10.270  16.753  16.177  1.00  0.00    -0.355 N 
HETATM   23  C10 UNL     1      10.279  18.086  16.287  1.00  0.00     0.024 A 
ATOM     24  H4  UNL     1       9.719  16.314  15.439  1.00  0.00     0.166 HD
HETATM   25  C11 UNL     1      11.024  18.659  17.283  1.00  0.00     0.051 A 
HETATM   26  C20 UNL     1       9.525  18.970  15.347  1.00  0.00     0.088 C 
HETATM   27  C12 UNL     1      11.075  20.119  17.451  1.00  0.00     0.318 C 
HETATM   28  N5  UNL     1      11.067  20.748  16.151  1.00  0.00     0.093 N 
HETATM   29  C19 UNL     1       9.772  20.426  15.562  1.00  0.00     0.279 C 
BRANCH  28  30
HETATM   30  C13 UNL     1      12.099  20.326  15.265  1.00  0.00     0.277 C 
BRANCH  30  31
HETATM   31  C14 UNL     1      11.878  20.875  13.841  1.00  0.00     0.014 C 
HETATM   32  C15 UNL     1      12.389  22.301  13.776  1.00  0.00     0.006 C 
HETATM   33  C16 UNL     1      13.894  22.068  13.944  1.00  0.00     0.000 C 
HETATM   34  C17 UNL     1      14.183  20.700  13.360  1.00  0.00     0.000 C 
HETATM   35  C18 UNL     1      12.842  20.138  12.942  1.00  0.00     0.006 C 
ENDBRANCH  30  31
ENDBRANCH  28  30
ENDBRANCH  17  18
ENDBRANCH  16  17
ENDBRANCH  14  16
ENDBRANCH   4  13
BRANCH   1  36
HETATM   36  O1  UNL     1      19.205  21.510  19.940  1.00  0.00    -0.353 OA
HETATM   37  C1  UNL     1      19.150  21.562  21.350  1.00  0.00     0.210 C 
ENDBRANCH   1  36
BRANCH  12  38
HETATM   38  O2  UNL     1      19.882  23.793  18.701  1.00  0.00    -0.348 OA
BRANCH  38  39
HETATM   39  C25 UNL     1      20.483  24.790  19.425  1.00  0.00     0.177 C 
BRANCH  39  40
HETATM   40  C26 UNL     1      20.513  26.099  18.730  1.00  0.00     0.057 C 
BRANCH  40  41
HETATM   41  C27 UNL     1      21.586  26.318  17.718  1.00  0.00     0.274 C 
BRANCH  41  42
HETATM   42  N8  UNL     1      21.234  26.358  16.353  1.00  0.00     0.092 N 
HETATM   43  C28 UNL     1      19.892  26.651  16.017  1.00  0.00     0.298 C 
HETATM   44  C29 UNL     1      19.799  27.764  14.956  1.00  0.00     0.198 C 
HETATM   45  O3  UNL     1      20.526  28.865  15.343  1.00  0.00    -0.388 OA
HETATM   46  C30 UNL     1      21.839  28.576  15.653  1.00  0.00     0.198 C 
HETATM   47  C31 UNL     1      22.155  27.111  15.535  1.00  0.00     0.298 C 
ENDBRANCH  41  42
ENDBRANCH  40  41
ENDBRANCH  39  40
ENDBRANCH  38  39
ENDBRANCH  12  38
TORSDOF 12
ENDMDL
MODEL 4
REMARK VINA RESULT: -8.660321048      3.132     10.139
REMARK  12 active torsions:
REMARK  status: ('A' for Active; 'I' for Inactive)
REMARK    1  A    between atoms: O1_2  and  C2_3 
REMARK    2  A    between atoms: C5_6  and  N1_7 
REMARK    3  A    between atoms: C6_9  and  C7_10 
REMARK    4  A    between atoms: C7_10  and  N2_11 
REMARK    5  A    between atoms: N2_11  and  C8_12 
REMARK    6  A    between atoms: N5_21  and  C13_22 
REMARK    7  A    between atoms: C13_22  and  C14_23 
REMARK    8  A    between atoms: C24_37  and  O2_38 
REMARK    9  A    between atoms: O2_38  and  C25_39 
REMARK   10  A    between atoms: C25_39  and  C26_40 
REMARK   11  A    between atoms: C26_40  and  C27_41 
REMARK   12  A    between atoms: C27_41  and  N8_42 
ROOT
HETATM    1  C2  UNL     1      15.300  22.186  14.786  1.00  0.00     0.102 A 
HETATM    2  C3  UNL     1      16.185  23.195  15.040  1.00  0.00     0.057 A 
HETATM    3  C4  UNL     1      16.142  23.924  16.211  1.00  0.00     0.037 A 
HETATM    4  C5  UNL     1      17.054  24.944  16.469  1.00  0.00     0.118 A 
HETATM    5  N6  UNL     1      16.879  25.564  17.691  1.00  0.00    -0.338 N 
ATOM      6  H6  UNL     1      17.517  26.319  17.943  1.00  0.00     0.168 HD
HETATM    7  C21 UNL     1      15.937  25.235  18.551  1.00  0.00     0.182 A 
HETATM    8  N7  UNL     1      15.060  24.258  18.308  1.00  0.00    -0.351 N 
ATOM      9  H7  UNL     1      14.336  24.014  18.984  1.00  0.00     0.166 HD
HETATM   10  C22 UNL     1      15.171  23.612  17.137  1.00  0.00     0.050 A 
HETATM   11  C23 UNL     1      14.256  22.583  16.896  1.00  0.00     0.070 A 
HETATM   12  C24 UNL     1      14.300  21.850  15.724  1.00  0.00     0.104 A 
ENDROOT
BRANCH   4  13
HETATM   13  N1  UNL     1      17.920  25.308  15.700  1.00  0.00    -0.349 N 
HETATM   14  C6  UNL     1      18.652  25.275  14.571  1.00  0.00     0.121 C 
ATOM     15  H1  UNL     1      18.331  26.097  16.198  1.00  0.00     0.167 HD
BRANCH  14  16
HETATM   16  C7  UNL     1      19.626  26.462  14.374  1.00  0.00     0.202 C 
BRANCH  16  17
HETATM   17  N2  UNL     1      20.736  26.501  15.088  1.00  0.00    -0.398 NA
BRANCH  17  18
HETATM   18  C8  UNL     1      21.744  26.533  15.736  1.00  0.00     0.189 A 
HETATM   19  N3  UNL     1      23.006  26.304  15.212  1.00  0.00    -0.327 N 
HETATM   20  C9  UNL     1      24.048  26.351  16.033  1.00  0.00     0.183 A 
ATOM     21  H3  UNL     1      23.132  26.105  14.220  1.00  0.00     0.169 HD
HETATM   22  N4  UNL     1      23.930  26.612  17.365  1.00  0.00    -0.355 N 
HETATM   23  C10 UNL     1      22.734  26.839  17.918  1.00  0.00     0.024 A 
ATOM     24  H4  UNL     1      24.766  26.635  17.949  1.00  0.00     0.166 HD
HETATM   25  C11 UNL     1      21.622  26.804  17.119  1.00  0.00     0.051 A 
HETATM   26  C20 UNL     1      22.567  27.102  19.380  1.00  0.00     0.088 C 
HETATM   27  C12 UNL     1      20.280  27.041  17.672  1.00  0.00     0.318 C 
HETATM   28  N5  UNL     1      20.198  26.455  18.989  1.00  0.00     0.093 N 
HETATM   29  C19 UNL     1      21.143  27.198  19.815  1.00  0.00     0.279 C 
BRANCH  28  30
HETATM   30  C13 UNL     1      20.511  25.067  19.057  1.00  0.00     0.277 C 
BRANCH  30  31
HETATM   31  C14 UNL     1      20.370  24.528  20.496  1.00  0.00     0.014 C 
HETATM   32  C15 UNL     1      18.897  24.437  20.847  1.00  0.00     0.006 C 
HETATM   33  C16 UNL     1      18.450  23.321  19.898  1.00  0.00     0.000 C 
HETATM   34  C17 UNL     1      19.655  22.426  19.692  1.00  0.00     0.000 C 
HETATM   35  C18 UNL     1      20.789  23.077  20.453  1.00  0.00     0.006 C 
ENDBRANCH  30  31
ENDBRANCH  28  30
ENDBRANCH  17  18
ENDBRANCH  16  17
ENDBRANCH  14  16
ENDBRANCH   4  13
BRANCH   1  36
HETATM   36  O1  UNL     1      15.394  21.483  13.577  1.00  0.00    -0.353 OA
HETATM   37  C1  UNL     1      14.791  22.014  12.416  1.00  0.00     0.210 C 
ENDBRANCH   1  36
BRANCH  12  38
HETATM   38  O2  UNL     1      13.494  20.842  15.361  1.00  0.00    -0.348 OA
BRANCH  38  39
HETATM   39  C25 UNL     1      12.236  20.786  14.820  1.00  0.00     0.177 C 
BRANCH  39  40
HETATM   40  C26 UNL     1      11.351  19.786  15.464  1.00  0.00     0.057 C 
BRANCH  40  41
HETATM   41  C27 UNL     1      11.256  19.806  16.952  1.00  0.00     0.274 C 
BRANCH  41  42
HETATM   42  N8  UNL     1      10.645  18.718  17.608  1.00  0.00     0.092 N 
HETATM   43  C28 UNL     1      10.362  17.556  16.854  1.00  0.00     0.298 C 
HETATM   44  C29 UNL     1      10.880  16.283  17.549  1.00  0.00     0.198 C 
HETATM   45  O3  UNL     1      12.208  16.418  17.882  1.00  0.00    -0.388 OA
HETATM   46  C30 UNL     1      12.475  17.544  18.632  1.00  0.00     0.198 C 
HETATM   47  C31 UNL     1      11.253  18.385  18.875  1.00  0.00     0.298 C 
ENDBRANCH  41  42
ENDBRANCH  40  41
ENDBRANCH  39  40
ENDBRANCH  38  39
ENDBRANCH  12  38
TORSDOF 12
ENDMDL
MODEL 5
REMARK VINA RESULT: -8.600033992      2.803      6.327
REMARK  12 active torsions:
REMARK  status: ('A' for Active; 'I' for Inactive)
REMARK    1  A    between atoms: O1_2  and  C2_3 
REMARK    2  A    between atoms: C5_6  and  N1_7 
REMARK    3  A    between atoms: C6_9  and  C7_10 
REMARK    4  A    between atoms: C7_10  and  N2_11 
REMARK    5  A    between atoms: N2_11  and  C8_12 
REMARK    6  A    between atoms: N5_21  and  C13_22 
REMARK    7  A    between atoms: C13_22  and  C14_23 
REMARK    8  A    between atoms: C24_37  and  O2_38 
REMARK    9  A    between atoms: O2_38  and  C25_39 
REMARK   10  A    between atoms: C25_39  and  C26_40 
REMARK   11  A    between atoms: C26_40  and  C27_41 
REMARK   12  A    between atoms: C27_41  and  N8_42 
ROOT
HETATM    1  C2  UNL     1      18.216  22.199  19.413  1.00  0.00     0.102 A 
HETATM    2  C3  UNL     1      16.971  21.662  19.255  1.00  0.00     0.057 A 
HETATM    3  C4  UNL     1      15.967  22.335  18.588  1.00  0.00     0.037 A 
HETATM    4  C5  UNL     1      14.702  21.779  18.419  1.00  0.00     0.118 A 
HETATM    5  N6  UNL     1      13.820  22.578  17.718  1.00  0.00    -0.338 N 
ATOM      6  H6  UNL     1      12.876  22.227  17.558  1.00  0.00     0.168 HD
HETATM    7  C21 UNL     1      14.129  23.767  17.243  1.00  0.00     0.182 A 
HETATM    8  N7  UNL     1      15.340  24.306  17.402  1.00  0.00    -0.351 N 
ATOM      9  H7  UNL     1      15.565  25.228  17.028  1.00  0.00     0.166 HD
HETATM   10  C22 UNL     1      16.248  23.583  18.075  1.00  0.00     0.050 A 
HETATM   11  C23 UNL     1      17.518  24.149  18.227  1.00  0.00     0.070 A 
HETATM   12  C24 UNL     1      18.524  23.474  18.894  1.00  0.00     0.104 A 
ENDROOT
BRANCH   4  13
HETATM   13  N1  UNL     1      14.355  20.703  18.862  1.00  0.00    -0.349 N 
HETATM   14  C6  UNL     1      14.532  19.492  19.422  1.00  0.00     0.121 C 
ATOM     15  H1  UNL     1      13.344  20.736  18.740  1.00  0.00     0.167 HD
BRANCH  14  16
HETATM   16  C7  UNL     1      13.235  18.746  19.821  1.00  0.00     0.202 C 
BRANCH  16  17
HETATM   17  N2  UNL     1      12.481  18.226  18.870  1.00  0.00    -0.398 NA
BRANCH  17  18
HETATM   18  C8  UNL     1      11.799  17.755  18.005  1.00  0.00     0.189 A 
HETATM   19  N3  UNL     1      11.697  16.396  17.755  1.00  0.00    -0.327 N 
HETATM   20  C9  UNL     1      10.921  15.994  16.756  1.00  0.00     0.183 A 
ATOM     21  H3  UNL     1      12.207  15.720  18.325  1.00  0.00     0.169 HD
HETATM   22  N4  UNL     1      10.224  16.857  15.967  1.00  0.00    -0.355 N 
HETATM   23  C10 UNL     1      10.289  18.178  16.167  1.00  0.00     0.024 A 
ATOM     24  H4  UNL     1       9.642  16.492  15.213  1.00  0.00     0.166 HD
HETATM   25  C11 UNL     1      11.074  18.651  17.185  1.00  0.00     0.051 A 
HETATM   26  C20 UNL     1       9.557  19.154  15.303  1.00  0.00     0.088 C 
HETATM   27  C12 UNL     1      11.189  20.093  17.449  1.00  0.00     0.318 C 
HETATM   28  N5  UNL     1      11.185  20.809  16.195  1.00  0.00     0.093 N 
HETATM   29  C19 UNL     1       9.867  20.581  15.611  1.00  0.00     0.279 C 
BRANCH  28  30
HETATM   30  C13 UNL     1      12.183  20.407  15.263  1.00  0.00     0.277 C 
BRANCH  30  31
HETATM   31  C14 UNL     1      11.988  21.097  13.897  1.00  0.00     0.014 C 
HETATM   32  C15 UNL     1      12.543  22.506  13.970  1.00  0.00     0.006 C 
HETATM   33  C16 UNL     1      14.039  22.210  14.119  1.00  0.00     0.000 C 
HETATM   34  C17 UNL     1      14.290  20.896  13.408  1.00  0.00     0.000 C 
HETATM   35  C18 UNL     1      12.934  20.418  12.935  1.00  0.00     0.006 C 
ENDBRANCH  30  31
ENDBRANCH  28  30
ENDBRANCH  17  18
ENDBRANCH  16  17
ENDBRANCH  14  16
ENDBRANCH   4  13
BRANCH   1  36
HETATM   36  O1  UNL     1      19.192  21.466  20.102  1.00  0.00    -0.353 OA
HETATM   37  C1  UNL     1      19.209  21.487  21.514  1.00  0.00     0.210 C 
ENDBRANCH   1  36
BRANCH  12  38
HETATM   38  O2  UNL     1      19.781  23.891  19.112  1.00  0.00    -0.348 OA
BRANCH  38  39
HETATM   39  C25 UNL     1      20.321  25.065  19.567  1.00  0.00     0.177 C 
BRANCH  39  40
HETATM   40  C26 UNL     1      20.925  25.898  18.499  1.00  0.00     0.057 C 
BRANCH  40  41
HETATM   41  C27 UNL     1      20.004  26.702  17.647  1.00  0.00     0.274 C 
BRANCH  41  42
HETATM   42  N8  UNL     1      20.328  26.892  16.288  1.00  0.00     0.092 N 
HETATM   43  C28 UNL     1      21.566  26.393  15.820  1.00  0.00     0.298 C 
HETATM   44  C29 UNL     1      21.396  25.554  14.540  1.00  0.00     0.198 C 
HETATM   45  O3  UNL     1      20.439  24.582  14.719  1.00  0.00    -0.388 OA
HETATM   46  C30 UNL     1      19.230  25.076  15.160  1.00  0.00     0.198 C 
HETATM   47  C31 UNL     1      19.254  26.564  15.380  1.00  0.00     0.298 C 
ENDBRANCH  41  42
ENDBRANCH  40  41
ENDBRANCH  39  40
ENDBRANCH  38  39
ENDBRANCH  12  38
TORSDOF 12
ENDMDL
