MODEL 1
REMARK VINA RESULT: -9.436536070      0.000      0.000
REMARK  12 active torsions:
REMARK  status: ('A' for Active; 'I' for Inactive)
REMARK    1  A    between atoms: O1_2  and  C2_3 
REMARK    2  A    between atoms: C2_3  and  C3_5 
REMARK    3  A    between atoms: C3_5  and  C4_6 
REMARK    4  A    between atoms: C3_5  and  N1_13 
REMARK    5  A    between atoms: C4_6  and  C5_7 
REMARK    6  A    between atoms: C5_7  and  C6_8 
REMARK       I    between atoms: N1_13  and  C11_15 
REMARK    7  A    between atoms: C11_15  and  C12_17 
REMARK    8  A    between atoms: N2_21  and  C16_22 
REMARK    9  A    between atoms: C16_22  and  C17_23 
REMARK   10  A    between atoms: C17_23  and  C18_24 
REMARK   11  A    between atoms: C21_27  and  N3_28 
REMARK       I    between atoms: N3_28  and  C22_30 
REMARK   12  A    between atoms: C22_30  and  C23_32 
ROOT
HETATM    1  C12 UNL     1      20.623  35.621  17.587  1.00  0.00     0.314 C 
HETATM    2  C13 UNL     1      21.286  36.160  18.830  1.00  0.00     0.047 C 
HETATM    3  C14 UNL     1      22.484  35.290  19.087  1.00  0.00     0.033 C 
HETATM    4  C15 UNL     1      22.262  34.107  18.178  1.00  0.00     0.273 C 
HETATM    5  N2  UNL     1      21.445  34.560  17.100  1.00  0.00     0.102 N 
ENDROOT
BRANCH   5   6
HETATM    6  C16 UNL     1      22.075  34.737  15.853  1.00  0.00     0.276 C 
BRANCH   6   7
HETATM    7  C17 UNL     1      23.118  33.726  15.498  1.00  0.00     0.062 C 
BRANCH   7   8
HETATM    8  C18 UNL     1      22.611  32.564  14.706  1.00  0.00     0.133 C 
HETATM    9  C19 UNL     1      22.275  31.356  15.512  1.00  0.00     0.035 C 
HETATM   10  C20 UNL     1      21.678  30.295  14.651  1.00  0.00     0.038 C 
HETATM   11  C21 UNL     1      21.896  30.541  13.172  1.00  0.00     0.184 C 
HETATM   12  C28 UNL     1      21.273  31.856  12.879  1.00  0.00     0.282 C 
HETATM   13  O7  UNL     1      20.562  31.983  11.880  1.00  0.00    -0.263 OA
HETATM   14  O8  UNL     1      21.564  32.871  13.807  1.00  0.00    -0.314 OA
BRANCH  11  15
HETATM   15  N3  UNL     1      21.333  29.443  12.460  1.00  0.00    -0.347 N 
HETATM   16  C22 UNL     1      22.127  28.300  12.095  1.00  0.00     0.222 C 
HETATM   17  O4  UNL     1      23.344  28.309  12.430  1.00  0.00    -0.273 OA
ATOM     18  H3  UNL     1      20.346  29.468  12.203  1.00  0.00     0.163 HD
BRANCH  16  19
HETATM   19  C23 UNL     1      21.575  27.156  11.364  1.00  0.00     0.079 C 
HETATM   20  C24 UNL     1      21.824  25.836  12.037  1.00  0.00     0.029 C 
HETATM   21  C25 UNL     1      21.898  24.782  10.950  1.00  0.00     0.141 C 
HETATM   22  S1  UNL     1      20.407  24.900   9.994  1.00  0.00     0.144 S 
HETATM   23  O5  UNL     1      19.696  23.579  10.084  1.00  0.00    -0.228 OA
HETATM   24  O6  UNL     1      20.743  25.251   8.576  1.00  0.00    -0.228 OA
HETATM   25  C26 UNL     1      19.367  26.121  10.760  1.00  0.00     0.141 C 
HETATM   26  C27 UNL     1      20.100  27.353  11.173  1.00  0.00     0.029 C 
ENDBRANCH  16  19
ENDBRANCH  11  15
ENDBRANCH   7   8
ENDBRANCH   6   7
ENDBRANCH   5   6
BRANCH   1  27
HETATM   27  C11 UNL     1      19.340  34.984  18.043  1.00  0.00     0.252 C 
HETATM   28  N1  UNL     1      18.445  34.501  17.071  1.00  0.00    -0.345 N 
ATOM     29  H1  UNL     1      18.672  34.585  16.080  1.00  0.00     0.163 HD
HETATM   30  O3  UNL     1      19.040  34.867  19.256  1.00  0.00    -0.271 OA
BRANCH  28  31
HETATM   31  C3  UNL     1      17.206  33.887  17.479  1.00  0.00     0.184 C 
BRANCH  31  32
HETATM   32  C2  UNL     1      16.230  34.901  17.963  1.00  0.00     0.281 C 
HETATM   33  O2  UNL     1      15.579  34.642  19.006  1.00  0.00    -0.263 OA
BRANCH  32  34
HETATM   34  O1  UNL     1      15.998  36.110  17.334  1.00  0.00    -0.325 OA
HETATM   35  C1  UNL     1      16.329  37.358  17.867  1.00  0.00     0.213 C 
ENDBRANCH  32  34
ENDBRANCH  31  32
BRANCH  31  36
HETATM   36  C4  UNL     1      16.631  33.159  16.285  1.00  0.00     0.036 C 
BRANCH  36  37
HETATM   37  C5  UNL     1      17.009  31.700  16.395  1.00  0.00     0.007 C 
BRANCH  37  38
HETATM   38  C6  UNL     1      18.205  31.366  15.531  1.00  0.00    -0.014 C 
HETATM   39  C7  UNL     1      18.633  29.926  15.675  1.00  0.00     0.004 C 
HETATM   40  C8  UNL     1      18.204  29.215  14.429  1.00  0.00     0.000 C 
HETATM   41  C9  UNL     1      17.860  30.266  13.414  1.00  0.00     0.000 C 
HETATM   42  C10 UNL     1      17.939  31.601  14.076  1.00  0.00     0.004 C 
ENDBRANCH  37  38
ENDBRANCH  36  37
ENDBRANCH  31  36
ENDBRANCH  28  31
ENDBRANCH   1  27
TORSDOF 12
ENDMDL
MODEL 2
REMARK VINA RESULT: -9.415514933      1.932      4.661
REMARK  12 active torsions:
REMARK  status: ('A' for Active; 'I' for Inactive)
REMARK    1  A    between atoms: O1_2  and  C2_3 
REMARK    2  A    between atoms: C2_3  and  C3_5 
REMARK    3  A    between atoms: C3_5  and  C4_6 
REMARK    4  A    between atoms: C3_5  and  N1_13 
REMARK    5  A    between atoms: C4_6  and  C5_7 
REMARK    6  A    between atoms: C5_7  and  C6_8 
REMARK       I    between atoms: N1_13  and  C11_15 
REMARK    7  A    between atoms: C11_15  and  C12_17 
REMARK    8  A    between atoms: N2_21  and  C16_22 
REMARK    9  A    between atoms: C16_22  and  C17_23 
REMARK   10  A    between atoms: C17_23  and  C18_24 
REMARK   11  A    between atoms: C21_27  and  N3_28 
REMARK       I    between atoms: N3_28  and  C22_30 
REMARK   12  A    between atoms: C22_30  and  C23_32 
ROOT
HETATM    1  C12 UNL     1      17.979  35.201  18.133  1.00  0.00     0.314 C 
HETATM    2  C13 UNL     1      17.162  36.069  19.059  1.00  0.00     0.047 C 
HETATM    3  C14 UNL     1      16.255  36.890  18.188  1.00  0.00     0.033 C 
HETATM    4  C15 UNL     1      16.824  36.694  16.804  1.00  0.00     0.273 C 
HETATM    5  N2  UNL     1      17.501  35.439  16.808  1.00  0.00     0.102 N 
ENDROOT
BRANCH   5   6
HETATM    6  C16 UNL     1      16.875  34.373  16.135  1.00  0.00     0.276 C 
BRANCH   6   7
HETATM    7  C17 UNL     1      17.115  33.010  16.702  1.00  0.00     0.062 C 
BRANCH   7   8
HETATM    8  C18 UNL     1      17.928  32.110  15.830  1.00  0.00     0.133 C 
HETATM    9  C19 UNL     1      17.409  30.718  15.709  1.00  0.00     0.035 C 
HETATM   10  C20 UNL     1      18.221  29.933  14.736  1.00  0.00     0.038 C 
HETATM   11  C21 UNL     1      19.546  30.589  14.406  1.00  0.00     0.184 C 
HETATM   12  C28 UNL     1      19.214  31.922  13.845  1.00  0.00     0.282 C 
HETATM   13  O7  UNL     1      19.789  32.313  12.827  1.00  0.00    -0.263 OA
HETATM   14  O8  UNL     1      18.237  32.640  14.555  1.00  0.00    -0.314 OA
BRANCH  11  15
HETATM   15  N3  UNL     1      20.250  29.726  13.517  1.00  0.00    -0.347 N 
HETATM   16  C22 UNL     1      21.046  28.632  14.008  1.00  0.00     0.222 C 
HETATM   17  O4  UNL     1      21.097  28.468  15.258  1.00  0.00    -0.273 OA
ATOM     18  H3  UNL     1      20.189  29.887  12.512  1.00  0.00     0.163 HD
BRANCH  16  19
HETATM   19  C23 UNL     1      21.780  27.729  13.118  1.00  0.00     0.079 C 
HETATM   20  C24 UNL     1      20.893  26.941  12.196  1.00  0.00     0.029 C 
HETATM   21  C25 UNL     1      21.594  25.630  11.906  1.00  0.00     0.141 C 
HETATM   22  S1  UNL     1      23.211  26.019  11.286  1.00  0.00     0.144 S 
HETATM   23  O5  UNL     1      23.326  25.440   9.903  1.00  0.00    -0.228 OA
HETATM   24  O6  UNL     1      24.253  25.459  12.207  1.00  0.00    -0.228 OA
HETATM   25  C26 UNL     1      23.324  27.786  11.137  1.00  0.00     0.141 C 
HETATM   26  C27 UNL     1      22.768  28.519  12.312  1.00  0.00     0.029 C 
ENDBRANCH  16  19
ENDBRANCH  11  15
ENDBRANCH   7   8
ENDBRANCH   6   7
ENDBRANCH   5   6
BRANCH   1  27
HETATM   27  C11 UNL     1      19.379  35.745  18.180  1.00  0.00     0.252 C 
HETATM   28  N1  UNL     1      20.343  35.060  18.943  1.00  0.00    -0.345 N 
ATOM     29  H1  UNL     1      20.086  34.212  19.447  1.00  0.00     0.163 HD
HETATM   30  O3  UNL     1      19.719  36.786  17.566  1.00  0.00    -0.271 OA
BRANCH  28  31
HETATM   31  C3  UNL     1      21.693  35.560  19.008  1.00  0.00     0.184 C 
BRANCH  31  32
HETATM   32  C2  UNL     1      22.118  35.795  20.415  1.00  0.00     0.281 C 
HETATM   33  O2  UNL     1      21.439  35.269  21.331  1.00  0.00    -0.263 OA
BRANCH  32  34
HETATM   34  O1  UNL     1      23.216  36.555  20.772  1.00  0.00    -0.325 OA
HETATM   35  C1  UNL     1      24.381  36.045  21.349  1.00  0.00     0.213 C 
ENDBRANCH  32  34
ENDBRANCH  31  32
BRANCH  31  36
HETATM   36  C4  UNL     1      22.601  34.534  18.368  1.00  0.00     0.036 C 
BRANCH  36  37
HETATM   37  C5  UNL     1      22.722  34.862  16.899  1.00  0.00     0.007 C 
BRANCH  37  38
HETATM   38  C6  UNL     1      21.917  33.907  16.045  1.00  0.00    -0.014 C 
HETATM   39  C7  UNL     1      22.494  33.749  14.659  1.00  0.00     0.004 C 
HETATM   40  C8  UNL     1      23.149  32.403  14.608  1.00  0.00     0.000 C 
HETATM   41  C9  UNL     1      22.665  31.629  15.798  1.00  0.00     0.000 C 
HETATM   42  C10 UNL     1      21.837  32.537  16.645  1.00  0.00     0.004 C 
ENDBRANCH  37  38
ENDBRANCH  36  37
ENDBRANCH  31  36
ENDBRANCH  28  31
ENDBRANCH   1  27
TORSDOF 12
ENDMDL
MODEL 3
REMARK VINA RESULT: -9.295135927      1.396      2.003
REMARK  12 active torsions:
REMARK  status: ('A' for Active; 'I' for Inactive)
REMARK    1  A    between atoms: O1_2  and  C2_3 
REMARK    2  A    between atoms: C2_3  and  C3_5 
REMARK    3  A    between atoms: C3_5  and  C4_6 
REMARK    4  A    between atoms: C3_5  and  N1_13 
REMARK    5  A    between atoms: C4_6  and  C5_7 
REMARK    6  A    between atoms: C5_7  and  C6_8 
REMARK       I    between atoms: N1_13  and  C11_15 
REMARK    7  A    between atoms: C11_15  and  C12_17 
REMARK    8  A    between atoms: N2_21  and  C16_22 
REMARK    9  A    between atoms: C16_22  and  C17_23 
REMARK   10  A    between atoms: C17_23  and  C18_24 
REMARK   11  A    between atoms: C21_27  and  N3_28 
REMARK       I    between atoms: N3_28  and  C22_30 
REMARK   12  A    between atoms: C22_30  and  C23_32 
ROOT
HETATM    1  C12 UNL     1      21.177  35.297  16.971  1.00  0.00     0.314 C 
HETATM    2  C13 UNL     1      21.760  36.677  17.155  1.00  0.00     0.047 C 
HETATM    3  C14 UNL     1      22.733  36.582  18.295  1.00  0.00     0.033 C 
HETATM    4  C15 UNL     1      22.418  35.244  18.917  1.00  0.00     0.273 C 
HETATM    5  N2  UNL     1      21.847  34.434  17.890  1.00  0.00     0.102 N 
ENDROOT
BRANCH   5   6
HETATM    6  C16 UNL     1      22.656  33.412  17.359  1.00  0.00     0.276 C 
BRANCH   6   7
HETATM    7  C17 UNL     1      22.939  33.496  15.893  1.00  0.00     0.062 C 
BRANCH   7   8
HETATM    8  C18 UNL     1      22.385  32.365  15.089  1.00  0.00     0.133 C 
HETATM    9  C19 UNL     1      21.667  31.326  15.881  1.00  0.00     0.035 C 
HETATM   10  C20 UNL     1      21.060  30.302  14.983  1.00  0.00     0.038 C 
HETATM   11  C21 UNL     1      21.613  30.349  13.574  1.00  0.00     0.184 C 
HETATM   12  C28 UNL     1      21.329  31.714  13.067  1.00  0.00     0.282 C 
HETATM   13  O7  UNL     1      20.871  31.857  11.931  1.00  0.00    -0.263 OA
HETATM   14  O8  UNL     1      21.619  32.754  13.966  1.00  0.00    -0.314 OA
BRANCH  11  15
HETATM   15  N3  UNL     1      21.002  29.297  12.831  1.00  0.00    -0.347 N 
HETATM   16  C22 UNL     1      21.756  28.152  12.393  1.00  0.00     0.222 C 
HETATM   17  O4  UNL     1      22.981  28.116  12.692  1.00  0.00    -0.273 OA
ATOM     18  H3  UNL     1      20.009  29.358  12.604  1.00  0.00     0.163 HD
BRANCH  16  19
HETATM   19  C23 UNL     1      21.154  27.056  11.629  1.00  0.00     0.079 C 
HETATM   20  C24 UNL     1      21.764  25.714  11.920  1.00  0.00     0.029 C 
HETATM   21  C25 UNL     1      21.630  24.876  10.665  1.00  0.00     0.141 C 
HETATM   22  S1  UNL     1      19.914  24.869  10.212  1.00  0.00     0.144 S 
HETATM   23  O5  UNL     1      19.439  23.443  10.226  1.00  0.00    -0.228 OA
HETATM   24  O6  UNL     1      19.746  25.493   8.859  1.00  0.00    -0.228 OA
HETATM   25  C26 UNL     1      19.017  25.744  11.472  1.00  0.00     0.141 C 
HETATM   26  C27 UNL     1      19.679  27.009  11.905  1.00  0.00     0.029 C 
ENDBRANCH  16  19
ENDBRANCH  11  15
ENDBRANCH   7   8
ENDBRANCH   6   7
ENDBRANCH   5   6
BRANCH   1  27
HETATM   27  C11 UNL     1      19.750  35.383  17.436  1.00  0.00     0.252 C 
HETATM   28  N1  UNL     1      18.983  36.499  17.054  1.00  0.00    -0.345 N 
ATOM     29  H1  UNL     1      19.395  37.228  16.472  1.00  0.00     0.163 HD
HETATM   30  O3  UNL     1      19.220  34.499  18.151  1.00  0.00    -0.271 OA
BRANCH  28  31
HETATM   31  C3  UNL     1      17.613  36.609  17.488  1.00  0.00     0.184 C 
BRANCH  31  32
HETATM   32  C2  UNL     1      17.247  38.021  17.783  1.00  0.00     0.281 C 
HETATM   33  O2  UNL     1      16.981  38.325  18.972  1.00  0.00    -0.263 OA
BRANCH  32  34
HETATM   34  O1  UNL     1      17.185  39.018  16.827  1.00  0.00    -0.325 OA
HETATM   35  C1  UNL     1      16.822  40.341  17.083  1.00  0.00     0.213 C 
ENDBRANCH  32  34
ENDBRANCH  31  32
BRANCH  31  36
HETATM   36  C4  UNL     1      16.730  36.077  16.381  1.00  0.00     0.036 C 
BRANCH  36  37
HETATM   37  C5  UNL     1      16.031  34.838  16.889  1.00  0.00     0.007 C 
BRANCH  37  38
HETATM   38  C6  UNL     1      16.038  33.730  15.859  1.00  0.00    -0.014 C 
HETATM   39  C7  UNL     1      17.277  33.756  14.997  1.00  0.00     0.004 C 
HETATM   40  C8  UNL     1      18.146  32.621  15.446  1.00  0.00     0.000 C 
HETATM   41  C9  UNL     1      17.297  31.722  16.295  1.00  0.00     0.000 C 
HETATM   42  C10 UNL     1      15.967  32.371  16.484  1.00  0.00     0.004 C 
ENDBRANCH  37  38
ENDBRANCH  36  37
ENDBRANCH  31  36
ENDBRANCH  28  31
ENDBRANCH   1  27
TORSDOF 12
ENDMDL
MODEL 4
REMARK VINA RESULT: -9.267614468      2.025      4.726
REMARK  12 active torsions:
REMARK  status: ('A' for Active; 'I' for Inactive)
REMARK    1  A    between atoms: O1_2  and  C2_3 
REMARK    2  A    between atoms: C2_3  and  C3_5 
REMARK    3  A    between atoms: C3_5  and  C4_6 
REMARK    4  A    between atoms: C3_5  and  N1_13 
REMARK    5  A    between atoms: C4_6  and  C5_7 
REMARK    6  A    between atoms: C5_7  and  C6_8 
REMARK       I    between atoms: N1_13  and  C11_15 
REMARK    7  A    between atoms: C11_15  and  C12_17 
REMARK    8  A    between atoms: N2_21  and  C16_22 
REMARK    9  A    between atoms: C16_22  and  C17_23 
REMARK   10  A    between atoms: C17_23  and  C18_24 
REMARK   11  A    between atoms: C21_27  and  N3_28 
REMARK       I    between atoms: N3_28  and  C22_30 
REMARK   12  A    between atoms: C22_30  and  C23_32 
ROOT
HETATM    1  C12 UNL     1      17.775  35.628  18.853  1.00  0.00     0.314 C 
HETATM    2  C13 UNL     1      16.919  36.851  19.075  1.00  0.00     0.047 C 
HETATM    3  C14 UNL     1      16.303  37.188  17.748  1.00  0.00     0.033 C 
HETATM    4  C15 UNL     1      17.089  36.349  16.770  1.00  0.00     0.273 C 
HETATM    5  N2  UNL     1      17.587  35.226  17.496  1.00  0.00     0.102 N 
ENDROOT
BRANCH   5   6
HETATM    6  C16 UNL     1      16.965  33.986  17.259  1.00  0.00     0.276 C 
BRANCH   6   7
HETATM    7  C17 UNL     1      16.769  33.616  15.823  1.00  0.00     0.062 C 
BRANCH   7   8
HETATM    8  C18 UNL     1      17.654  32.514  15.340  1.00  0.00     0.133 C 
HETATM    9  C19 UNL     1      18.425  31.817  16.407  1.00  0.00     0.035 C 
HETATM   10  C20 UNL     1      19.191  30.669  15.842  1.00  0.00     0.038 C 
HETATM   11  C21 UNL     1      19.300  30.716  14.332  1.00  0.00     0.184 C 
HETATM   12  C28 UNL     1      17.907  30.710  13.821  1.00  0.00     0.282 C 
HETATM   13  O7  UNL     1      17.609  29.972  12.879  1.00  0.00    -0.263 OA
HETATM   14  O8  UNL     1      17.025  31.579  14.485  1.00  0.00    -0.314 OA
BRANCH  11  15
HETATM   15  N3  UNL     1      20.093  29.607  13.917  1.00  0.00    -0.347 N 
HETATM   16  C22 UNL     1      20.915  29.673  12.738  1.00  0.00     0.222 C 
HETATM   17  O4  UNL     1      20.905  30.752  12.084  1.00  0.00    -0.273 OA
ATOM     18  H3  UNL     1      20.077  28.749  14.468  1.00  0.00     0.163 HD
BRANCH  16  19
HETATM   19  C23 UNL     1      21.741  28.550  12.288  1.00  0.00     0.079 C 
HETATM   20  C24 UNL     1      22.957  28.318  13.140  1.00  0.00     0.029 C 
HETATM   21  C25 UNL     1      24.025  27.718  12.248  1.00  0.00     0.141 C 
HETATM   22  S1  UNL     1      23.327  26.277  11.481  1.00  0.00     0.144 S 
HETATM   23  O5  UNL     1      24.158  25.092  11.884  1.00  0.00    -0.228 OA
HETATM   24  O6  UNL     1      23.307  26.457   9.993  1.00  0.00    -0.228 OA
HETATM   25  C26 UNL     1      21.698  26.041  12.152  1.00  0.00     0.141 C 
HETATM   26  C27 UNL     1      20.907  27.302  12.253  1.00  0.00     0.029 C 
ENDBRANCH  16  19
ENDBRANCH  11  15
ENDBRANCH   7   8
ENDBRANCH   6   7
ENDBRANCH   5   6
BRANCH   1  27
HETATM   27  C11 UNL     1      19.201  36.093  18.961  1.00  0.00     0.252 C 
HETATM   28  N1  UNL     1      20.222  35.127  19.013  1.00  0.00    -0.345 N 
ATOM     29  H1  UNL     1      19.990  34.135  18.975  1.00  0.00     0.163 HD
HETATM   30  O3  UNL     1      19.512  37.308  19.007  1.00  0.00    -0.271 OA
BRANCH  28  31
HETATM   31  C3  UNL     1      21.598  35.544  19.118  1.00  0.00     0.184 C 
BRANCH  31  32
HETATM   32  C2  UNL     1      22.015  35.689  20.539  1.00  0.00     0.281 C 
HETATM   33  O2  UNL     1      21.384  35.036  21.408  1.00  0.00    -0.263 OA
BRANCH  32  34
HETATM   34  O1  UNL     1      23.055  36.497  20.960  1.00  0.00    -0.325 OA
HETATM   35  C1  UNL     1      24.315  36.034  21.341  1.00  0.00     0.213 C 
ENDBRANCH  32  34
ENDBRANCH  31  32
BRANCH  31  36
HETATM   36  C4  UNL     1      22.455  34.496  18.443  1.00  0.00     0.036 C 
BRANCH  36  37
HETATM   37  C5  UNL     1      21.639  33.854  17.346  1.00  0.00     0.007 C 
BRANCH  37  38
HETATM   38  C6  UNL     1      22.151  34.235  15.973  1.00  0.00    -0.014 C 
HETATM   39  C7  UNL     1      23.658  34.199  15.892  1.00  0.00     0.004 C 
HETATM   40  C8  UNL     1      24.025  32.978  15.107  1.00  0.00     0.000 C 
HETATM   41  C9  UNL     1      22.778  32.497  14.425  1.00  0.00     0.000 C 
HETATM   42  C10 UNL     1      21.632  33.327  14.901  1.00  0.00     0.004 C 
ENDBRANCH  37  38
ENDBRANCH  36  37
ENDBRANCH  31  36
ENDBRANCH  28  31
ENDBRANCH   1  27
TORSDOF 12
ENDMDL
MODEL 5
REMARK VINA RESULT: -9.253181020      1.422      2.289
REMARK  12 active torsions:
REMARK  status: ('A' for Active; 'I' for Inactive)
REMARK    1  A    between atoms: O1_2  and  C2_3 
REMARK    2  A    between atoms: C2_3  and  C3_5 
REMARK    3  A    between atoms: C3_5  and  C4_6 
REMARK    4  A    between atoms: C3_5  and  N1_13 
REMARK    5  A    between atoms: C4_6  and  C5_7 
REMARK    6  A    between atoms: C5_7  and  C6_8 
REMARK       I    between atoms: N1_13  and  C11_15 
REMARK    7  A    between atoms: C11_15  and  C12_17 
REMARK    8  A    between atoms: N2_21  and  C16_22 
REMARK    9  A    between atoms: C16_22  and  C17_23 
REMARK   10  A    between atoms: C17_23  and  C18_24 
REMARK   11  A    between atoms: C21_27  and  N3_28 
REMARK       I    between atoms: N3_28  and  C22_30 
REMARK   12  A    between atoms: C22_30  and  C23_32 
ROOT
HETATM    1  C12 UNL     1      21.165  35.416  16.845  1.00  0.00     0.314 C 
HETATM    2  C13 UNL     1      21.633  36.850  16.883  1.00  0.00     0.047 C 
HETATM    3  C14 UNL     1      22.724  36.917  17.914  1.00  0.00     0.033 C 
HETATM    4  C15 UNL     1      22.600  35.602  18.643  1.00  0.00     0.273 C 
HETATM    5  N2  UNL     1      22.004  34.678  17.734  1.00  0.00     0.102 N 
ENDROOT
BRANCH   5   6
HETATM    6  C16 UNL     1      22.844  33.695  17.179  1.00  0.00     0.276 C 
BRANCH   6   7
HETATM    7  C17 UNL     1      22.941  33.685  15.686  1.00  0.00     0.062 C 
BRANCH   7   8
HETATM    8  C18 UNL     1      22.370  32.466  15.037  1.00  0.00     0.133 C 
HETATM    9  C19 UNL     1      21.586  31.582  15.944  1.00  0.00     0.035 C 
HETATM   10  C20 UNL     1      20.969  30.457  15.183  1.00  0.00     0.038 C 
HETATM   11  C21 UNL     1      21.570  30.275  13.805  1.00  0.00     0.184 C 
HETATM   12  C28 UNL     1      21.358  31.559  13.093  1.00  0.00     0.282 C 
HETATM   13  O7  UNL     1      20.945  31.548  11.931  1.00  0.00    -0.263 OA
HETATM   14  O8  UNL     1      21.659  32.711  13.839  1.00  0.00    -0.314 OA
BRANCH  11  15
HETATM   15  N3  UNL     1      20.943  29.147  13.202  1.00  0.00    -0.347 N 
HETATM   16  C22 UNL     1      21.700  27.985  12.818  1.00  0.00     0.222 C 
HETATM   17  O4  UNL     1      22.943  28.005  13.036  1.00  0.00    -0.273 OA
ATOM     18  H3  UNL     1      19.937  29.164  13.038  1.00  0.00     0.163 HD
BRANCH  16  19
HETATM   19  C23 UNL     1      21.082  26.810  12.197  1.00  0.00     0.079 C 
HETATM   20  C24 UNL     1      20.221  27.140  11.011  1.00  0.00     0.029 C 
HETATM   21  C25 UNL     1      19.137  26.085  10.933  1.00  0.00     0.141 C 
HETATM   22  S1  UNL     1      19.939  24.502  10.896  1.00  0.00     0.144 S 
HETATM   23  O5  UNL     1      19.551  23.819   9.614  1.00  0.00    -0.228 OA
HETATM   24  O6  UNL     1      19.529  23.700  12.095  1.00  0.00    -0.228 OA
HETATM   25  C26 UNL     1      21.693  24.784  10.844  1.00  0.00     0.141 C 
HETATM   26  C27 UNL     1      22.154  25.843  11.787  1.00  0.00     0.029 C 
ENDBRANCH  16  19
ENDBRANCH  11  15
ENDBRANCH   7   8
ENDBRANCH   6   7
ENDBRANCH   5   6
BRANCH   1  27
HETATM   27  C11 UNL     1      19.792  35.410  17.459  1.00  0.00     0.252 C 
HETATM   28  N1  UNL     1      18.957  36.523  17.251  1.00  0.00    -0.345 N 
ATOM     29  H1  UNL     1      19.285  37.311  16.692  1.00  0.00     0.163 HD
HETATM   30  O3  UNL     1      19.366  34.452  18.147  1.00  0.00    -0.271 OA
BRANCH  28  31
HETATM   31  C3  UNL     1      17.637  36.546  17.829  1.00  0.00     0.184 C 
BRANCH  31  32
HETATM   32  C2  UNL     1      17.315  37.883  18.398  1.00  0.00     0.281 C 
HETATM   33  O2  UNL     1      16.649  37.926  19.462  1.00  0.00    -0.263 OA
BRANCH  32  34
HETATM   34  O1  UNL     1      17.707  39.079  17.826  1.00  0.00    -0.325 OA
HETATM   35  C1  UNL     1      16.832  40.040  17.316  1.00  0.00     0.213 C 
ENDBRANCH  32  34
ENDBRANCH  31  32
BRANCH  31  36
HETATM   36  C4  UNL     1      16.645  36.207  16.739  1.00  0.00     0.036 C 
BRANCH  36  37
HETATM   37  C5  UNL     1      16.092  34.828  17.016  1.00  0.00     0.007 C 
BRANCH  37  38
HETATM   38  C6  UNL     1      16.109  33.960  15.777  1.00  0.00    -0.014 C 
HETATM   39  C7  UNL     1      17.304  34.238  14.897  1.00  0.00     0.004 C 
HETATM   40  C8  UNL     1      18.250  33.090  15.069  1.00  0.00     0.000 C 
HETATM   41  C9  UNL     1      17.490  31.985  15.740  1.00  0.00     0.000 C 
HETATM   42  C10 UNL     1      16.138  32.499  16.106  1.00  0.00     0.004 C 
ENDBRANCH  37  38
ENDBRANCH  36  37
ENDBRANCH  31  36
ENDBRANCH  28  31
ENDBRANCH   1  27
TORSDOF 12
ENDMDL
