MODEL 1
REMARK VINA RESULT: -9.438276635      0.000      0.000
REMARK  12 active torsions:
REMARK  status: ('A' for Active; 'I' for Inactive)
REMARK    1  A    between atoms: N1_4  and  C4_5 
REMARK    2  A    between atoms: C4_5  and  C5_6 
REMARK    3  A    between atoms: C5_6  and  N2_7 
REMARK    4  A    between atoms: N3_15  and  C12_16 
REMARK    5  A    between atoms: C15_19  and  C16_20 
REMARK    6  A    between atoms: C16_20  and  N4_21 
REMARK    7  A    between atoms: N4_21  and  C17_23 
REMARK    8  A    between atoms: C18_26  and  N6_27 
REMARK    9  A    between atoms: C28_39  and  O2_40 
REMARK   10  A    between atoms: O2_40  and  C29_41 
REMARK   11  A    between atoms: C29_41  and  C32_44 
REMARK   12  A    between atoms: C32_44  and  N8_45 
ROOT
HETATM    1  C12 UNL     1      17.919  31.942  15.164  1.00  0.00     0.065 A 
HETATM    2  C13 UNL     1      16.596  31.776  15.647  1.00  0.00     0.033 A 
HETATM    3  C14 UNL     1      15.911  32.735  16.331  1.00  0.00     0.011 A 
HETATM    4  C15 UNL     1      16.547  33.945  16.567  1.00  0.00    -0.038 A 
HETATM    5  C27 UNL     1      17.820  34.128  16.107  1.00  0.00     0.048 A 
HETATM    6  C28 UNL     1      18.537  33.129  15.392  1.00  0.00     0.097 A 
ENDROOT
BRANCH   4   7
HETATM    7  C16 UNL     1      15.797  34.978  17.341  1.00  0.00     0.160 C 
BRANCH   7   8
HETATM    8  N4  UNL     1      16.418  35.202  18.629  1.00  0.00    -0.371 N 
ATOM      9  H4  UNL     1      16.423  34.468  19.337  1.00  0.00     0.161 HD
BRANCH   8  10
HETATM   10  C17 UNL     1      16.964  36.342  18.863  1.00  0.00     0.125 A 
HETATM   11  N5  UNL     1      16.268  37.478  19.081  1.00  0.00    -0.176 N 
HETATM   12  C18 UNL     1      16.850  38.673  19.328  1.00  0.00     0.681 A 
ATOM     13  H5  UNL     1      15.249  37.433  19.059  1.00  0.00     0.186 HD
HETATM   14  N7  UNL     1      18.196  38.709  19.352  1.00  0.00    -0.195 N 
HETATM   15  C21 UNL     1      18.946  37.592  19.139  1.00  0.00     0.036 A 
ATOM     16  H7  UNL     1      18.666  39.595  19.535  1.00  0.00     0.184 HD
HETATM   17  C22 UNL     1      18.341  36.382  18.889  1.00  0.00     0.009 A 
HETATM   18  C26 UNL     1      20.429  37.630  19.158  1.00  0.00     0.058 C 
HETATM   19  C23 UNL     1      19.220  35.204  18.669  1.00  0.00     0.044 C 
HETATM   20  C24 UNL     1      20.194  35.205  19.833  1.00  0.00     0.005 C 
HETATM   21  C25 UNL     1      20.924  36.493  20.017  1.00  0.00     0.006 C 
BRANCH  12  22
HETATM   22  N6  UNL     1      16.069  39.855  19.540  1.00  0.00    -0.226 N 
HETATM   23  C19 UNL     1      15.588  40.663  18.421  1.00  0.00     0.168 C 
HETATM   24  C20 UNL     1      15.718  40.286  20.876  1.00  0.00     0.168 C 
ENDBRANCH  12  22
ENDBRANCH   8  10
ENDBRANCH   7   8
ENDBRANCH   4   7
BRANCH   6  25
HETATM   25  O2  UNL     1      19.762  33.479  15.013  1.00  0.00    -0.337 OA
BRANCH  25  26
HETATM   26  C29 UNL     1      21.009  33.601  15.550  1.00  0.00     0.084 C 
HETATM   27  C30 UNL     1      21.562  34.896  15.963  1.00  0.00     0.048 C 
HETATM   28  C31 UNL     1      21.988  33.033  14.484  1.00  0.00     0.048 C 
BRANCH  26  29
HETATM   29  C32 UNL     1      21.206  32.634  16.737  1.00  0.00     0.267 C 
BRANCH  29  30
HETATM   30  N8  UNL     1      22.437  31.925  16.505  1.00  0.00    -0.076 N 
ATOM     31  H83 UNL     1      22.298  31.016  16.063  1.00  0.00     0.274 HD
ATOM     32  H82 UNL     1      23.008  32.343  15.770  1.00  0.00     0.274 HD
ATOM     33  H81 UNL     1      22.921  31.863  17.402  1.00  0.00     0.274 HD
ENDBRANCH  29  30
ENDBRANCH  26  29
ENDBRANCH  25  26
ENDBRANCH   6  25
BRANCH   1  34
HETATM   34  N3  UNL     1      18.451  30.780  14.576  1.00  0.00    -0.365 N 
HETATM   35  C2  UNL     1      18.872  29.590  15.220  1.00  0.00     0.119 C 
HETATM   36  C1  UNL     1      18.121  28.423  14.584  1.00  0.00     0.038 C 
HETATM   37  C3  UNL     1      20.358  29.453  14.971  1.00  0.00     0.088 C 
HETATM   38  N1  UNL     1      20.857  29.851  13.740  1.00  0.00    -0.366 N 
HETATM   39  C10 UNL     1      20.035  30.402  12.749  1.00  0.00     0.083 C 
HETATM   40  C11 UNL     1      18.631  30.742  13.109  1.00  0.00     0.168 C 
BRANCH  38  41
HETATM   41  C4  UNL     1      21.942  29.064  13.210  1.00  0.00     0.171 C 
BRANCH  41  42
HETATM   42  C5  UNL     1      21.504  28.054  12.178  1.00  0.00     0.078 C 
BRANCH  42  43
HETATM   43  N2  UNL     1      22.420  27.007  11.968  1.00  0.00    -0.388 N 
HETATM   44  C6  UNL     1      21.935  25.721  11.644  1.00  0.00     0.148 C 
HETATM   45  C7  UNL     1      23.068  24.980  10.935  1.00  0.00     0.187 C 
HETATM   46  O1  UNL     1      24.237  25.047  11.667  1.00  0.00    -0.388 OA
HETATM   47  C8  UNL     1      24.713  26.319  11.901  1.00  0.00     0.187 C 
HETATM   48  C9  UNL     1      23.678  27.310  11.399  1.00  0.00     0.148 C 
ENDBRANCH  42  43
ENDBRANCH  41  42
ENDBRANCH  38  41
ENDBRANCH   1  34
TORSDOF 12
ENDMDL
MODEL 2
REMARK VINA RESULT: -9.286309058      3.310     12.208
REMARK  12 active torsions:
REMARK  status: ('A' for Active; 'I' for Inactive)
REMARK    1  A    between atoms: N1_4  and  C4_5 
REMARK    2  A    between atoms: C4_5  and  C5_6 
REMARK    3  A    between atoms: C5_6  and  N2_7 
REMARK    4  A    between atoms: N3_15  and  C12_16 
REMARK    5  A    between atoms: C15_19  and  C16_20 
REMARK    6  A    between atoms: C16_20  and  N4_21 
REMARK    7  A    between atoms: N4_21  and  C17_23 
REMARK    8  A    between atoms: C18_26  and  N6_27 
REMARK    9  A    between atoms: C28_39  and  O2_40 
REMARK   10  A    between atoms: O2_40  and  C29_41 
REMARK   11  A    between atoms: C29_41  and  C32_44 
REMARK   12  A    between atoms: C32_44  and  N8_45 
ROOT
HETATM    1  C12 UNL     1      21.599  29.139  12.786  1.00  0.00     0.065 A 
HETATM    2  C13 UNL     1      22.888  28.549  12.775  1.00  0.00     0.033 A 
HETATM    3  C14 UNL     1      23.142  27.287  12.327  1.00  0.00     0.011 A 
HETATM    4  C15 UNL     1      22.074  26.537  11.854  1.00  0.00    -0.038 A 
HETATM    5  C27 UNL     1      20.824  27.088  11.852  1.00  0.00     0.048 A 
HETATM    6  C28 UNL     1      20.557  28.405  12.319  1.00  0.00     0.097 A 
ENDROOT
BRANCH   4   7
HETATM    7  C16 UNL     1      22.361  25.147  11.392  1.00  0.00     0.160 C 
BRANCH   7   8
HETATM    8  N4  UNL     1      21.182  24.316  11.513  1.00  0.00    -0.371 N 
ATOM      9  H4  UNL     1      20.945  23.877  12.402  1.00  0.00     0.161 HD
BRANCH   8  10
HETATM   10  C17 UNL     1      20.438  24.143  10.478  1.00  0.00     0.125 A 
HETATM   11  N5  UNL     1      20.917  23.981   9.226  1.00  0.00    -0.176 N 
HETATM   12  C18 UNL     1      20.128  23.799   8.144  1.00  0.00     0.681 A 
ATOM     13  H5  UNL     1      21.928  23.997   9.090  1.00  0.00     0.186 HD
HETATM   14  N7  UNL     1      18.797  23.781   8.349  1.00  0.00    -0.195 N 
HETATM   15  C21 UNL     1      18.261  23.939   9.591  1.00  0.00     0.036 A 
ATOM     16  H7  UNL     1      18.174  23.645   7.553  1.00  0.00     0.184 HD
HETATM   17  C22 UNL     1      19.075  24.125  10.684  1.00  0.00     0.009 A 
HETATM   18  C26 UNL     1      16.795  23.928   9.818  1.00  0.00     0.058 C 
HETATM   19  C23 UNL     1      18.424  24.287  12.009  1.00  0.00     0.044 C 
HETATM   20  C24 UNL     1      17.451  23.128  12.125  1.00  0.00     0.005 C 
HETATM   21  C25 UNL     1      16.500  23.014  10.981  1.00  0.00     0.006 C 
BRANCH  12  22
HETATM   22  N6  UNL     1      20.682  23.645   6.832  1.00  0.00    -0.226 N 
HETATM   23  C19 UNL     1      21.091  24.799   6.036  1.00  0.00     0.168 C 
HETATM   24  C20 UNL     1      20.869  22.331   6.252  1.00  0.00     0.168 C 
ENDBRANCH  12  22
ENDBRANCH   8  10
ENDBRANCH   7   8
ENDBRANCH   4   7
BRANCH   6  25
HETATM   25  O2  UNL     1      19.285  28.782  12.237  1.00  0.00    -0.337 OA
BRANCH  25  26
HETATM   26  C29 UNL     1      18.123  28.635  12.935  1.00  0.00     0.084 C 
HETATM   27  C30 UNL     1      17.167  27.559  12.646  1.00  0.00     0.048 C 
HETATM   28  C31 UNL     1      17.343  29.968  12.748  1.00  0.00     0.048 C 
BRANCH  26  29
HETATM   29  C32 UNL     1      18.380  28.606  14.456  1.00  0.00     0.267 C 
BRANCH  29  30
HETATM   30  N8  UNL     1      17.817  27.379  14.958  1.00  0.00    -0.076 N 
ATOM     31  H83 UNL     1      17.253  26.886  14.265  1.00  0.00     0.274 HD
ATOM     32  H82 UNL     1      18.515  26.649  15.103  1.00  0.00     0.274 HD
ATOM     33  H81 UNL     1      17.298  27.612  15.805  1.00  0.00     0.274 HD
ENDBRANCH  29  30
ENDBRANCH  26  29
ENDBRANCH  25  26
ENDBRANCH   6  25
BRANCH   1  34
HETATM   34  N3  UNL     1      21.570  30.412  13.385  1.00  0.00    -0.365 N 
HETATM   35  C2  UNL     1      22.006  30.776  14.684  1.00  0.00     0.119 C 
HETATM   36  C1  UNL     1      23.014  31.912  14.537  1.00  0.00     0.038 C 
HETATM   37  C3  UNL     1      20.788  31.251  15.443  1.00  0.00     0.088 C 
HETATM   38  N1  UNL     1      19.822  31.970  14.753  1.00  0.00    -0.366 N 
HETATM   39  C10 UNL     1      19.931  32.229  13.380  1.00  0.00     0.083 C 
HETATM   40  C11 UNL     1      21.014  31.548  12.620  1.00  0.00     0.168 C 
BRANCH  38  41
HETATM   41  C4  UNL     1      19.172  33.027  15.485  1.00  0.00     0.171 C 
BRANCH  41  42
HETATM   42  C5  UNL     1      17.738  32.718  15.838  1.00  0.00     0.078 C 
BRANCH  42  43
HETATM   43  N2  UNL     1      17.233  33.469  16.916  1.00  0.00    -0.388 N 
HETATM   44  C6  UNL     1      18.135  34.093  17.805  1.00  0.00     0.148 C 
HETATM   45  C7  UNL     1      17.384  35.245  18.472  1.00  0.00     0.187 C 
HETATM   46  O1  UNL     1      16.180  34.813  18.994  1.00  0.00    -0.388 OA
HETATM   47  C8  UNL     1      15.301  34.275  18.080  1.00  0.00     0.187 C 
HETATM   48  C9  UNL     1      16.015  34.167  16.744  1.00  0.00     0.148 C 
ENDBRANCH  42  43
ENDBRANCH  41  42
ENDBRANCH  38  41
ENDBRANCH   1  34
TORSDOF 12
ENDMDL
MODEL 3
REMARK VINA RESULT: -9.212782762      1.242      1.407
REMARK  12 active torsions:
REMARK  status: ('A' for Active; 'I' for Inactive)
REMARK    1  A    between atoms: N1_4  and  C4_5 
REMARK    2  A    between atoms: C4_5  and  C5_6 
REMARK    3  A    between atoms: C5_6  and  N2_7 
REMARK    4  A    between atoms: N3_15  and  C12_16 
REMARK    5  A    between atoms: C15_19  and  C16_20 
REMARK    6  A    between atoms: C16_20  and  N4_21 
REMARK    7  A    between atoms: N4_21  and  C17_23 
REMARK    8  A    between atoms: C18_26  and  N6_27 
REMARK    9  A    between atoms: C28_39  and  O2_40 
REMARK   10  A    between atoms: O2_40  and  C29_41 
REMARK   11  A    between atoms: C29_41  and  C32_44 
REMARK   12  A    between atoms: C32_44  and  N8_45 
ROOT
HETATM    1  C12 UNL     1      18.298  31.391  15.502  1.00  0.00     0.065 A 
HETATM    2  C13 UNL     1      16.964  31.814  15.726  1.00  0.00     0.033 A 
HETATM    3  C14 UNL     1      16.620  32.835  16.561  1.00  0.00     0.011 A 
HETATM    4  C15 UNL     1      17.639  33.498  17.231  1.00  0.00    -0.038 A 
HETATM    5  C27 UNL     1      18.932  33.108  17.027  1.00  0.00     0.048 A 
HETATM    6  C28 UNL     1      19.293  32.044  16.154  1.00  0.00     0.097 A 
ENDROOT
BRANCH   4   7
HETATM    7  C16 UNL     1      17.249  34.595  18.165  1.00  0.00     0.160 C 
BRANCH   7   8
HETATM    8  N4  UNL     1      18.362  34.965  19.011  1.00  0.00    -0.371 N 
ATOM      9  H4  UNL     1      18.827  34.267  19.592  1.00  0.00     0.161 HD
BRANCH   8  10
HETATM   10  C17 UNL     1      18.755  36.189  19.018  1.00  0.00     0.125 A 
HETATM   11  N5  UNL     1      17.921  37.246  19.111  1.00  0.00    -0.176 N 
HETATM   12  C18 UNL     1      18.342  38.531  19.118  1.00  0.00     0.681 A 
ATOM     13  H5  UNL     1      16.919  37.066  19.179  1.00  0.00     0.186 HD
HETATM   14  N7  UNL     1      19.669  38.743  19.028  1.00  0.00    -0.195 N 
HETATM   15  C21 UNL     1      20.555  37.713  18.933  1.00  0.00     0.036 A 
ATOM     16  H7  UNL     1      20.020  39.701  19.031  1.00  0.00     0.184 HD
HETATM   17  C22 UNL     1      20.113  36.410  18.926  1.00  0.00     0.009 A 
HETATM   18  C26 UNL     1      22.016  37.945  18.826  1.00  0.00     0.058 C 
HETATM   19  C23 UNL     1      21.134  35.336  18.824  1.00  0.00     0.044 C 
HETATM   20  C24 UNL     1      22.165  35.657  19.891  1.00  0.00     0.005 C 
HETATM   21  C25 UNL     1      22.716  37.041  19.809  1.00  0.00     0.006 C 
BRANCH  12  22
HETATM   22  N6  UNL     1      17.417  39.620  19.204  1.00  0.00    -0.226 N 
HETATM   23  C19 UNL     1      17.437  40.717  18.239  1.00  0.00     0.168 C 
HETATM   24  C20 UNL     1      16.416  39.667  20.250  1.00  0.00     0.168 C 
ENDBRANCH  12  22
ENDBRANCH   8  10
ENDBRANCH   7   8
ENDBRANCH   4   7
BRANCH   6  25
HETATM   25  O2  UNL     1      20.598  31.805  16.069  1.00  0.00    -0.337 OA
BRANCH  25  26
HETATM   26  C29 UNL     1      21.735  32.441  15.665  1.00  0.00     0.084 C 
HETATM   27  C30 UNL     1      21.704  33.727  14.958  1.00  0.00     0.048 C 
HETATM   28  C31 UNL     1      22.465  31.445  14.720  1.00  0.00     0.048 C 
BRANCH  26  29
HETATM   29  C32 UNL     1      22.735  32.596  16.830  1.00  0.00     0.267 C 
BRANCH  29  30
HETATM   30  N8  UNL     1      22.222  31.827  17.934  1.00  0.00    -0.076 N 
ATOM     31  H83 UNL     1      22.956  31.380  18.485  1.00  0.00     0.274 HD
ATOM     32  H82 UNL     1      21.833  32.406  18.678  1.00  0.00     0.274 HD
ATOM     33  H81 UNL     1      21.550  31.162  17.550  1.00  0.00     0.274 HD
ENDBRANCH  29  30
ENDBRANCH  26  29
ENDBRANCH  25  26
ENDBRANCH   6  25
BRANCH   1  34
HETATM   34  N3  UNL     1      18.395  30.256  14.675  1.00  0.00    -0.365 N 
HETATM   35  C2  UNL     1      18.925  28.983  14.999  1.00  0.00     0.119 C 
HETATM   36  C1  UNL     1      17.854  27.939  14.697  1.00  0.00     0.038 C 
HETATM   37  C3  UNL     1      20.131  28.766  14.113  1.00  0.00     0.088 C 
HETATM   38  N1  UNL     1      20.085  29.244  12.811  1.00  0.00    -0.366 N 
HETATM   39  C10 UNL     1      18.977  29.946  12.318  1.00  0.00     0.083 C 
HETATM   40  C11 UNL     1      17.914  30.347  13.280  1.00  0.00     0.168 C 
BRANCH  38  41
HETATM   41  C4  UNL     1      20.741  28.438  11.814  1.00  0.00     0.171 C 
BRANCH  41  42
HETATM   42  C5  UNL     1      20.682  26.958  12.104  1.00  0.00     0.078 C 
BRANCH  42  43
HETATM   43  N2  UNL     1      21.896  26.278  11.895  1.00  0.00    -0.388 N 
HETATM   44  C6  UNL     1      21.880  25.015  11.265  1.00  0.00     0.148 C 
HETATM   45  C7  UNL     1      23.270  24.792  10.669  1.00  0.00     0.187 C 
HETATM   46  O1  UNL     1      24.254  25.014  11.613  1.00  0.00    -0.388 OA
HETATM   47  C8  UNL     1      24.278  26.282  12.151  1.00  0.00     0.187 C 
HETATM   48  C9  UNL     1      23.062  27.036  11.640  1.00  0.00     0.148 C 
ENDBRANCH  42  43
ENDBRANCH  41  42
ENDBRANCH  38  41
ENDBRANCH   1  34
TORSDOF 12
ENDMDL
MODEL 4
REMARK VINA RESULT: -9.194498013      1.771      2.077
REMARK  12 active torsions:
REMARK  status: ('A' for Active; 'I' for Inactive)
REMARK    1  A    between atoms: N1_4  and  C4_5 
REMARK    2  A    between atoms: C4_5  and  C5_6 
REMARK    3  A    between atoms: C5_6  and  N2_7 
REMARK    4  A    between atoms: N3_15  and  C12_16 
REMARK    5  A    between atoms: C15_19  and  C16_20 
REMARK    6  A    between atoms: C16_20  and  N4_21 
REMARK    7  A    between atoms: N4_21  and  C17_23 
REMARK    8  A    between atoms: C18_26  and  N6_27 
REMARK    9  A    between atoms: C28_39  and  O2_40 
REMARK   10  A    between atoms: O2_40  and  C29_41 
REMARK   11  A    between atoms: C29_41  and  C32_44 
REMARK   12  A    between atoms: C32_44  and  N8_45 
ROOT
HETATM    1  C12 UNL     1      17.951  31.315  14.576  1.00  0.00     0.065 A 
HETATM    2  C13 UNL     1      16.742  31.526  15.286  1.00  0.00     0.033 A 
HETATM    3  C14 UNL     1      16.462  32.659  15.989  1.00  0.00     0.011 A 
HETATM    4  C15 UNL     1      17.418  33.665  16.010  1.00  0.00    -0.038 A 
HETATM    5  C27 UNL     1      18.589  33.483  15.330  1.00  0.00     0.048 A 
HETATM    6  C28 UNL     1      18.883  32.301  14.595  1.00  0.00     0.097 A 
ENDROOT
BRANCH   4   7
HETATM    7  C16 UNL     1      17.112  34.890  16.806  1.00  0.00     0.160 C 
BRANCH   7   8
HETATM    8  N4  UNL     1      18.193  35.187  17.722  1.00  0.00    -0.371 N 
ATOM      9  H4  UNL     1      18.404  34.558  18.497  1.00  0.00     0.161 HD
BRANCH   8  10
HETATM   10  C17 UNL     1      18.882  36.257  17.539  1.00  0.00     0.125 A 
HETATM   11  N5  UNL     1      18.339  37.467  17.289  1.00  0.00    -0.176 N 
HETATM   12  C18 UNL     1      19.071  38.588  17.099  1.00  0.00     0.681 A 
ATOM     13  H5  UNL     1      17.323  37.540  17.240  1.00  0.00     0.186 HD
HETATM   14  N7  UNL     1      20.411  38.467  17.168  1.00  0.00    -0.195 N 
HETATM   15  C21 UNL     1      21.009  37.270  17.419  1.00  0.00     0.036 A 
ATOM     16  H7  UNL     1      20.991  39.294  17.030  1.00  0.00     0.184 HD
HETATM   17  C22 UNL     1      20.253  36.137  17.609  1.00  0.00     0.009 A 
HETATM   18  C26 UNL     1      22.485  37.132  17.488  1.00  0.00     0.058 C 
HETATM   19  C23 UNL     1      20.972  34.866  17.882  1.00  0.00     0.044 C 
HETATM   20  C24 UNL     1      21.943  35.184  19.005  1.00  0.00     0.005 C 
HETATM   21  C25 UNL     1      22.834  36.349  18.728  1.00  0.00     0.006 C 
BRANCH  12  22
HETATM   22  N6  UNL     1      18.450  39.848  16.822  1.00  0.00    -0.226 N 
HETATM   23  C19 UNL     1      19.208  40.968  16.268  1.00  0.00     0.168 C 
HETATM   24  C20 UNL     1      17.038  40.054  17.071  1.00  0.00     0.168 C 
ENDBRANCH  12  22
ENDBRANCH   8  10
ENDBRANCH   7   8
ENDBRANCH   4   7
BRANCH   6  25
HETATM   25  O2  UNL     1      20.066  32.296  13.988  1.00  0.00    -0.337 OA
BRANCH  25  26
HETATM   26  C29 UNL     1      21.381  32.118  14.301  1.00  0.00     0.084 C 
HETATM   27  C30 UNL     1      22.292  33.247  14.528  1.00  0.00     0.048 C 
HETATM   28  C31 UNL     1      21.990  31.300  13.127  1.00  0.00     0.048 C 
BRANCH  26  29
HETATM   29  C32 UNL     1      21.549  31.162  15.501  1.00  0.00     0.267 C 
BRANCH  29  30
HETATM   30  N8  UNL     1      22.311  31.865  16.499  1.00  0.00    -0.076 N 
ATOM     31  H83 UNL     1      22.024  32.838  16.610  1.00  0.00     0.274 HD
ATOM     32  H82 UNL     1      22.104  31.558  17.450  1.00  0.00     0.274 HD
ATOM     33  H81 UNL     1      23.295  31.765  16.251  1.00  0.00     0.274 HD
ENDBRANCH  29  30
ENDBRANCH  26  29
ENDBRANCH  25  26
ENDBRANCH   6  25
BRANCH   1  34
HETATM   34  N3  UNL     1      18.051  30.030  14.010  1.00  0.00    -0.365 N 
HETATM   35  C2  UNL     1      18.761  28.909  14.509  1.00  0.00     0.119 C 
HETATM   36  C1  UNL     1      17.779  27.747  14.622  1.00  0.00     0.038 C 
HETATM   37  C3  UNL     1      19.842  28.585  13.502  1.00  0.00     0.088 C 
HETATM   38  N1  UNL     1      19.553  28.745  12.154  1.00  0.00    -0.366 N 
HETATM   39  C10 UNL     1      18.315  29.229  11.713  1.00  0.00     0.083 C 
HETATM   40  C11 UNL     1      17.366  29.760  12.728  1.00  0.00     0.168 C 
BRANCH  38  41
HETATM   41  C4  UNL     1      20.143  27.782  11.259  1.00  0.00     0.171 C 
BRANCH  41  42
HETATM   42  C5  UNL     1      20.398  26.441  11.904  1.00  0.00     0.078 C 
BRANCH  42  43
HETATM   43  N2  UNL     1      21.715  25.966  11.749  1.00  0.00    -0.388 N 
HETATM   44  C6  UNL     1      21.933  24.749  11.069  1.00  0.00     0.148 C 
HETATM   45  C7  UNL     1      23.375  24.773  10.559  1.00  0.00     0.187 C 
HETATM   46  O1  UNL     1      24.253  25.094  11.576  1.00  0.00    -0.388 OA
HETATM   47  C8  UNL     1      24.047  26.322  12.166  1.00  0.00     0.187 C 
HETATM   48  C9  UNL     1      22.761  26.906  11.605  1.00  0.00     0.148 C 
ENDBRANCH  42  43
ENDBRANCH  41  42
ENDBRANCH  38  41
ENDBRANCH   1  34
TORSDOF 12
ENDMDL
MODEL 5
REMARK VINA RESULT: -9.182569285      2.162      3.858
REMARK  12 active torsions:
REMARK  status: ('A' for Active; 'I' for Inactive)
REMARK    1  A    between atoms: N1_4  and  C4_5 
REMARK    2  A    between atoms: C4_5  and  C5_6 
REMARK    3  A    between atoms: C5_6  and  N2_7 
REMARK    4  A    between atoms: N3_15  and  C12_16 
REMARK    5  A    between atoms: C15_19  and  C16_20 
REMARK    6  A    between atoms: C16_20  and  N4_21 
REMARK    7  A    between atoms: N4_21  and  C17_23 
REMARK    8  A    between atoms: C18_26  and  N6_27 
REMARK    9  A    between atoms: C28_39  and  O2_40 
REMARK   10  A    between atoms: O2_40  and  C29_41 
REMARK   11  A    between atoms: C29_41  and  C32_44 
REMARK   12  A    between atoms: C32_44  and  N8_45 
ROOT
HETATM    1  C12 UNL     1      19.982  33.202  16.721  1.00  0.00     0.065 A 
HETATM    2  C13 UNL     1      21.264  33.695  17.070  1.00  0.00     0.033 A 
HETATM    3  C14 UNL     1      21.478  34.662  18.006  1.00  0.00     0.011 A 
HETATM    4  C15 UNL     1      20.373  35.194  18.655  1.00  0.00    -0.038 A 
HETATM    5  C27 UNL     1      19.128  34.731  18.338  1.00  0.00     0.048 A 
HETATM    6  C28 UNL     1      18.903  33.721  17.361  1.00  0.00     0.097 A 
ENDROOT
BRANCH   4   7
HETATM    7  C16 UNL     1      20.617  36.272  19.659  1.00  0.00     0.160 C 
BRANCH   7   8
HETATM    8  N4  UNL     1      21.300  37.392  19.048  1.00  0.00    -0.371 N 
ATOM      9  H4  UNL     1      22.274  37.594  19.277  1.00  0.00     0.161 HD
BRANCH   8  10
HETATM   10  C17 UNL     1      20.658  38.128  18.212  1.00  0.00     0.125 A 
HETATM   11  N5  UNL     1      19.336  38.390  18.301  1.00  0.00    -0.176 N 
HETATM   12  C18 UNL     1      18.668  39.165  17.418  1.00  0.00     0.681 A 
ATOM     13  H5  UNL     1      18.814  37.981  19.076  1.00  0.00     0.186 HD
HETATM   14  N7  UNL     1      19.379  39.694  16.403  1.00  0.00    -0.195 N 
HETATM   15  C21 UNL     1      20.713  39.462  16.267  1.00  0.00     0.036 A 
ATOM     16  H7  UNL     1      18.904  40.283  15.720  1.00  0.00     0.184 HD
HETATM   17  C22 UNL     1      21.381  38.671  17.172  1.00  0.00     0.009 A 
HETATM   18  C26 UNL     1      21.497  40.038  15.145  1.00  0.00     0.058 C 
HETATM   19  C23 UNL     1      22.838  38.463  16.964  1.00  0.00     0.044 C 
HETATM   20  C24 UNL     1      23.420  39.852  16.776  1.00  0.00     0.005 C 
HETATM   21  C25 UNL     1      22.753  40.653  15.708  1.00  0.00     0.006 C 
BRANCH  12  22
HETATM   22  N6  UNL     1      17.262  39.403  17.547  1.00  0.00    -0.226 N 
HETATM   23  C19 UNL     1      16.643  40.621  17.029  1.00  0.00     0.168 C 
HETATM   24  C20 UNL     1      16.398  38.434  18.187  1.00  0.00     0.168 C 
ENDBRANCH  12  22
ENDBRANCH   8  10
ENDBRANCH   7   8
ENDBRANCH   4   7
BRANCH   6  25
HETATM   25  O2  UNL     1      17.629  33.385  17.184  1.00  0.00    -0.337 OA
BRANCH  25  26
HETATM   26  C29 UNL     1      16.507  33.884  16.592  1.00  0.00     0.084 C 
HETATM   27  C30 UNL     1      15.572  34.764  17.303  1.00  0.00     0.048 C 
HETATM   28  C31 UNL     1      15.679  32.648  16.140  1.00  0.00     0.048 C 
BRANCH  26  29
HETATM   29  C32 UNL     1      16.839  34.576  15.253  1.00  0.00     0.267 C 
BRANCH  29  30
HETATM   30  N8  UNL     1      16.895  35.991  15.510  1.00  0.00    -0.076 N 
ATOM     31  H83 UNL     1      16.197  36.303  16.185  1.00  0.00     0.274 HD
ATOM     32  H82 UNL     1      17.722  36.270  16.038  1.00  0.00     0.274 HD
ATOM     33  H81 UNL     1      16.818  36.463  14.608  1.00  0.00     0.274 HD
ENDBRANCH  29  30
ENDBRANCH  26  29
ENDBRANCH  25  26
ENDBRANCH   6  25
BRANCH   1  34
HETATM   34  N3  UNL     1      20.006  32.278  15.661  1.00  0.00    -0.365 N 
HETATM   35  C2  UNL     1      19.053  31.273  15.357  1.00  0.00     0.119 C 
HETATM   36  C1  UNL     1      18.602  31.478  13.914  1.00  0.00     0.038 C 
HETATM   37  C3  UNL     1      19.754  29.940  15.501  1.00  0.00     0.088 C 
HETATM   38  N1  UNL     1      21.082  29.850  15.111  1.00  0.00    -0.366 N 
HETATM   39  C10 UNL     1      21.790  30.959  14.628  1.00  0.00     0.083 C 
HETATM   40  C11 UNL     1      21.148  32.298  14.722  1.00  0.00     0.168 C 
BRANCH  38  41
HETATM   41  C4  UNL     1      21.484  28.607  14.504  1.00  0.00     0.171 C 
BRANCH  41  42
HETATM   42  C5  UNL     1      22.215  28.786  13.196  1.00  0.00     0.078 C 
BRANCH  42  43
HETATM   43  N2  UNL     1      22.803  27.609  12.696  1.00  0.00    -0.388 N 
HETATM   44  C6  UNL     1      21.976  26.523  12.337  1.00  0.00     0.148 C 
HETATM   45  C7  UNL     1      22.761  25.671  11.341  1.00  0.00     0.187 C 
HETATM   46  O1  UNL     1      24.018  25.371  11.829  1.00  0.00    -0.388 OA
HETATM   47  C8  UNL     1      24.819  26.459  12.100  1.00  0.00     0.187 C 
HETATM   48  C9  UNL     1      23.984  27.716  11.925  1.00  0.00     0.148 C 
ENDBRANCH  42  43
ENDBRANCH  41  42
ENDBRANCH  38  41
ENDBRANCH   1  34
TORSDOF 12
ENDMDL
