MODEL 1
REMARK VINA RESULT: -9.177448184      0.000      0.000
REMARK  12 active torsions:
REMARK  status: ('A' for Active; 'I' for Inactive)
REMARK    1  A    between atoms: C2_2  and  C3_3 
REMARK    2  A    between atoms: C5_7  and  N2_8 
REMARK    3  A    between atoms: N3_11  and  C6_12 
REMARK    4  A    between atoms: C6_12  and  C7_13 
REMARK    5  A    between atoms: C7_13  and  C8_14 
REMARK       I    between atoms: C8_14  and  N4_16 
REMARK    6  A    between atoms: N5_19  and  C11_20 
REMARK    7  A    between atoms: C11_20  and  C12_21 
REMARK    8  A    between atoms: N6_28  and  C16_29 
REMARK    9  A    between atoms: C16_29  and  C17_30 
REMARK   10  A    between atoms: C27_42  and  N8_43 
REMARK   11  A    between atoms: N8_43  and  C28_44 
REMARK   12  A    between atoms: N8_43  and  C30_46 
ROOT
HETATM    1  C3  UNL     1      19.797  22.698  19.671  1.00  0.00     0.054 A 
HETATM    2  N1  UNL     1      18.940  22.324  18.661  1.00  0.00    -0.350 N 
ATOM      3  H1  UNL     1      18.529  21.391  18.675  1.00  0.00     0.166 HD
HETATM    4  C4  UNL     1      18.638  23.156  17.665  1.00  0.00     0.122 A 
HETATM    5  C5  UNL     1      17.812  22.722  16.662  1.00  0.00     0.136 A 
HETATM    6  N3  UNL     1      17.570  23.576  15.665  1.00  0.00    -0.283 N 
HETATM    7  C15 UNL     1      18.121  24.819  15.659  1.00  0.00     0.336 A 
HETATM    8  O4  UNL     1      17.817  25.518  14.682  1.00  0.00    -0.246 OA
HETATM    9  N6  UNL     1      18.928  25.302  16.601  1.00  0.00    -0.257 N 
HETATM   10  C26 UNL     1      19.189  24.432  17.634  1.00  0.00     0.148 A 
HETATM   11  N7  UNL     1      19.996  24.750  18.605  1.00  0.00    -0.325 N 
ATOM     12  H7  UNL     1      20.401  25.685  18.579  1.00  0.00     0.169 HD
HETATM   13  C27 UNL     1      20.359  23.941  19.671  1.00  0.00     0.128 A 
ENDROOT
BRANCH   6  14
HETATM   14  C6  UNL     1      16.704  23.133  14.594  1.00  0.00     0.145 C 
BRANCH  14  15
HETATM   15  C7  UNL     1      15.283  23.374  15.072  1.00  0.00     0.123 C 
BRANCH  15  16
HETATM   16  C8  UNL     1      14.416  22.186  14.770  1.00  0.00     0.221 C 
HETATM   17  O1  UNL     1      14.191  21.811  13.598  1.00  0.00    -0.273 OA
HETATM   18  N4  UNL     1      13.830  21.464  15.835  1.00  0.00    -0.349 N 
HETATM   19  C9  UNL     1      14.079  21.873  17.198  1.00  0.00     0.156 C 
HETATM   20  C14 UNL     1      12.988  20.323  15.594  1.00  0.00     0.156 C 
HETATM   21  C10 UNL     1      14.086  20.591  18.021  1.00  0.00     0.293 C 
HETATM   22  N5  UNL     1      12.751  20.070  18.046  1.00  0.00     0.101 N 
HETATM   23  C13 UNL     1      12.077  20.055  16.789  1.00  0.00     0.293 C 
BRANCH  22  24
HETATM   24  C11 UNL     1      12.667  18.759  18.648  1.00  0.00     0.385 C 
BRANCH  24  25
HETATM   25  C12 UNL     1      12.300  18.759  20.068  1.00  0.00     0.202 C 
HETATM   26  O2  UNL     1      11.146  18.581  20.495  1.00  0.00    -0.647 OA
HETATM   27  O3  UNL     1      13.314  18.975  21.010  1.00  0.00    -0.647 OA
ENDBRANCH  24  25
ENDBRANCH  22  24
ENDBRANCH  15  16
ENDBRANCH  14  15
ENDBRANCH   6  14
BRANCH   5  28
HETATM   28  N2  UNL     1      17.318  21.537  16.720  1.00  0.00    -0.383 N 
ATOM     29  H22 UNL     1      16.956  21.118  17.577  1.00  0.00     0.157 HD
ATOM     30  H21 UNL     1      17.275  20.970  15.874  1.00  0.00     0.157 HD
ENDBRANCH   5  28
BRANCH   9  31
HETATM   31  C16 UNL     1      19.603  26.523  16.525  1.00  0.00     0.116 C 
BRANCH  31  32
HETATM   32  C17 UNL     1      21.049  26.636  16.399  1.00  0.00    -0.008 A 
HETATM   33  C18 UNL     1      21.782  26.234  15.325  1.00  0.00    -0.049 A 
HETATM   34  C19 UNL     1      21.185  25.547  14.135  1.00  0.00     0.049 C 
HETATM   35  C20 UNL     1      23.167  26.451  15.301  1.00  0.00     0.014 A 
HETATM   36  C21 UNL     1      23.836  27.061  16.331  1.00  0.00    -0.061 A 
HETATM   37  C22 UNL     1      25.285  27.259  16.247  1.00  0.00     0.048 C 
HETATM   38  C23 UNL     1      23.075  27.456  17.396  1.00  0.00     0.014 A 
HETATM   39  C24 UNL     1      21.723  27.270  17.471  1.00  0.00    -0.049 A 
HETATM   40  C25 UNL     1      20.958  27.803  18.657  1.00  0.00     0.049 C 
ENDBRANCH  31  32
ENDBRANCH   9  31
BRANCH   1  41
HETATM   41  C2  UNL     1      20.008  21.694  20.751  1.00  0.00     0.056 C 
HETATM   42  C1  UNL     1      18.771  21.359  21.522  1.00  0.00     0.011 C 
ENDBRANCH   1  41
BRANCH  13  43
HETATM   43  N8  UNL     1      21.270  24.484  20.583  1.00  0.00    -0.366 N 
BRANCH  43  44
HETATM   44  C28 UNL     1      22.583  24.018  20.841  1.00  0.00     0.120 C 
HETATM   45  C29 UNL     1      23.520  24.391  19.707  1.00  0.00     0.026 C 
ENDBRANCH  43  44
BRANCH  43  46
HETATM   46  C30 UNL     1      20.820  25.602  21.434  1.00  0.00     0.120 C 
HETATM   47  C31 UNL     1      21.926  26.482  21.895  1.00  0.00     0.026 C 
ENDBRANCH  43  46
ENDBRANCH  13  43
TORSDOF 12
ENDMDL
MODEL 2
REMARK VINA RESULT: -8.977668398      2.413     10.709
REMARK  12 active torsions:
REMARK  status: ('A' for Active; 'I' for Inactive)
REMARK    1  A    between atoms: C2_2  and  C3_3 
REMARK    2  A    between atoms: C5_7  and  N2_8 
REMARK    3  A    between atoms: N3_11  and  C6_12 
REMARK    4  A    between atoms: C6_12  and  C7_13 
REMARK    5  A    between atoms: C7_13  and  C8_14 
REMARK       I    between atoms: C8_14  and  N4_16 
REMARK    6  A    between atoms: N5_19  and  C11_20 
REMARK    7  A    between atoms: C11_20  and  C12_21 
REMARK    8  A    between atoms: N6_28  and  C16_29 
REMARK    9  A    between atoms: C16_29  and  C17_30 
REMARK   10  A    between atoms: C27_42  and  N8_43 
REMARK   11  A    between atoms: N8_43  and  C28_44 
REMARK   12  A    between atoms: N8_43  and  C30_46 
ROOT
HETATM    1  C3  UNL     1      14.767  21.081  14.351  1.00  0.00     0.054 A 
HETATM    2  N1  UNL     1      15.775  21.354  15.248  1.00  0.00    -0.350 N 
ATOM      3  H1  UNL     1      16.684  21.658  14.901  1.00  0.00     0.166 HD
HETATM    4  C4  UNL     1      15.585  21.229  16.561  1.00  0.00     0.122 A 
HETATM    5  C5  UNL     1      16.632  21.472  17.410  1.00  0.00     0.136 A 
HETATM    6  N3  UNL     1      16.407  21.295  18.714  1.00  0.00    -0.283 N 
HETATM    7  C15 UNL     1      15.189  20.893  19.166  1.00  0.00     0.336 A 
HETATM    8  O4  UNL     1      15.105  20.768  20.396  1.00  0.00    -0.246 OA
HETATM    9  N6  UNL     1      14.132  20.641  18.396  1.00  0.00    -0.257 N 
HETATM   10  C26 UNL     1      14.350  20.818  17.049  1.00  0.00     0.148 A 
HETATM   11  N7  UNL     1      13.422  20.567  16.170  1.00  0.00    -0.325 N 
ATOM     12  H7  UNL     1      12.518  20.264  16.530  1.00  0.00     0.169 HD
HETATM   13  C27 UNL     1      13.544  20.673  14.794  1.00  0.00     0.128 A 
ENDROOT
BRANCH   6  14
HETATM   14  C6  UNL     1      17.502  21.543  19.627  1.00  0.00     0.145 C 
BRANCH  14  15
HETATM   15  C7  UNL     1      17.569  23.048  19.807  1.00  0.00     0.123 C 
BRANCH  15  16
HETATM   16  C8  UNL     1      18.996  23.515  19.815  1.00  0.00     0.221 C 
HETATM   17  O1  UNL     1      19.820  23.114  20.666  1.00  0.00    -0.273 OA
HETATM   18  N4  UNL     1      19.432  24.439  18.836  1.00  0.00    -0.349 N 
HETATM   19  C9  UNL     1      18.502  24.915  17.839  1.00  0.00     0.156 C 
HETATM   20  C14 UNL     1      20.788  24.919  18.809  1.00  0.00     0.156 C 
HETATM   21  C10 UNL     1      19.326  25.136  16.576  1.00  0.00     0.293 C 
HETATM   22  N5  UNL     1      20.200  26.249  16.804  1.00  0.00     0.101 N 
HETATM   23  C13 UNL     1      20.882  26.244  18.057  1.00  0.00     0.293 C 
BRANCH  22  24
HETATM   24  C11 UNL     1      21.158  26.442  15.740  1.00  0.00     0.385 C 
BRANCH  24  25
HETATM   25  C12 UNL     1      21.095  27.755  15.090  1.00  0.00     0.202 C 
HETATM   26  O2  UNL     1      20.386  28.698  15.481  1.00  0.00    -0.647 OA
HETATM   27  O3  UNL     1      21.885  27.965  13.953  1.00  0.00    -0.647 OA
ENDBRANCH  24  25
ENDBRANCH  22  24
ENDBRANCH  15  16
ENDBRANCH  14  15
ENDBRANCH   6  14
BRANCH   5  28
HETATM   28  N2  UNL     1      17.761  21.852  16.929  1.00  0.00    -0.383 N 
ATOM     29  H22 UNL     1      18.608  21.285  16.962  1.00  0.00     0.157 HD
ATOM     30  H21 UNL     1      17.833  22.766  16.483  1.00  0.00     0.157 HD
ENDBRANCH   5  28
BRANCH   9  31
HETATM   31  C16 UNL     1      12.927  20.096  18.847  1.00  0.00     0.116 C 
BRANCH  31  32
HETATM   32  C17 UNL     1      12.405  18.815  18.392  1.00  0.00    -0.008 A 
HETATM   33  C18 UNL     1      12.967  17.601  18.638  1.00  0.00    -0.049 A 
HETATM   34  C19 UNL     1      14.264  17.430  19.368  1.00  0.00     0.049 C 
HETATM   35  C20 UNL     1      12.333  16.433  18.193  1.00  0.00     0.014 A 
HETATM   36  C21 UNL     1      11.147  16.453  17.505  1.00  0.00    -0.061 A 
HETATM   37  C22 UNL     1      10.534  15.197  17.066  1.00  0.00     0.048 C 
HETATM   38  C23 UNL     1      10.603  17.686  17.273  1.00  0.00     0.014 A 
HETATM   39  C24 UNL     1      11.178  18.856  17.685  1.00  0.00    -0.049 A 
HETATM   40  C25 UNL     1      10.468  20.165  17.444  1.00  0.00     0.049 C 
ENDBRANCH  31  32
ENDBRANCH   9  31
BRANCH   1  41
HETATM   41  C2  UNL     1      15.094  21.313  12.915  1.00  0.00     0.056 C 
HETATM   42  C1  UNL     1      14.730  22.677  12.421  1.00  0.00     0.011 C 
ENDBRANCH   1  41
BRANCH  13  43
HETATM   43  N8  UNL     1      12.419  20.319  14.040  1.00  0.00    -0.366 N 
BRANCH  43  44
HETATM   44  C28 UNL     1      11.173  20.993  14.021  1.00  0.00     0.120 C 
HETATM   45  C29 UNL     1      11.353  22.470  14.322  1.00  0.00     0.026 C 
ENDBRANCH  43  44
BRANCH  43  46
HETATM   46  C30 UNL     1      12.478  19.081  13.240  1.00  0.00     0.120 C 
HETATM   47  C31 UNL     1      11.324  18.171  13.466  1.00  0.00     0.026 C 
ENDBRANCH  43  46
ENDBRANCH  13  43
TORSDOF 12
ENDMDL
MODEL 3
REMARK VINA RESULT: -8.955944199      0.154      1.312
REMARK  12 active torsions:
REMARK  status: ('A' for Active; 'I' for Inactive)
REMARK    1  A    between atoms: C2_2  and  C3_3 
REMARK    2  A    between atoms: C5_7  and  N2_8 
REMARK    3  A    between atoms: N3_11  and  C6_12 
REMARK    4  A    between atoms: C6_12  and  C7_13 
REMARK    5  A    between atoms: C7_13  and  C8_14 
REMARK       I    between atoms: C8_14  and  N4_16 
REMARK    6  A    between atoms: N5_19  and  C11_20 
REMARK    7  A    between atoms: C11_20  and  C12_21 
REMARK    8  A    between atoms: N6_28  and  C16_29 
REMARK    9  A    between atoms: C16_29  and  C17_30 
REMARK   10  A    between atoms: C27_42  and  N8_43 
REMARK   11  A    between atoms: N8_43  and  C28_44 
REMARK   12  A    between atoms: N8_43  and  C30_46 
ROOT
HETATM    1  C3  UNL     1      19.820  22.800  19.620  1.00  0.00     0.054 A 
HETATM    2  N1  UNL     1      18.969  22.392  18.617  1.00  0.00    -0.350 N 
ATOM      3  H1  UNL     1      18.593  21.445  18.636  1.00  0.00     0.166 HD
HETATM    4  C4  UNL     1      18.629  23.211  17.623  1.00  0.00     0.122 A 
HETATM    5  C5  UNL     1      17.812  22.745  16.627  1.00  0.00     0.136 A 
HETATM    6  N3  UNL     1      17.530  23.587  15.631  1.00  0.00    -0.283 N 
HETATM    7  C15 UNL     1      18.034  24.850  15.618  1.00  0.00     0.336 A 
HETATM    8  O4  UNL     1      17.697  25.536  14.642  1.00  0.00    -0.246 OA
HETATM    9  N6  UNL     1      18.831  25.365  16.553  1.00  0.00    -0.257 N 
HETATM   10  C26 UNL     1      19.132  24.507  17.586  1.00  0.00     0.148 A 
HETATM   11  N7  UNL     1      19.934  24.856  18.550  1.00  0.00    -0.325 N 
ATOM     12  H7  UNL     1      20.305  25.806  18.519  1.00  0.00     0.169 HD
HETATM   13  C27 UNL     1      20.335  24.063  19.613  1.00  0.00     0.128 A 
ENDROOT
BRANCH   6  14
HETATM   14  C6  UNL     1      16.672  23.111  14.567  1.00  0.00     0.145 C 
BRANCH  14  15
HETATM   15  C7  UNL     1      15.248  23.344  15.037  1.00  0.00     0.123 C 
BRANCH  15  16
HETATM   16  C8  UNL     1      14.397  22.138  14.759  1.00  0.00     0.221 C 
HETATM   17  O1  UNL     1      14.165  21.745  13.594  1.00  0.00    -0.273 OA
HETATM   18  N4  UNL     1      13.834  21.419  15.839  1.00  0.00    -0.349 N 
HETATM   19  C9  UNL     1      14.091  21.849  17.194  1.00  0.00     0.156 C 
HETATM   20  C14 UNL     1      13.008  20.262  15.621  1.00  0.00     0.156 C 
HETATM   21  C10 UNL     1      14.128  20.577  18.032  1.00  0.00     0.293 C 
HETATM   22  N5  UNL     1      12.802  20.035  18.078  1.00  0.00     0.101 N 
HETATM   23  C13 UNL     1      12.114  19.994  16.829  1.00  0.00     0.293 C 
BRANCH  22  24
HETATM   24  C11 UNL     1      12.746  18.730  18.697  1.00  0.00     0.385 C 
BRANCH  24  25
HETATM   25  C12 UNL     1      12.243  18.726  20.074  1.00  0.00     0.202 C 
HETATM   26  O2  UNL     1      11.061  18.502  20.388  1.00  0.00    -0.647 OA
HETATM   27  O3  UNL     1      13.149  18.993  21.107  1.00  0.00    -0.647 OA
ENDBRANCH  24  25
ENDBRANCH  22  24
ENDBRANCH  15  16
ENDBRANCH  14  15
ENDBRANCH   6  14
BRANCH   5  28
HETATM   28  N2  UNL     1      17.362  21.543  16.691  1.00  0.00    -0.383 N 
ATOM     29  H22 UNL     1      17.656  20.795  16.062  1.00  0.00     0.157 HD
ATOM     30  H21 UNL     1      16.673  21.303  17.404  1.00  0.00     0.157 HD
ENDBRANCH   5  28
BRANCH   9  31
HETATM   31  C16 UNL     1      19.460  26.610  16.469  1.00  0.00     0.116 C 
BRANCH  31  32
HETATM   32  C17 UNL     1      20.905  26.779  16.433  1.00  0.00    -0.008 A 
HETATM   33  C18 UNL     1      21.665  27.291  17.439  1.00  0.00    -0.049 A 
HETATM   34  C19 UNL     1      21.089  27.819  18.716  1.00  0.00     0.049 C 
HETATM   35  C20 UNL     1      23.060  27.348  17.303  1.00  0.00     0.014 A 
HETATM   36  C21 UNL     1      23.711  26.906  16.180  1.00  0.00    -0.061 A 
HETATM   37  C22 UNL     1      25.170  26.994  16.098  1.00  0.00     0.048 C 
HETATM   38  C23 UNL     1      22.922  26.396  15.186  1.00  0.00     0.014 A 
HETATM   39  C24 UNL     1      21.561  26.315  15.266  1.00  0.00    -0.049 A 
HETATM   40  C25 UNL     1      20.780  25.672  14.147  1.00  0.00     0.049 C 
ENDBRANCH  31  32
ENDBRANCH   9  31
BRANCH   1  41
HETATM   41  C2  UNL     1      20.076  21.806  20.700  1.00  0.00     0.056 C 
HETATM   42  C1  UNL     1      18.844  21.352  21.415  1.00  0.00     0.011 C 
ENDBRANCH   1  41
BRANCH  13  43
HETATM   43  N8  UNL     1      21.233  24.641  20.517  1.00  0.00    -0.366 N 
BRANCH  43  44
HETATM   44  C28 UNL     1      22.556  24.210  20.782  1.00  0.00     0.120 C 
HETATM   45  C29 UNL     1      23.463  24.492  19.598  1.00  0.00     0.026 C 
ENDBRANCH  43  44
BRANCH  43  46
HETATM   46  C30 UNL     1      20.757  25.761  21.352  1.00  0.00     0.120 C 
HETATM   47  C31 UNL     1      21.852  26.524  22.005  1.00  0.00     0.026 C 
ENDBRANCH  43  46
ENDBRANCH  13  43
TORSDOF 12
ENDMDL
MODEL 4
REMARK VINA RESULT: -8.920575977      2.191      4.796
REMARK  12 active torsions:
REMARK  status: ('A' for Active; 'I' for Inactive)
REMARK    1  A    between atoms: C2_2  and  C3_3 
REMARK    2  A    between atoms: C5_7  and  N2_8 
REMARK    3  A    between atoms: N3_11  and  C6_12 
REMARK    4  A    between atoms: C6_12  and  C7_13 
REMARK    5  A    between atoms: C7_13  and  C8_14 
REMARK       I    between atoms: C8_14  and  N4_16 
REMARK    6  A    between atoms: N5_19  and  C11_20 
REMARK    7  A    between atoms: C11_20  and  C12_21 
REMARK    8  A    between atoms: N6_28  and  C16_29 
REMARK    9  A    between atoms: C16_29  and  C17_30 
REMARK   10  A    between atoms: C27_42  and  N8_43 
REMARK   11  A    between atoms: N8_43  and  C28_44 
REMARK   12  A    between atoms: N8_43  and  C30_46 
ROOT
HETATM    1  C3  UNL     1      19.843  25.630  15.361  1.00  0.00     0.054 A 
HETATM    2  N1  UNL     1      18.773  24.765  15.335  1.00  0.00    -0.350 N 
ATOM      3  H1  UNL     1      18.084  24.844  14.587  1.00  0.00     0.166 HD
HETATM    4  C4  UNL     1      18.619  23.825  16.267  1.00  0.00     0.122 A 
HETATM    5  C5  UNL     1      17.515  23.016  16.220  1.00  0.00     0.136 A 
HETATM    6  N3  UNL     1      17.381  22.117  17.197  1.00  0.00    -0.283 N 
HETATM    7  C15 UNL     1      18.308  22.016  18.188  1.00  0.00     0.336 A 
HETATM    8  O4  UNL     1      18.073  21.142  19.034  1.00  0.00    -0.246 OA
HETATM    9  N6  UNL     1      19.401  22.770  18.291  1.00  0.00    -0.257 N 
HETATM   10  C26 UNL     1      19.551  23.703  17.292  1.00  0.00     0.148 A 
HETATM   11  N7  UNL     1      20.548  24.540  17.284  1.00  0.00    -0.325 N 
ATOM     12  H7  UNL     1      21.229  24.450  18.038  1.00  0.00     0.169 HD
HETATM   13  C27 UNL     1      20.774  25.541  16.353  1.00  0.00     0.128 A 
ENDROOT
BRANCH   6  14
HETATM   14  C6  UNL     1      16.219  21.255  17.167  1.00  0.00     0.145 C 
BRANCH  14  15
HETATM   15  C7  UNL     1      15.151  21.956  17.987  1.00  0.00     0.123 C 
BRANCH  15  16
HETATM   16  C8  UNL     1      14.728  21.100  19.145  1.00  0.00     0.221 C 
HETATM   17  O1  UNL     1      15.130  21.315  20.310  1.00  0.00    -0.273 OA
HETATM   18  N4  UNL     1      13.850  20.013  18.923  1.00  0.00    -0.349 N 
HETATM   19  C9  UNL     1      13.367  19.746  17.588  1.00  0.00     0.156 C 
HETATM   20  C14 UNL     1      13.423  19.162  20.001  1.00  0.00     0.156 C 
HETATM   21  C10 UNL     1      11.958  19.195  17.760  1.00  0.00     0.293 C 
HETATM   22  N5  UNL     1      12.057  17.899  18.366  1.00  0.00     0.101 N 
HETATM   23  C13 UNL     1      12.951  17.809  19.473  1.00  0.00     0.293 C 
BRANCH  22  24
HETATM   24  C11 UNL     1      10.773  17.352  18.743  1.00  0.00     0.385 C 
BRANCH  24  25
HETATM   25  C12 UNL     1      10.367  16.165  17.983  1.00  0.00     0.202 C 
HETATM   26  O2  UNL     1       9.242  15.640  18.050  1.00  0.00    -0.647 OA
HETATM   27  O3  UNL     1      11.305  15.581  17.123  1.00  0.00    -0.647 OA
ENDBRANCH  24  25
ENDBRANCH  22  24
ENDBRANCH  15  16
ENDBRANCH  14  15
ENDBRANCH   6  14
BRANCH   5  28
HETATM   28  N2  UNL     1      16.672  23.153  15.260  1.00  0.00    -0.383 N 
ATOM     29  H22 UNL     1      16.872  23.670  14.403  1.00  0.00     0.157 HD
ATOM     30  H21 UNL     1      15.748  22.728  15.340  1.00  0.00     0.157 HD
ENDBRANCH   5  28
BRANCH   9  31
HETATM   31  C16 UNL     1      20.276  22.761  19.380  1.00  0.00     0.116 C 
BRANCH  31  32
HETATM   32  C17 UNL     1      20.601  23.948  20.160  1.00  0.00    -0.008 A 
HETATM   33  C18 UNL     1      19.700  24.760  20.774  1.00  0.00    -0.049 A 
HETATM   34  C19 UNL     1      18.218  24.569  20.668  1.00  0.00     0.049 C 
HETATM   35  C20 UNL     1      20.144  25.842  21.546  1.00  0.00     0.014 A 
HETATM   36  C21 UNL     1      21.474  26.131  21.716  1.00  0.00    -0.061 A 
HETATM   37  C22 UNL     1      21.875  27.278  22.534  1.00  0.00     0.048 C 
HETATM   38  C23 UNL     1      22.358  25.298  21.088  1.00  0.00     0.014 A 
HETATM   39  C24 UNL     1      21.980  24.229  20.325  1.00  0.00    -0.049 A 
HETATM   40  C25 UNL     1      23.029  23.324  19.729  1.00  0.00     0.049 C 
ENDBRANCH  31  32
ENDBRANCH   9  31
BRANCH   1  41
HETATM   41  C2  UNL     1      19.926  26.597  14.230  1.00  0.00     0.056 C 
HETATM   42  C1  UNL     1      19.750  28.025  14.636  1.00  0.00     0.011 C 
ENDBRANCH   1  41
BRANCH  13  43
HETATM   43  N8  UNL     1      21.900  26.345  16.564  1.00  0.00    -0.366 N 
BRANCH  43  44
HETATM   44  C28 UNL     1      22.128  27.200  17.670  1.00  0.00     0.120 C 
HETATM   45  C29 UNL     1      20.825  27.533  18.374  1.00  0.00     0.026 C 
ENDBRANCH  43  44
BRANCH  43  46
HETATM   46  C30 UNL     1      22.931  26.390  15.510  1.00  0.00     0.120 C 
HETATM   47  C31 UNL     1      23.695  27.665  15.480  1.00  0.00     0.026 C 
ENDBRANCH  43  46
ENDBRANCH  13  43
TORSDOF 12
ENDMDL
MODEL 5
REMARK VINA RESULT: -8.906278198      1.936      4.377
REMARK  12 active torsions:
REMARK  status: ('A' for Active; 'I' for Inactive)
REMARK    1  A    between atoms: C2_2  and  C3_3 
REMARK    2  A    between atoms: C5_7  and  N2_8 
REMARK    3  A    between atoms: N3_11  and  C6_12 
REMARK    4  A    between atoms: C6_12  and  C7_13 
REMARK    5  A    between atoms: C7_13  and  C8_14 
REMARK       I    between atoms: C8_14  and  N4_16 
REMARK    6  A    between atoms: N5_19  and  C11_20 
REMARK    7  A    between atoms: C11_20  and  C12_21 
REMARK    8  A    between atoms: N6_28  and  C16_29 
REMARK    9  A    between atoms: C16_29  and  C17_30 
REMARK   10  A    between atoms: C27_42  and  N8_43 
REMARK   11  A    between atoms: N8_43  and  C28_44 
REMARK   12  A    between atoms: N8_43  and  C30_46 
ROOT
HETATM    1  C3  UNL     1      21.216  26.415  15.883  1.00  0.00     0.054 A 
HETATM    2  N1  UNL     1      20.059  25.670  15.916  1.00  0.00    -0.350 N 
ATOM      3  H1  UNL     1      19.558  25.486  15.047  1.00  0.00     0.166 HD
HETATM    4  C4  UNL     1      19.580  25.185  17.061  1.00  0.00     0.122 A 
HETATM    5  C5  UNL     1      18.403  24.484  17.046  1.00  0.00     0.136 A 
HETATM    6  N3  UNL     1      17.940  24.052  18.222  1.00  0.00    -0.283 N 
HETATM    7  C15 UNL     1      18.619  24.300  19.374  1.00  0.00     0.336 A 
HETATM    8  O4  UNL     1      18.089  23.844  20.398  1.00  0.00    -0.246 OA
HETATM    9  N6  UNL     1      19.765  24.972  19.457  1.00  0.00    -0.257 N 
HETATM   10  C26 UNL     1      20.253  25.426  18.254  1.00  0.00     0.148 A 
HETATM   11  N7  UNL     1      21.342  26.135  18.183  1.00  0.00    -0.325 N 
ATOM     12  H7  UNL     1      21.833  26.313  19.060  1.00  0.00     0.169 HD
HETATM   13  C27 UNL     1      21.899  26.673  17.034  1.00  0.00     0.128 A 
ENDROOT
BRANCH   6  14
HETATM   14  C6  UNL     1      16.696  23.314  18.227  1.00  0.00     0.145 C 
BRANCH  14  15
HETATM   15  C7  UNL     1      17.049  21.888  17.846  1.00  0.00     0.123 C 
BRANCH  15  16
HETATM   16  C8  UNL     1      16.080  21.359  16.828  1.00  0.00     0.221 C 
HETATM   17  O1  UNL     1      16.234  21.554  15.603  1.00  0.00    -0.273 OA
HETATM   18  N4  UNL     1      14.955  20.616  17.258  1.00  0.00    -0.349 N 
HETATM   19  C9  UNL     1      14.757  20.372  18.668  1.00  0.00     0.156 C 
HETATM   20  C14 UNL     1      13.998  20.095  16.320  1.00  0.00     0.156 C 
HETATM   21  C10 UNL     1      14.098  19.002  18.763  1.00  0.00     0.293 C 
HETATM   22  N5  UNL     1      12.771  19.109  18.232  1.00  0.00     0.101 N 
HETATM   23  C13 UNL     1      12.659  19.822  17.002  1.00  0.00     0.293 C 
BRANCH  22  24
HETATM   24  C11 UNL     1      12.109  17.830  18.104  1.00  0.00     0.385 C 
BRANCH  24  25
HETATM   25  C12 UNL     1      10.940  17.656  18.972  1.00  0.00     0.202 C 
HETATM   26  O2  UNL     1       9.985  16.902  18.720  1.00  0.00    -0.647 OA
HETATM   27  O3  UNL     1      10.893  18.385  20.167  1.00  0.00    -0.647 OA
ENDBRANCH  24  25
ENDBRANCH  22  24
ENDBRANCH  15  16
ENDBRANCH  14  15
ENDBRANCH   6  14
BRANCH   5  28
HETATM   28  N2  UNL     1      17.806  24.277  15.928  1.00  0.00    -0.383 N 
ATOM     29  H22 UNL     1      18.295  24.148  15.042  1.00  0.00     0.157 HD
ATOM     30  H21 UNL     1      16.787  24.236  15.904  1.00  0.00     0.157 HD
ENDBRANCH   5  28
BRANCH   9  31
HETATM   31  C16 UNL     1      20.386  25.346  20.652  1.00  0.00     0.116 C 
BRANCH  31  32
HETATM   32  C17 UNL     1      21.804  25.147  20.917  1.00  0.00    -0.008 A 
HETATM   33  C18 UNL     1      22.501  24.005  20.672  1.00  0.00    -0.049 A 
HETATM   34  C19 UNL     1      21.867  22.754  20.146  1.00  0.00     0.049 C 
HETATM   35  C20 UNL     1      23.881  23.960  20.919  1.00  0.00     0.014 A 
HETATM   36  C21 UNL     1      24.579  25.034  21.408  1.00  0.00    -0.061 A 
HETATM   37  C22 UNL     1      26.019  24.923  21.646  1.00  0.00     0.048 C 
HETATM   38  C23 UNL     1      23.854  26.169  21.644  1.00  0.00     0.014 A 
HETATM   39  C24 UNL     1      22.509  26.268  21.421  1.00  0.00    -0.049 A 
HETATM   40  C25 UNL     1      21.807  27.585  21.645  1.00  0.00     0.049 C 
ENDBRANCH  31  32
ENDBRANCH   9  31
BRANCH   1  41
HETATM   41  C2  UNL     1      21.671  26.851  14.533  1.00  0.00     0.056 C 
HETATM   42  C1  UNL     1      20.893  27.997  13.969  1.00  0.00     0.011 C 
ENDBRANCH   1  41
BRANCH  13  43
HETATM   43  N8  UNL     1      23.063  27.432  17.203  1.00  0.00    -0.366 N 
BRANCH  43  44
HETATM   44  C28 UNL     1      23.454  28.557  16.436  1.00  0.00     0.120 C 
HETATM   45  C29 UNL     1      24.803  28.322  15.781  1.00  0.00     0.026 C 
ENDBRANCH  43  44
BRANCH  43  46
HETATM   46  C30 UNL     1      24.038  26.995  18.220  1.00  0.00     0.120 C 
HETATM   47  C31 UNL     1      24.821  25.797  17.818  1.00  0.00     0.026 C 
ENDBRANCH  43  46
ENDBRANCH  13  43
TORSDOF 12
ENDMDL
