MODEL 1
REMARK VINA RESULT: -8.637076591      0.000      0.000
REMARK  15 active torsions:
REMARK  status: ('A' for Active; 'I' for Inactive)
REMARK    1  A    between atoms: C2_2  and  C3_3 
REMARK    2  A    between atoms: C3_3  and  C4_4 
REMARK    3  A    between atoms: C4_4  and  C5_5 
REMARK    4  A    between atoms: C5_5  and  C6_6 
REMARK    5  A    between atoms: C6_6  and  O1_7 
REMARK    6  A    between atoms: C6_6  and  C22_33 
REMARK    7  A    between atoms: O1_7  and  C7_8 
REMARK    8  A    between atoms: C7_8  and  C8_10 
REMARK    9  A    between atoms: C8_10  and  N1_11 
REMARK       I    between atoms: N1_11  and  C9_13 
REMARK   10  A    between atoms: C9_13  and  C10_15 
REMARK       I    between atoms: N2_17  and  C12_19 
REMARK   11  A    between atoms: C12_19  and  C13_21 
REMARK       I    between atoms: N3_25  and  C17_26 
REMARK   12  A    between atoms: C17_26  and  O6_28 
REMARK   13  A    between atoms: O6_28  and  C18_29 
REMARK   14  A    between atoms: N4_35  and  C24_36 
REMARK   15  A    between atoms: C27_40  and  N5_41 
ROOT
HETATM    1  C8  UNL     1      17.615  21.323  19.161  1.00  0.00     0.234 C 
ENDROOT
BRANCH   1   2
HETATM    2  C7  UNL     1      16.946  20.731  17.963  1.00  0.00     0.277 C 
HETATM    3  O2  UNL     1      17.523  20.057  17.098  1.00  0.00    -0.263 OA
BRANCH   2   4
HETATM    4  O1  UNL     1      15.592  20.960  17.830  1.00  0.00    -0.304 OA
BRANCH   4   5
HETATM    5  C6  UNL     1      14.655  19.897  18.212  1.00  0.00     0.206 C 
BRANCH   5   6
HETATM    6  C5  UNL     1      14.094  20.179  19.535  1.00  0.00     0.011 C 
BRANCH   6   7
HETATM    7  C4  UNL     1      13.808  19.182  20.538  1.00  0.00    -0.005 C 
BRANCH   7   8
HETATM    8  C3  UNL     1      13.576  17.763  20.402  1.00  0.00    -0.027 C 
BRANCH   8   9
HETATM    9  C2  UNL     1      12.225  17.177  20.498  1.00  0.00     0.022 C 
HETATM   10  C1  UNL     1      11.061  17.897  19.916  1.00  0.00     0.009 C 
ENDBRANCH   8   9
ENDBRANCH   7   8
ENDBRANCH   6   7
ENDBRANCH   5   6
BRANCH   5  11
HETATM   11  C22 UNL     1      13.709  19.890  17.092  1.00  0.00     0.060 A 
HETATM   12  C23 UNL     1      13.847  20.634  15.952  1.00  0.00     0.122 A 
HETATM   13  N4  UNL     1      12.920  20.621  14.994  1.00  0.00    -0.320 N 
HETATM   14  C26 UNL     1      11.817  19.853  15.149  1.00  0.00     0.291 A 
HETATM   15  O7  UNL     1      10.955  19.851  14.240  1.00  0.00    -0.264 OA
HETATM   16  C27 UNL     1      11.623  19.083  16.274  1.00  0.00     0.171 A 
HETATM   17  N6  UNL     1      12.578  19.126  17.212  1.00  0.00    -0.338 N 
ATOM     18  H6  UNL     1      12.458  18.563  18.055  1.00  0.00     0.167 HD
BRANCH  13  19
HETATM   19  C24 UNL     1      13.071  21.423  13.766  1.00  0.00     0.127 C 
HETATM   20  C25 UNL     1      14.292  20.892  13.020  1.00  0.00     0.027 C 
ENDBRANCH  13  19
BRANCH  16  21
HETATM   21  N5  UNL     1      10.564  18.359  16.403  1.00  0.00    -0.376 N 
HETATM   22  C28 UNL     1      10.659  16.915  16.305  1.00  0.00     0.148 C 
ATOM     23  H5  UNL     1       9.660  18.801  16.574  1.00  0.00     0.160 HD
ENDBRANCH  16  21
ENDBRANCH   5  11
ENDBRANCH   4   5
ENDBRANCH   2   4
ENDBRANCH   1   2
BRANCH   1  24
HETATM   24  N1  UNL     1      18.213  22.615  18.879  1.00  0.00    -0.347 N 
HETATM   25  C9  UNL     1      19.546  22.830  19.269  1.00  0.00     0.264 C 
HETATM   26  O3  UNL     1      20.230  21.931  19.858  1.00  0.00    -0.266 OA
ATOM     27  H1  UNL     1      17.679  23.347  18.410  1.00  0.00     0.163 HD
BRANCH  25  28
HETATM   28  C10 UNL     1      20.181  24.112  18.999  1.00  0.00     0.076 C 
HETATM   29  C11 UNL     1      20.802  24.906  20.085  1.00  0.00     0.074 C 
HETATM   30  N2  UNL     1      20.188  24.557  17.775  1.00  0.00    -0.324 N 
HETATM   31  C12 UNL     1      20.787  25.790  17.447  1.00  0.00     0.245 C 
ATOM     32  H2  UNL     1      19.750  24.001  17.039  1.00  0.00     0.169 HD
HETATM   33  O4  UNL     1      21.988  25.994  17.797  1.00  0.00    -0.271 OA
BRANCH  31  34
HETATM   34  C13 UNL     1      20.074  26.860  16.711  1.00  0.00     0.181 C 
HETATM   35  C14 UNL     1      21.060  27.717  15.938  1.00  0.00     0.037 C 
HETATM   36  C15 UNL     1      21.162  27.081  14.589  1.00  0.00     0.022 C 
HETATM   37  C16 UNL     1      19.922  26.257  14.465  1.00  0.00     0.129 C 
HETATM   38  N3  UNL     1      19.187  26.320  15.698  1.00  0.00    -0.315 N 
HETATM   39  C17 UNL     1      17.845  25.927  15.877  1.00  0.00     0.364 C 
HETATM   40  O5  UNL     1      17.287  26.028  17.019  1.00  0.00    -0.238 OA
BRANCH  39  41
HETATM   41  O6  UNL     1      17.052  25.419  14.869  1.00  0.00    -0.294 OA
BRANCH  41  42
HETATM   42  C18 UNL     1      16.645  24.085  14.749  1.00  0.00     0.061 C 
HETATM   43  C19 UNL     1      17.648  23.091  15.248  1.00  0.00     0.046 C 
HETATM   44  C20 UNL     1      15.349  23.852  15.490  1.00  0.00     0.046 C 
HETATM   45  C21 UNL     1      16.417  23.799  13.262  1.00  0.00     0.046 C 
ENDBRANCH  41  42
ENDBRANCH  39  41
ENDBRANCH  31  34
ENDBRANCH  25  28
ENDBRANCH   1  24
TORSDOF 15
ENDMDL
MODEL 2
REMARK VINA RESULT: -8.536159102      1.958      5.152
REMARK  15 active torsions:
REMARK  status: ('A' for Active; 'I' for Inactive)
REMARK    1  A    between atoms: C2_2  and  C3_3 
REMARK    2  A    between atoms: C3_3  and  C4_4 
REMARK    3  A    between atoms: C4_4  and  C5_5 
REMARK    4  A    between atoms: C5_5  and  C6_6 
REMARK    5  A    between atoms: C6_6  and  O1_7 
REMARK    6  A    between atoms: C6_6  and  C22_33 
REMARK    7  A    between atoms: O1_7  and  C7_8 
REMARK    8  A    between atoms: C7_8  and  C8_10 
REMARK    9  A    between atoms: C8_10  and  N1_11 
REMARK       I    between atoms: N1_11  and  C9_13 
REMARK   10  A    between atoms: C9_13  and  C10_15 
REMARK       I    between atoms: N2_17  and  C12_19 
REMARK   11  A    between atoms: C12_19  and  C13_21 
REMARK       I    between atoms: N3_25  and  C17_26 
REMARK   12  A    between atoms: C17_26  and  O6_28 
REMARK   13  A    between atoms: O6_28  and  C18_29 
REMARK   14  A    between atoms: N4_35  and  C24_36 
REMARK   15  A    between atoms: C27_40  and  N5_41 
ROOT
HETATM    1  C8  UNL     1      15.537  22.921  16.676  1.00  0.00     0.234 C 
ENDROOT
BRANCH   1   2
HETATM    2  C7  UNL     1      14.936  23.421  17.950  1.00  0.00     0.277 C 
HETATM    3  O2  UNL     1      15.097  24.563  18.401  1.00  0.00    -0.263 OA
BRANCH   2   4
HETATM    4  O1  UNL     1      14.150  22.535  18.656  1.00  0.00    -0.304 OA
BRANCH   4   5
HETATM    5  C6  UNL     1      14.600  21.144  18.791  1.00  0.00     0.206 C 
BRANCH   5   6
HETATM    6  C5  UNL     1      15.087  20.908  20.151  1.00  0.00     0.011 C 
BRANCH   6   7
HETATM    7  C4  UNL     1      16.364  21.351  20.656  1.00  0.00    -0.005 C 
BRANCH   7   8
HETATM    8  C3  UNL     1      17.592  21.645  19.956  1.00  0.00    -0.027 C 
BRANCH   8   9
HETATM    9  C2  UNL     1      18.542  22.669  20.434  1.00  0.00     0.022 C 
HETATM   10  C1  UNL     1      18.127  24.096  20.489  1.00  0.00     0.009 C 
ENDBRANCH   8   9
ENDBRANCH   7   8
ENDBRANCH   6   7
ENDBRANCH   5   6
BRANCH   5  11
HETATM   11  C22 UNL     1      13.413  20.385  18.384  1.00  0.00     0.060 A 
HETATM   12  C23 UNL     1      12.844  19.377  19.115  1.00  0.00     0.122 A 
HETATM   13  N4  UNL     1      11.795  18.692  18.659  1.00  0.00    -0.320 N 
HETATM   14  C26 UNL     1      11.278  18.999  17.448  1.00  0.00     0.291 A 
HETATM   15  O7  UNL     1      10.292  18.346  17.034  1.00  0.00    -0.264 OA
HETATM   16  C27 UNL     1      11.806  20.002  16.667  1.00  0.00     0.171 A 
HETATM   17  N6  UNL     1      12.860  20.666  17.162  1.00  0.00    -0.338 N 
ATOM     18  H6  UNL     1      13.269  21.415  16.603  1.00  0.00     0.167 HD
BRANCH  13  19
HETATM   19  C24 UNL     1      11.184  17.607  19.449  1.00  0.00     0.127 C 
HETATM   20  C25 UNL     1      12.152  17.261  20.578  1.00  0.00     0.027 C 
ENDBRANCH  13  19
BRANCH  16  21
HETATM   21  N5  UNL     1      11.299  20.279  15.515  1.00  0.00    -0.376 N 
HETATM   22  C28 UNL     1      11.815  21.395  14.746  1.00  0.00     0.148 C 
ATOM     23  H5  UNL     1      10.536  19.713  15.143  1.00  0.00     0.160 HD
ENDBRANCH  16  21
ENDBRANCH   5  11
ENDBRANCH   4   5
ENDBRANCH   2   4
ENDBRANCH   1   2
BRANCH   1  24
HETATM   24  N1  UNL     1      16.696  23.693  16.270  1.00  0.00    -0.347 N 
HETATM   25  C9  UNL     1      16.586  24.508  15.130  1.00  0.00     0.264 C 
HETATM   26  O3  UNL     1      15.508  24.580  14.455  1.00  0.00    -0.266 OA
ATOM     27  H1  UNL     1      17.567  23.646  16.798  1.00  0.00     0.163 HD
BRANCH  25  28
HETATM   28  C10 UNL     1      17.726  25.301  14.694  1.00  0.00     0.076 C 
HETATM   29  C11 UNL     1      17.971  25.573  13.258  1.00  0.00     0.074 C 
HETATM   30  N2  UNL     1      18.540  25.767  15.598  1.00  0.00    -0.324 N 
HETATM   31  C12 UNL     1      19.663  26.543  15.242  1.00  0.00     0.245 C 
ATOM     32  H2  UNL     1      18.361  25.567  16.583  1.00  0.00     0.169 HD
HETATM   33  O4  UNL     1      19.489  27.562  14.508  1.00  0.00    -0.271 OA
BRANCH  31  34
HETATM   34  C13 UNL     1      21.037  26.220  15.688  1.00  0.00     0.181 C 
HETATM   35  C14 UNL     1      22.042  27.139  15.016  1.00  0.00     0.037 C 
HETATM   36  C15 UNL     1      22.190  28.304  15.940  1.00  0.00     0.022 C 
HETATM   37  C16 UNL     1      21.710  27.801  17.263  1.00  0.00     0.129 C 
HETATM   38  N3  UNL     1      21.215  26.461  17.107  1.00  0.00    -0.315 N 
HETATM   39  C17 UNL     1      20.957  25.553  18.155  1.00  0.00     0.364 C 
HETATM   40  O5  UNL     1      20.519  24.382  17.903  1.00  0.00    -0.238 OA
BRANCH  39  41
HETATM   41  O6  UNL     1      21.147  25.844  19.489  1.00  0.00    -0.294 OA
BRANCH  41  42
HETATM   42  C18 UNL     1      22.222  25.404  20.272  1.00  0.00     0.061 C 
HETATM   43  C19 UNL     1      22.120  23.975  20.705  1.00  0.00     0.046 C 
HETATM   44  C20 UNL     1      23.528  25.575  19.532  1.00  0.00     0.046 C 
HETATM   45  C21 UNL     1      22.261  26.265  21.537  1.00  0.00     0.046 C 
ENDBRANCH  41  42
ENDBRANCH  39  41
ENDBRANCH  31  34
ENDBRANCH  25  28
ENDBRANCH   1  24
TORSDOF 15
ENDMDL
MODEL 3
REMARK VINA RESULT: -8.489964005      1.842      4.619
REMARK  15 active torsions:
REMARK  status: ('A' for Active; 'I' for Inactive)
REMARK    1  A    between atoms: C2_2  and  C3_3 
REMARK    2  A    between atoms: C3_3  and  C4_4 
REMARK    3  A    between atoms: C4_4  and  C5_5 
REMARK    4  A    between atoms: C5_5  and  C6_6 
REMARK    5  A    between atoms: C6_6  and  O1_7 
REMARK    6  A    between atoms: C6_6  and  C22_33 
REMARK    7  A    between atoms: O1_7  and  C7_8 
REMARK    8  A    between atoms: C7_8  and  C8_10 
REMARK    9  A    between atoms: C8_10  and  N1_11 
REMARK       I    between atoms: N1_11  and  C9_13 
REMARK   10  A    between atoms: C9_13  and  C10_15 
REMARK       I    between atoms: N2_17  and  C12_19 
REMARK   11  A    between atoms: C12_19  and  C13_21 
REMARK       I    between atoms: N3_25  and  C17_26 
REMARK   12  A    between atoms: C17_26  and  O6_28 
REMARK   13  A    between atoms: O6_28  and  C18_29 
REMARK   14  A    between atoms: N4_35  and  C24_36 
REMARK   15  A    between atoms: C27_40  and  N5_41 
ROOT
HETATM    1  C8  UNL     1      16.746  20.727  17.245  1.00  0.00     0.234 C 
ENDROOT
BRANCH   1   2
HETATM    2  C7  UNL     1      15.758  21.668  16.634  1.00  0.00     0.277 C 
HETATM    3  O2  UNL     1      15.264  22.643  17.216  1.00  0.00    -0.263 OA
BRANCH   2   4
HETATM    4  O1  UNL     1      15.386  21.416  15.329  1.00  0.00    -0.304 OA
BRANCH   4   5
HETATM    5  C6  UNL     1      14.135  21.999  14.827  1.00  0.00     0.206 C 
BRANCH   5   6
HETATM    6  C5  UNL     1      14.300  22.401  13.429  1.00  0.00     0.011 C 
BRANCH   6   7
HETATM    7  C4  UNL     1      15.554  22.777  12.823  1.00  0.00    -0.005 C 
BRANCH   7   8
HETATM    8  C3  UNL     1      16.302  24.009  12.915  1.00  0.00    -0.027 C 
BRANCH   8   9
HETATM    9  C2  UNL     1      16.609  24.645  14.211  1.00  0.00     0.022 C 
HETATM   10  C1  UNL     1      17.730  24.131  15.042  1.00  0.00     0.009 C 
ENDBRANCH   8   9
ENDBRANCH   7   8
ENDBRANCH   6   7
ENDBRANCH   5   6
BRANCH   5  11
HETATM   11  C22 UNL     1      13.162  20.935  15.088  1.00  0.00     0.060 A 
HETATM   12  C23 UNL     1      12.651  20.095  14.135  1.00  0.00     0.122 A 
HETATM   13  N4  UNL     1      11.726  19.182  14.434  1.00  0.00    -0.320 N 
HETATM   14  C26 UNL     1      11.282  19.079  15.707  1.00  0.00     0.291 A 
HETATM   15  O7  UNL     1      10.413  18.216  15.971  1.00  0.00    -0.264 OA
HETATM   16  C27 UNL     1      11.758  19.895  16.708  1.00  0.00     0.171 A 
HETATM   17  N6  UNL     1      12.686  20.800  16.366  1.00  0.00    -0.338 N 
ATOM     18  H6  UNL     1      13.055  21.415  17.091  1.00  0.00     0.167 HD
BRANCH  13  19
HETATM   19  C24 UNL     1      11.178  18.279  13.405  1.00  0.00     0.127 C 
HETATM   20  C25 UNL     1      12.296  17.989  12.407  1.00  0.00     0.027 C 
ENDBRANCH  13  19
BRANCH  16  21
HETATM   21  N5  UNL     1      11.321  19.782  17.916  1.00  0.00    -0.376 N 
HETATM   22  C28 UNL     1      12.136  19.129  18.922  1.00  0.00     0.148 C 
ATOM     23  H5  UNL     1      10.403  20.151  18.164  1.00  0.00     0.160 HD
ENDBRANCH  16  21
ENDBRANCH   5  11
ENDBRANCH   4   5
ENDBRANCH   2   4
ENDBRANCH   1   2
BRANCH   1  24
HETATM   24  N1  UNL     1      17.934  21.407  17.724  1.00  0.00    -0.347 N 
HETATM   25  C9  UNL     1      18.051  21.650  19.104  1.00  0.00     0.264 C 
HETATM   26  O3  UNL     1      17.149  21.293  19.929  1.00  0.00    -0.266 OA
ATOM     27  H1  UNL     1      18.665  21.701  17.076  1.00  0.00     0.163 HD
BRANCH  25  28
HETATM   28  C10 UNL     1      19.232  22.326  19.622  1.00  0.00     0.076 C 
HETATM   29  C11 UNL     1      19.914  21.851  20.849  1.00  0.00     0.074 C 
HETATM   30  N2  UNL     1      19.678  23.371  18.985  1.00  0.00    -0.324 N 
HETATM   31  C12 UNL     1      20.817  24.071  19.435  1.00  0.00     0.245 C 
ATOM     32  H2  UNL     1      19.194  23.689  18.145  1.00  0.00     0.169 HD
HETATM   33  O4  UNL     1      21.887  23.422  19.639  1.00  0.00    -0.271 OA
BRANCH  31  34
HETATM   34  C13 UNL     1      20.818  25.531  19.679  1.00  0.00     0.181 C 
HETATM   35  C14 UNL     1      21.835  25.888  20.749  1.00  0.00     0.037 C 
HETATM   36  C15 UNL     1      23.102  26.174  20.009  1.00  0.00     0.022 C 
HETATM   37  C16 UNL     1      22.665  26.472  18.612  1.00  0.00     0.129 C 
HETATM   38  N3  UNL     1      21.245  26.274  18.509  1.00  0.00    -0.315 N 
HETATM   39  C17 UNL     1      20.425  26.729  17.456  1.00  0.00     0.364 C 
HETATM   40  O5  UNL     1      19.171  26.499  17.465  1.00  0.00    -0.238 OA
BRANCH  39  41
HETATM   41  O6  UNL     1      20.894  27.434  16.367  1.00  0.00    -0.294 OA
BRANCH  41  42
HETATM   42  C18 UNL     1      20.884  26.983  15.041  1.00  0.00     0.061 C 
HETATM   43  C19 UNL     1      21.194  25.526  14.887  1.00  0.00     0.046 C 
HETATM   44  C20 UNL     1      19.544  27.245  14.396  1.00  0.00     0.046 C 
HETATM   45  C21 UNL     1      21.956  27.763  14.275  1.00  0.00     0.046 C 
ENDBRANCH  41  42
ENDBRANCH  39  41
ENDBRANCH  31  34
ENDBRANCH  25  28
ENDBRANCH   1  24
TORSDOF 15
ENDMDL
MODEL 4
REMARK VINA RESULT: -8.475877251      2.011      2.684
REMARK  15 active torsions:
REMARK  status: ('A' for Active; 'I' for Inactive)
REMARK    1  A    between atoms: C2_2  and  C3_3 
REMARK    2  A    between atoms: C3_3  and  C4_4 
REMARK    3  A    between atoms: C4_4  and  C5_5 
REMARK    4  A    between atoms: C5_5  and  C6_6 
REMARK    5  A    between atoms: C6_6  and  O1_7 
REMARK    6  A    between atoms: C6_6  and  C22_33 
REMARK    7  A    between atoms: O1_7  and  C7_8 
REMARK    8  A    between atoms: C7_8  and  C8_10 
REMARK    9  A    between atoms: C8_10  and  N1_11 
REMARK       I    between atoms: N1_11  and  C9_13 
REMARK   10  A    between atoms: C9_13  and  C10_15 
REMARK       I    between atoms: N2_17  and  C12_19 
REMARK   11  A    between atoms: C12_19  and  C13_21 
REMARK       I    between atoms: N3_25  and  C17_26 
REMARK   12  A    between atoms: C17_26  and  O6_28 
REMARK   13  A    between atoms: O6_28  and  C18_29 
REMARK   14  A    between atoms: N4_35  and  C24_36 
REMARK   15  A    between atoms: C27_40  and  N5_41 
ROOT
HETATM    1  C8  UNL     1      18.383  23.220  20.034  1.00  0.00     0.234 C 
ENDROOT
BRANCH   1   2
HETATM    2  C7  UNL     1      18.026  22.585  18.728  1.00  0.00     0.277 C 
HETATM    3  O2  UNL     1      18.842  22.077  17.948  1.00  0.00    -0.263 OA
BRANCH   2   4
HETATM    4  O1  UNL     1      16.689  22.574  18.388  1.00  0.00    -0.304 OA
BRANCH   4   5
HETATM    5  C6  UNL     1      15.943  21.314  18.497  1.00  0.00     0.206 C 
BRANCH   5   6
HETATM    6  C5  UNL     1      15.135  21.318  19.717  1.00  0.00     0.011 C 
BRANCH   6   7
HETATM    7  C4  UNL     1      14.783  20.143  20.476  1.00  0.00    -0.005 C 
BRANCH   7   8
HETATM    8  C3  UNL     1      13.587  19.334  20.442  1.00  0.00    -0.027 C 
BRANCH   8   9
HETATM    9  C2  UNL     1      13.593  17.946  19.940  1.00  0.00     0.022 C 
HETATM   10  C1  UNL     1      14.331  17.611  18.693  1.00  0.00     0.009 C 
ENDBRANCH   8   9
ENDBRANCH   7   8
ENDBRANCH   6   7
ENDBRANCH   5   6
BRANCH   5  11
HETATM   11  C22 UNL     1      15.208  21.271  17.230  1.00  0.00     0.060 A 
HETATM   12  C23 UNL     1      15.727  21.627  16.015  1.00  0.00     0.122 A 
HETATM   13  N4  UNL     1      14.984  21.615  14.907  1.00  0.00    -0.320 N 
HETATM   14  C26 UNL     1      13.687  21.239  14.983  1.00  0.00     0.291 A 
HETATM   15  O7  UNL     1      13.002  21.233  13.934  1.00  0.00    -0.264 OA
HETATM   16  C27 UNL     1      13.108  20.870  16.176  1.00  0.00     0.171 A 
HETATM   17  N6  UNL     1      13.889  20.897  17.265  1.00  0.00    -0.338 N 
ATOM     18  H6  UNL     1      13.484  20.627  18.161  1.00  0.00     0.167 HD
BRANCH  13  19
HETATM   19  C24 UNL     1      15.547  21.998  13.599  1.00  0.00     0.127 C 
HETATM   20  C25 UNL     1      16.198  23.369  13.766  1.00  0.00     0.027 C 
ENDBRANCH  13  19
BRANCH  16  21
HETATM   21  N5  UNL     1      11.869  20.517  16.228  1.00  0.00    -0.376 N 
HETATM   22  C28 UNL     1      11.423  19.592  17.252  1.00  0.00     0.148 C 
ATOM     23  H5  UNL     1      11.204  20.887  15.549  1.00  0.00     0.160 HD
ENDBRANCH  16  21
ENDBRANCH   5  11
ENDBRANCH   4   5
ENDBRANCH   2   4
ENDBRANCH   1   2
BRANCH   1  24
HETATM   24  N1  UNL     1      19.464  24.178  19.905  1.00  0.00    -0.347 N 
HETATM   25  C9  UNL     1      20.772  23.749  20.194  1.00  0.00     0.264 C 
HETATM   26  O3  UNL     1      21.022  22.556  20.564  1.00  0.00    -0.266 OA
ATOM     27  H1  UNL     1      19.281  25.138  19.613  1.00  0.00     0.163 HD
BRANCH  25  28
HETATM   28  C10 UNL     1      21.883  24.681  20.073  1.00  0.00     0.076 C 
HETATM   29  C11 UNL     1      22.568  25.221  21.271  1.00  0.00     0.074 C 
HETATM   30  N2  UNL     1      22.265  25.041  18.881  1.00  0.00    -0.324 N 
HETATM   31  C12 UNL     1      23.335  25.940  18.695  1.00  0.00     0.245 C 
ATOM     32  H2  UNL     1      21.780  24.664  18.066  1.00  0.00     0.169 HD
HETATM   33  O4  UNL     1      24.446  25.684  19.251  1.00  0.00    -0.271 OA
BRANCH  31  34
HETATM   34  C13 UNL     1      23.219  27.170  17.879  1.00  0.00     0.181 C 
HETATM   35  C14 UNL     1      24.541  27.478  17.197  1.00  0.00     0.037 C 
HETATM   36  C15 UNL     1      24.472  26.788  15.873  1.00  0.00     0.022 C 
HETATM   37  C16 UNL     1      23.014  26.569  15.636  1.00  0.00     0.129 C 
HETATM   38  N3  UNL     1      22.276  27.008  16.789  1.00  0.00    -0.315 N 
HETATM   39  C17 UNL     1      20.886  27.239  16.838  1.00  0.00     0.364 C 
HETATM   40  O5  UNL     1      20.332  27.631  17.917  1.00  0.00    -0.238 OA
BRANCH  39  41
HETATM   41  O6  UNL     1      20.040  27.066  15.762  1.00  0.00    -0.294 OA
BRANCH  41  42
HETATM   42  C18 UNL     1      19.273  25.923  15.506  1.00  0.00     0.061 C 
HETATM   43  C19 UNL     1      20.078  24.675  15.313  1.00  0.00     0.046 C 
HETATM   44  C20 UNL     1      18.292  25.676  16.628  1.00  0.00     0.046 C 
HETATM   45  C21 UNL     1      18.487  26.167  14.215  1.00  0.00     0.046 C 
ENDBRANCH  41  42
ENDBRANCH  39  41
ENDBRANCH  31  34
ENDBRANCH  25  28
ENDBRANCH   1  24
TORSDOF 15
ENDMDL
MODEL 5
REMARK VINA RESULT: -8.435496144      2.583      5.816
REMARK  15 active torsions:
REMARK  status: ('A' for Active; 'I' for Inactive)
REMARK    1  A    between atoms: C2_2  and  C3_3 
REMARK    2  A    between atoms: C3_3  and  C4_4 
REMARK    3  A    between atoms: C4_4  and  C5_5 
REMARK    4  A    between atoms: C5_5  and  C6_6 
REMARK    5  A    between atoms: C6_6  and  O1_7 
REMARK    6  A    between atoms: C6_6  and  C22_33 
REMARK    7  A    between atoms: O1_7  and  C7_8 
REMARK    8  A    between atoms: C7_8  and  C8_10 
REMARK    9  A    between atoms: C8_10  and  N1_11 
REMARK       I    between atoms: N1_11  and  C9_13 
REMARK   10  A    between atoms: C9_13  and  C10_15 
REMARK       I    between atoms: N2_17  and  C12_19 
REMARK   11  A    between atoms: C12_19  and  C13_21 
REMARK       I    between atoms: N3_25  and  C17_26 
REMARK   12  A    between atoms: C17_26  and  O6_28 
REMARK   13  A    between atoms: O6_28  and  C18_29 
REMARK   14  A    between atoms: N4_35  and  C24_36 
REMARK   15  A    between atoms: C27_40  and  N5_41 
ROOT
HETATM    1  C8  UNL     1      12.214  19.333  16.498  1.00  0.00     0.234 C 
ENDROOT
BRANCH   1   2
HETATM    2  C7  UNL     1      10.801  19.605  16.900  1.00  0.00     0.277 C 
HETATM    3  O2  UNL     1      10.089  20.490  16.405  1.00  0.00    -0.263 OA
BRANCH   2   4
HETATM    4  O1  UNL     1      10.271  18.805  17.891  1.00  0.00    -0.304 OA
BRANCH   4   5
HETATM    5  C6  UNL     1      11.090  17.714  18.431  1.00  0.00     0.206 C 
BRANCH   5   6
HETATM    6  C5  UNL     1      11.188  17.839  19.887  1.00  0.00     0.011 C 
BRANCH   6   7
HETATM    7  C4  UNL     1      12.189  18.611  20.582  1.00  0.00    -0.005 C 
BRANCH   7   8
HETATM    8  C3  UNL     1      13.630  18.519  20.542  1.00  0.00    -0.027 C 
BRANCH   8   9
HETATM    9  C2  UNL     1      14.391  18.666  19.286  1.00  0.00     0.022 C 
HETATM   10  C1  UNL     1      14.795  17.457  18.519  1.00  0.00     0.009 C 
ENDBRANCH   8   9
ENDBRANCH   7   8
ENDBRANCH   6   7
ENDBRANCH   5   6
BRANCH   5  11
HETATM   11  C22 UNL     1      10.406  16.522  17.925  1.00  0.00     0.060 A 
HETATM   12  C23 UNL     1      10.725  15.875  16.762  1.00  0.00     0.122 A 
HETATM   13  N4  UNL     1      10.024  14.825  16.332  1.00  0.00    -0.320 N 
HETATM   14  C26 UNL     1       8.973  14.385  17.062  1.00  0.00     0.291 A 
HETATM   15  O7  UNL     1       8.325  13.397  16.645  1.00  0.00    -0.264 OA
HETATM   16  C27 UNL     1       8.604  14.995  18.240  1.00  0.00     0.171 A 
HETATM   17  N6  UNL     1       9.334  16.046  18.635  1.00  0.00    -0.338 N 
ATOM     18  H6  UNL     1       9.081  16.514  19.505  1.00  0.00     0.167 HD
BRANCH  13  19
HETATM   19  C24 UNL     1      10.371  14.129  15.079  1.00  0.00     0.127 C 
HETATM   20  C25 UNL     1      10.979  15.163  14.135  1.00  0.00     0.027 C 
ENDBRANCH  13  19
BRANCH  16  21
HETATM   21  N5  UNL     1       7.598  14.561  18.920  1.00  0.00    -0.376 N 
HETATM   22  C28 UNL     1       6.430  15.401  19.099  1.00  0.00     0.148 C 
ATOM     23  H5  UNL     1       7.624  13.628  19.332  1.00  0.00     0.160 HD
ENDBRANCH  16  21
ENDBRANCH   5  11
ENDBRANCH   4   5
ENDBRANCH   2   4
ENDBRANCH   1   2
BRANCH   1  24
HETATM   24  N1  UNL     1      12.953  20.548  16.214  1.00  0.00    -0.347 N 
HETATM   25  C9  UNL     1      13.623  20.647  14.982  1.00  0.00     0.264 C 
HETATM   26  O3  UNL     1      13.598  19.706  14.124  1.00  0.00    -0.266 OA
ATOM     27  H1  UNL     1      12.986  21.311  16.891  1.00  0.00     0.163 HD
BRANCH  25  28
HETATM   28  C10 UNL     1      14.372  21.853  14.660  1.00  0.00     0.076 C 
HETATM   29  C11 UNL     1      14.107  22.613  13.415  1.00  0.00     0.074 C 
HETATM   30  N2  UNL     1      15.292  22.253  15.490  1.00  0.00    -0.324 N 
HETATM   31  C12 UNL     1      16.052  23.414  15.237  1.00  0.00     0.245 C 
ATOM     32  H2  UNL     1      15.466  21.716  16.340  1.00  0.00     0.169 HD
HETATM   33  O4  UNL     1      15.442  24.498  14.993  1.00  0.00    -0.271 OA
BRANCH  31  34
HETATM   34  C13 UNL     1      17.533  23.422  15.243  1.00  0.00     0.181 C 
HETATM   35  C14 UNL     1      18.057  24.743  14.708  1.00  0.00     0.037 C 
HETATM   36  C15 UNL     1      18.209  25.621  15.908  1.00  0.00     0.022 C 
HETATM   37  C16 UNL     1      18.272  24.676  17.063  1.00  0.00     0.129 C 
HETATM   38  N3  UNL     1      18.068  23.335  16.588  1.00  0.00    -0.315 N 
HETATM   39  C17 UNL     1      18.345  22.156  17.310  1.00  0.00     0.364 C 
HETATM   40  O5  UNL     1      18.127  21.012  16.790  1.00  0.00    -0.238 OA
BRANCH  39  41
HETATM   41  O6  UNL     1      18.856  22.141  18.591  1.00  0.00    -0.294 OA
BRANCH  41  42
HETATM   42  C18 UNL     1      18.104  22.251  19.767  1.00  0.00     0.061 C 
HETATM   43  C19 UNL     1      18.010  23.645  20.306  1.00  0.00     0.046 C 
HETATM   44  C20 UNL     1      16.699  21.738  19.553  1.00  0.00     0.046 C 
HETATM   45  C21 UNL     1      18.781  21.390  20.837  1.00  0.00     0.046 C 
ENDBRANCH  41  42
ENDBRANCH  39  41
ENDBRANCH  31  34
ENDBRANCH  25  28
ENDBRANCH   1  24
TORSDOF 15
ENDMDL
