MODEL 1
REMARK VINA RESULT: -6.797845131      0.000      0.000
REMARK  2 active torsions:
REMARK  status: ('A' for Active; 'I' for Inactive)
REMARK    1  A    between atoms: C2_4  and  N2_5 
REMARK       I    between atoms: N2_5  and  C3_7 
REMARK       I    between atoms: C3_7  and  N4_11 
REMARK    2  A    between atoms: N4_11  and  C4_13 
ROOT
HETATM    1  N2  UNL     1      22.813 -13.353  -7.927  1.00  0.00    -0.189 N 
ATOM      2  H2  UNL     1      22.095 -13.624  -8.599  1.00  0.00     0.184 HD
HETATM    3  C3  UNL     1      22.437 -13.220  -6.550  1.00  0.00     0.672 C 
HETATM    4  N3  UNL     1      23.383 -13.145  -5.702  1.00  0.00    -0.235 N 
ATOM      5  H31 UNL     1      23.115 -13.050  -4.722  1.00  0.00     0.174 HD
ATOM      6  H32 UNL     1      24.374 -13.173  -5.942  1.00  0.00     0.174 HD
HETATM    7  N4  UNL     1      21.047 -13.181  -6.214  1.00  0.00    -0.222 N 
ATOM      8  H4  UNL     1      20.426 -13.775  -6.762  1.00  0.00     0.178 HD
ENDROOT
BRANCH   1   9
HETATM    9  C2  UNL     1      24.112 -13.130  -8.401  1.00  0.00     0.193 C 
HETATM   10  N1  UNL     1      24.312 -12.825  -9.633  1.00  0.00    -0.390 N 
HETATM   11  C1  UNL     1      25.627 -12.588 -10.161  1.00  0.00     0.147 C 
ATOM     12  H1  UNL     1      23.510 -12.747 -10.257  1.00  0.00     0.159 HD
ENDBRANCH   1   9
BRANCH   7  13
HETATM   13  C4  UNL     1      20.454 -12.408  -5.207  1.00  0.00     0.099 C 
HETATM   14  C5  UNL     1      19.581 -11.277  -5.598  1.00  0.00     0.026 C 
HETATM   15  C6  UNL     1      18.126 -11.753  -5.666  1.00  0.00     0.002 C 
HETATM   16  C7  UNL     1      17.629 -11.933  -4.246  1.00  0.00     0.000 C 
HETATM   17  C8  UNL     1      18.765 -12.460  -3.393  1.00  0.00     0.002 C 
HETATM   18  C9  UNL     1      19.644 -13.299  -4.287  1.00  0.00     0.026 C 
ENDBRANCH   7  13
TORSDOF 2
ENDMDL
MODEL 2
REMARK VINA RESULT: -6.402331168      1.027      1.330
REMARK  2 active torsions:
REMARK  status: ('A' for Active; 'I' for Inactive)
REMARK    1  A    between atoms: C2_4  and  N2_5 
REMARK       I    between atoms: N2_5  and  C3_7 
REMARK       I    between atoms: C3_7  and  N4_11 
REMARK    2  A    between atoms: N4_11  and  C4_13 
ROOT
HETATM    1  N2  UNL     1      23.190 -13.345  -8.539  1.00  0.00    -0.189 N 
ATOM      2  H2  UNL     1      22.444 -13.348  -9.236  1.00  0.00     0.184 HD
HETATM    3  C3  UNL     1      22.824 -13.400  -7.155  1.00  0.00     0.672 C 
HETATM    4  N3  UNL     1      23.753 -13.662  -6.325  1.00  0.00    -0.235 N 
ATOM      5  H31 UNL     1      23.492 -13.701  -5.339  1.00  0.00     0.174 HD
ATOM      6  H32 UNL     1      24.724 -13.832  -6.585  1.00  0.00     0.174 HD
HETATM    7  N4  UNL     1      21.461 -13.162  -6.790  1.00  0.00    -0.222 N 
ATOM      8  H4  UNL     1      20.747 -13.516  -7.426  1.00  0.00     0.178 HD
ENDROOT
BRANCH   1   9
HETATM    9  C2  UNL     1      24.515 -13.289  -8.989  1.00  0.00     0.193 C 
HETATM   10  N1  UNL     1      24.796 -12.754 -10.123  1.00  0.00    -0.390 N 
HETATM   11  C1  UNL     1      26.140 -12.674 -10.623  1.00  0.00     0.147 C 
ATOM     12  H1  UNL     1      24.037 -12.373 -10.688  1.00  0.00     0.159 HD
ENDBRANCH   1   9
BRANCH   7  13
HETATM   13  C4  UNL     1      21.009 -12.489  -5.646  1.00  0.00     0.099 C 
HETATM   14  C5  UNL     1      21.307 -11.045  -5.505  1.00  0.00     0.026 C 
HETATM   15  C6  UNL     1      20.146 -10.223  -6.074  1.00  0.00     0.002 C 
HETATM   16  C7  UNL     1      18.994 -10.307  -5.094  1.00  0.00     0.000 C 
HETATM   17  C8  UNL     1      18.970 -11.693  -4.483  1.00  0.00     0.002 C 
HETATM   18  C9  UNL     1      19.507 -12.649  -5.519  1.00  0.00     0.026 C 
ENDBRANCH   7  13
TORSDOF 2
ENDMDL
MODEL 3
REMARK VINA RESULT: -6.253859507      1.288      1.792
REMARK  2 active torsions:
REMARK  status: ('A' for Active; 'I' for Inactive)
REMARK    1  A    between atoms: C2_4  and  N2_5 
REMARK       I    between atoms: N2_5  and  C3_7 
REMARK       I    between atoms: C3_7  and  N4_11 
REMARK    2  A    between atoms: N4_11  and  C4_13 
ROOT
HETATM    1  N2  UNL     1      22.497 -13.691  -6.714  1.00  0.00    -0.189 N 
ATOM      2  H2  UNL     1      22.352 -14.547  -6.178  1.00  0.00     0.184 HD
HETATM    3  C3  UNL     1      21.722 -12.536  -6.369  1.00  0.00     0.672 C 
HETATM    4  N3  UNL     1      22.099 -11.423  -6.860  1.00  0.00    -0.235 N 
ATOM      5  H31 UNL     1      21.547 -10.601  -6.615  1.00  0.00     0.174 HD
ATOM      6  H32 UNL     1      22.905 -11.310  -7.474  1.00  0.00     0.174 HD
HETATM    7  N4  UNL     1      20.590 -12.694  -5.509  1.00  0.00    -0.222 N 
ATOM      8  H4  UNL     1      20.677 -13.380  -4.758  1.00  0.00     0.178 HD
ENDROOT
BRANCH   1   9
HETATM    9  C2  UNL     1      23.443 -13.709  -7.747  1.00  0.00     0.193 C 
HETATM   10  N1  UNL     1      24.018 -12.624  -8.123  1.00  0.00    -0.390 N 
HETATM   11  C1  UNL     1      24.994 -12.597  -9.177  1.00  0.00     0.147 C 
ATOM     12  H1  UNL     1      23.775 -11.751  -7.656  1.00  0.00     0.159 HD
ENDBRANCH   1   9
BRANCH   7  13
HETATM   13  C4  UNL     1      19.374 -12.003  -5.593  1.00  0.00     0.099 C 
HETATM   14  C5  UNL     1      18.147 -12.655  -5.078  1.00  0.00     0.026 C 
HETATM   15  C6  UNL     1      17.926 -12.249  -3.617  1.00  0.00     0.002 C 
HETATM   16  C7  UNL     1      17.436 -10.816  -3.602  1.00  0.00     0.000 C 
HETATM   17  C8  UNL     1      18.131 -10.049  -4.709  1.00  0.00     0.002 C 
HETATM   18  C9  UNL     1      19.496 -10.665  -4.892  1.00  0.00     0.026 C 
ENDBRANCH   7  13
TORSDOF 2
ENDMDL
MODEL 4
REMARK VINA RESULT: -5.968273213      1.545      7.246
REMARK  2 active torsions:
REMARK  status: ('A' for Active; 'I' for Inactive)
REMARK    1  A    between atoms: C2_4  and  N2_5 
REMARK       I    between atoms: N2_5  and  C3_7 
REMARK       I    between atoms: C3_7  and  N4_11 
REMARK    2  A    between atoms: N4_11  and  C4_13 
ROOT
HETATM    1  N2  UNL     1      23.436 -12.758  -6.843  1.00  0.00    -0.189 N 
ATOM      2  H2  UNL     1      24.192 -12.391  -6.264  1.00  0.00     0.184 HD
HETATM    3  C3  UNL     1      23.745 -13.163  -8.183  1.00  0.00     0.672 C 
HETATM    4  N3  UNL     1      22.866 -13.856  -8.791  1.00  0.00    -0.235 N 
ATOM      5  H31 UNL     1      23.086 -14.144  -9.744  1.00  0.00     0.174 HD
ATOM      6  H32 UNL     1      21.973 -14.133  -8.386  1.00  0.00     0.174 HD
HETATM    7  N4  UNL     1      24.998 -12.774  -8.752  1.00  0.00    -0.222 N 
ATOM      8  H4  UNL     1      25.802 -12.758  -8.124  1.00  0.00     0.178 HD
ENDROOT
BRANCH   1   9
HETATM    9  C2  UNL     1      22.155 -12.840  -6.285  1.00  0.00     0.193 C 
HETATM   10  N1  UNL     1      21.400 -11.801  -6.231  1.00  0.00    -0.390 N 
HETATM   11  C1  UNL     1      20.079 -11.839  -5.668  1.00  0.00     0.147 C 
ATOM     12  H1  UNL     1      21.752 -10.919  -6.602  1.00  0.00     0.159 HD
ENDBRANCH   1   9
BRANCH   7  13
HETATM   13  C4  UNL     1      25.234 -12.412 -10.085  1.00  0.00     0.099 C 
HETATM   14  C5  UNL     1      24.977 -11.012 -10.498  1.00  0.00     0.026 C 
HETATM   15  C6  UNL     1      26.266 -10.194 -10.368  1.00  0.00     0.002 C 
HETATM   16  C7  UNL     1      27.185 -10.593 -11.504  1.00  0.00     0.000 C 
HETATM   17  C8  UNL     1      27.021 -12.076 -11.769  1.00  0.00     0.002 C 
HETATM   18  C9  UNL     1      26.668 -12.730 -10.456  1.00  0.00     0.026 C 
ENDBRANCH   7  13
TORSDOF 2
ENDMDL
MODEL 5
REMARK VINA RESULT: -5.903905430      2.769      8.027
REMARK  2 active torsions:
REMARK  status: ('A' for Active; 'I' for Inactive)
REMARK    1  A    between atoms: C2_4  and  N2_5 
REMARK       I    between atoms: N2_5  and  C3_7 
REMARK       I    between atoms: C3_7  and  N4_11 
REMARK    2  A    between atoms: N4_11  and  C4_13 
ROOT
HETATM    1  N2  UNL     1      24.876 -13.157  -8.445  1.00  0.00    -0.189 N 
ATOM      2  H2  UNL     1      25.647 -13.432  -7.836  1.00  0.00     0.184 HD
HETATM    3  C3  UNL     1      25.191 -12.545  -9.702  1.00  0.00     0.672 C 
HETATM    4  N3  UNL     1      24.246 -12.455 -10.550  1.00  0.00    -0.235 N 
ATOM      5  H31 UNL     1      24.470 -12.020 -11.445  1.00  0.00     0.174 HD
ATOM      6  H32 UNL     1      23.295 -12.786 -10.387  1.00  0.00     0.174 HD
HETATM    7  N4  UNL     1      26.525 -12.081  -9.930  1.00  0.00    -0.222 N 
ATOM      8  H4  UNL     1      27.280 -12.643  -9.537  1.00  0.00     0.178 HD
ENDROOT
BRANCH   1   9
HETATM    9  C2  UNL     1      23.568 -13.396  -8.006  1.00  0.00     0.193 C 
HETATM   10  N1  UNL     1      23.094 -12.762  -6.995  1.00  0.00    -0.390 N 
HETATM   11  C1  UNL     1      21.758 -12.975  -6.510  1.00  0.00     0.147 C 
ATOM     12  H1  UNL     1      23.686 -12.082  -6.519  1.00  0.00     0.159 HD
ENDBRANCH   1   9
BRANCH   7  13
HETATM   13  C4  UNL     1      26.899 -10.932 -10.640  1.00  0.00     0.099 C 
HETATM   14  C5  UNL     1      26.373  -9.619 -10.196  1.00  0.00     0.026 C 
HETATM   15  C6  UNL     1      27.366  -8.971  -9.225  1.00  0.00     0.002 C 
HETATM   16  C7  UNL     1      28.547  -8.474 -10.032  1.00  0.00     0.000 C 
HETATM   17  C8  UNL     1      28.817  -9.450 -11.159  1.00  0.00     0.002 C 
HETATM   18  C9  UNL     1      28.410 -10.819 -10.673  1.00  0.00     0.026 C 
ENDBRANCH   7  13
TORSDOF 2
ENDMDL
