MODEL 1
REMARK VINA RESULT: -7.463451395      0.000      0.000
REMARK  8 active torsions:
REMARK  status: ('A' for Active; 'I' for Inactive)
REMARK    1  A    between atoms: O1_2  and  C2_3 
REMARK       I    between atoms: C2_3  and  N1_5 
REMARK    2  A    between atoms: N1_5  and  C3_7 
REMARK    3  A    between atoms: C5_11  and  O3_12 
REMARK    4  A    between atoms: C7_14  and  O4_15 
REMARK    5  A    between atoms: C12_20  and  O5_21 
REMARK    6  A    between atoms: O5_21  and  C13_22 
REMARK    7  A    between atoms: C13_22  and  C14_23 
REMARK    8  A    between atoms: C18_27  and  N3_28 
ROOT
HETATM    1  C3  UNL     1      21.200  22.951  16.894  1.00  0.00     0.680 C 
HETATM    2  N2  UNL     1      21.686  22.703  15.700  1.00  0.00    -0.218 N 
ATOM      3  H2  UNL     1      22.625  22.325  15.569  1.00  0.00     0.178 HD
HETATM    4  C4  UNL     1      20.838  22.987  14.603  1.00  0.00     0.139 C 
HETATM    5  C5  UNL     1      21.577  23.226  13.298  1.00  0.00     0.173 C 
HETATM    6  C7  UNL     1      20.736  24.251  12.559  1.00  0.00     0.156 C 
HETATM    7  C9  UNL     1      19.506  24.455  13.471  1.00  0.00     0.023 C 
HETATM    8  C10 UNL     1      18.616  23.258  13.192  1.00  0.00     0.013 C 
HETATM    9  C11 UNL     1      20.212  24.364  14.800  1.00  0.00     0.067 C 
HETATM   10  C12 UNL     1      19.451  24.555  16.019  1.00  0.00     0.244 C 
HETATM   11  N4  UNL     1      19.887  23.479  16.949  1.00  0.00    -0.199 N 
ATOM     12  H4  UNL     1      19.229  23.115  17.639  1.00  0.00     0.180 HD
ENDROOT
BRANCH  10  13
HETATM   13  O5  UNL     1      18.096  24.652  15.992  1.00  0.00    -0.365 OA
BRANCH  13  14
HETATM   14  C13 UNL     1      17.513  25.634  16.729  1.00  0.00     0.175 C 
BRANCH  14  15
HETATM   15  C14 UNL     1      17.558  27.028  16.244  1.00  0.00     0.011 C 
HETATM   16  C15 UNL     1      17.571  27.204  14.748  1.00  0.00     0.007 C 
HETATM   17  C16 UNL     1      16.886  28.545  14.466  1.00  0.00     0.002 C 
HETATM   18  C17 UNL     1      15.408  28.328  14.616  1.00  0.00     0.033 C 
HETATM   19  C18 UNL     1      15.197  27.516  15.872  1.00  0.00     0.184 C 
HETATM   20  C19 UNL     1      16.332  27.742  16.835  1.00  0.00     0.039 C 
BRANCH  19  21
HETATM   21  N3  UNL     1      13.913  27.854  16.460  1.00  0.00    -0.075 N 
ATOM     22  H33 UNL     1      13.205  27.145  16.271  1.00  0.00     0.274 HD
ATOM     23  H32 UNL     1      13.926  27.781  17.478  1.00  0.00     0.274 HD
ATOM     24  H31 UNL     1      13.626  28.780  16.144  1.00  0.00     0.274 HD
ENDBRANCH  19  21
ENDBRANCH  14  15
ENDBRANCH  13  14
ENDBRANCH  10  13
BRANCH   1  25
HETATM   25  N1  UNL     1      21.992  22.688  18.030  1.00  0.00    -0.135 N 
HETATM   26  C2  UNL     1      23.286  23.177  18.282  1.00  0.00     0.378 C 
HETATM   27  O2  UNL     1      23.850  23.925  17.454  1.00  0.00    -0.238 OA
ATOM     28  H1  UNL     1      21.585  22.081  18.741  1.00  0.00     0.189 HD
BRANCH  26  29
HETATM   29  O1  UNL     1      23.963  22.832  19.467  1.00  0.00    -0.308 OA
HETATM   30  C1  UNL     1      24.375  21.490  19.665  1.00  0.00     0.215 C 
ENDBRANCH  26  29
ENDBRANCH   1  25
BRANCH   5  31
HETATM   31  O3  UNL     1      21.737  22.086  12.550  1.00  0.00    -0.386 OA
HETATM   32  C6  UNL     1      23.102  21.972  12.220  1.00  0.00     0.202 C 
ENDBRANCH   5  31
BRANCH   6  33
HETATM   33  O4  UNL     1      20.236  23.746  11.368  1.00  0.00    -0.388 OA
HETATM   34  C8  UNL     1      20.532  24.542  10.276  1.00  0.00     0.202 C 
ENDBRANCH   6  33
TORSDOF 8
ENDMDL
MODEL 2
REMARK VINA RESULT: -7.430160350      1.571      1.840
REMARK  8 active torsions:
REMARK  status: ('A' for Active; 'I' for Inactive)
REMARK    1  A    between atoms: O1_2  and  C2_3 
REMARK       I    between atoms: C2_3  and  N1_5 
REMARK    2  A    between atoms: N1_5  and  C3_7 
REMARK    3  A    between atoms: C5_11  and  O3_12 
REMARK    4  A    between atoms: C7_14  and  O4_15 
REMARK    5  A    between atoms: C12_20  and  O5_21 
REMARK    6  A    between atoms: O5_21  and  C13_22 
REMARK    7  A    between atoms: C13_22  and  C14_23 
REMARK    8  A    between atoms: C18_27  and  N3_28 
ROOT
HETATM    1  C3  UNL     1      21.728  22.403  14.595  1.00  0.00     0.680 C 
HETATM    2  N2  UNL     1      22.034  22.548  13.327  1.00  0.00    -0.218 N 
ATOM      3  H2  UNL     1      22.927  22.232  12.949  1.00  0.00     0.178 HD
HETATM    4  C4  UNL     1      21.056  23.167  12.511  1.00  0.00     0.139 C 
HETATM    5  C5  UNL     1      21.619  23.810  11.255  1.00  0.00     0.173 C 
HETATM    6  C7  UNL     1      20.733  25.016  11.008  1.00  0.00     0.156 C 
HETATM    7  C9  UNL     1      19.651  24.918  12.105  1.00  0.00     0.023 C 
HETATM    8  C10 UNL     1      18.676  23.873  11.594  1.00  0.00     0.013 C 
HETATM    9  C11 UNL     1      20.528  24.409  13.220  1.00  0.00     0.067 C 
HETATM   10  C12 UNL     1      19.951  24.202  14.534  1.00  0.00     0.244 C 
HETATM   11  N4  UNL     1      20.461  22.885  15.004  1.00  0.00    -0.199 N 
ATOM     12  H4  UNL     1      19.888  22.320  15.632  1.00  0.00     0.180 HD
ENDROOT
BRANCH  10  13
HETATM   13  O5  UNL     1      18.611  24.301  14.735  1.00  0.00    -0.365 OA
BRANCH  13  14
HETATM   14  C13 UNL     1      18.178  25.065  15.773  1.00  0.00     0.175 C 
BRANCH  14  15
HETATM   15  C14 UNL     1      18.280  26.536  15.682  1.00  0.00     0.011 C 
HETATM   16  C15 UNL     1      17.879  27.144  14.364  1.00  0.00     0.007 C 
HETATM   17  C16 UNL     1      17.345  28.544  14.680  1.00  0.00     0.002 C 
HETATM   18  C17 UNL     1      15.960  28.374  15.237  1.00  0.00     0.033 C 
HETATM   19  C18 UNL     1      16.012  27.242  16.234  1.00  0.00     0.184 C 
HETATM   20  C19 UNL     1      17.400  27.111  16.803  1.00  0.00     0.039 C 
BRANCH  19  21
HETATM   21  N3  UNL     1      15.021  27.462  17.273  1.00  0.00    -0.075 N 
ATOM     22  H33 UNL     1      15.446  27.747  18.155  1.00  0.00     0.274 HD
ATOM     23  H32 UNL     1      14.463  28.299  17.101  1.00  0.00     0.274 HD
ATOM     24  H31 UNL     1      14.442  26.629  17.375  1.00  0.00     0.274 HD
ENDBRANCH  19  21
ENDBRANCH  14  15
ENDBRANCH  13  14
ENDBRANCH  10  13
BRANCH   1  25
HETATM   25  N1  UNL     1      22.655  21.791  15.463  1.00  0.00    -0.135 N 
HETATM   26  C2  UNL     1      23.139  22.313  16.676  1.00  0.00     0.378 C 
HETATM   27  O2  UNL     1      22.748  23.429  17.083  1.00  0.00    -0.238 OA
ATOM     28  H1  UNL     1      23.011  20.878  15.183  1.00  0.00     0.189 HD
BRANCH  26  29
HETATM   29  O1  UNL     1      24.067  21.589  17.447  1.00  0.00    -0.308 OA
HETATM   30  C1  UNL     1      25.407  22.044  17.528  1.00  0.00     0.215 C 
ENDBRANCH  26  29
ENDBRANCH   1  25
BRANCH   5  31
HETATM   31  O3  UNL     1      21.623  22.967  10.171  1.00  0.00    -0.386 OA
HETATM   32  C6  UNL     1      22.934  22.929   9.656  1.00  0.00     0.202 C 
ENDBRANCH   5  31
BRANCH   6  33
HETATM   33  O4  UNL     1      20.051  24.917   9.804  1.00  0.00    -0.388 OA
HETATM   34  C8  UNL     1      20.100  26.081   9.056  1.00  0.00     0.202 C 
ENDBRANCH   6  33
TORSDOF 8
ENDMDL
MODEL 3
REMARK VINA RESULT: -7.374330097      3.120      5.886
REMARK  8 active torsions:
REMARK  status: ('A' for Active; 'I' for Inactive)
REMARK    1  A    between atoms: O1_2  and  C2_3 
REMARK       I    between atoms: C2_3  and  N1_5 
REMARK    2  A    between atoms: N1_5  and  C3_7 
REMARK    3  A    between atoms: C5_11  and  O3_12 
REMARK    4  A    between atoms: C7_14  and  O4_15 
REMARK    5  A    between atoms: C12_20  and  O5_21 
REMARK    6  A    between atoms: O5_21  and  C13_22 
REMARK    7  A    between atoms: C13_22  and  C14_23 
REMARK    8  A    between atoms: C18_27  and  N3_28 
ROOT
HETATM    1  C3  UNL     1      18.090  22.053  11.650  1.00  0.00     0.680 C 
HETATM    2  N2  UNL     1      19.333  21.988  11.234  1.00  0.00    -0.218 N 
ATOM      3  H2  UNL     1      19.565  21.783  10.262  1.00  0.00     0.178 HD
HETATM    4  C4  UNL     1      20.335  22.218  12.207  1.00  0.00     0.139 C 
HETATM    5  C5  UNL     1      21.682  21.606  11.861  1.00  0.00     0.173 C 
HETATM    6  C7  UNL     1      22.284  21.216  13.199  1.00  0.00     0.156 C 
HETATM    7  C9  UNL     1      21.261  21.730  14.235  1.00  0.00     0.023 C 
HETATM    8  C10 UNL     1      21.535  23.218  14.343  1.00  0.00     0.013 C 
HETATM    9  C11 UNL     1      20.005  21.417  13.463  1.00  0.00     0.067 C 
HETATM   10  C12 UNL     1      18.717  21.682  14.072  1.00  0.00     0.244 C 
HETATM   11  N4  UNL     1      17.892  22.340  13.022  1.00  0.00    -0.199 N 
ATOM     12  H4  UNL     1      17.171  23.009  13.296  1.00  0.00     0.180 HD
ENDROOT
BRANCH  10  13
HETATM   13  O5  UNL     1      18.623  22.352  15.251  1.00  0.00    -0.365 OA
BRANCH  13  14
HETATM   14  C13 UNL     1      17.902  23.505  15.273  1.00  0.00     0.175 C 
BRANCH  14  15
HETATM   15  C14 UNL     1      18.597  24.790  15.490  1.00  0.00     0.011 C 
HETATM   16  C15 UNL     1      18.294  25.879  14.494  1.00  0.00     0.007 C 
HETATM   17  C16 UNL     1      18.451  27.204  15.246  1.00  0.00     0.002 C 
HETATM   18  C17 UNL     1      17.224  27.380  16.094  1.00  0.00     0.033 C 
HETATM   19  C18 UNL     1      16.946  26.055  16.763  1.00  0.00     0.184 C 
HETATM   20  C19 UNL     1      18.219  25.264  16.902  1.00  0.00     0.039 C 
BRANCH  19  21
HETATM   21  N3  UNL     1      16.308  26.283  18.048  1.00  0.00    -0.075 N 
ATOM     22  H33 UNL     1      15.629  27.042  18.011  1.00  0.00     0.274 HD
ATOM     23  H32 UNL     1      15.670  25.528  18.300  1.00  0.00     0.274 HD
ATOM     24  H31 UNL     1      17.021  26.438  18.760  1.00  0.00     0.274 HD
ENDBRANCH  19  21
ENDBRANCH  14  15
ENDBRANCH  13  14
ENDBRANCH  10  13
BRANCH   1  25
HETATM   25  N1  UNL     1      17.042  21.837  10.731  1.00  0.00    -0.135 N 
HETATM   26  C2  UNL     1      16.515  22.774   9.825  1.00  0.00     0.378 C 
HETATM   27  O2  UNL     1      16.976  23.935   9.779  1.00  0.00    -0.238 OA
ATOM     28  H1  UNL     1      16.625  20.907  10.724  1.00  0.00     0.189 HD
BRANCH  26  29
HETATM   29  O1  UNL     1      15.464  22.419   8.959  1.00  0.00    -0.308 OA
HETATM   30  C1  UNL     1      14.275  21.870   9.501  1.00  0.00     0.215 C 
ENDBRANCH  26  29
ENDBRANCH   1  25
BRANCH   5  31
HETATM   31  O3  UNL     1      22.507  22.465  11.178  1.00  0.00    -0.386 OA
HETATM   32  C6  UNL     1      22.485  22.098   9.818  1.00  0.00     0.202 C 
ENDBRANCH   5  31
BRANCH   6  33
HETATM   33  O4  UNL     1      23.457  21.911  13.458  1.00  0.00    -0.388 OA
HETATM   34  C8  UNL     1      24.428  21.128  14.058  1.00  0.00     0.202 C 
ENDBRANCH   6  33
TORSDOF 8
ENDMDL
MODEL 4
REMARK VINA RESULT: -7.373969689      1.896      5.029
REMARK  8 active torsions:
REMARK  status: ('A' for Active; 'I' for Inactive)
REMARK    1  A    between atoms: O1_2  and  C2_3 
REMARK       I    between atoms: C2_3  and  N1_5 
REMARK    2  A    between atoms: N1_5  and  C3_7 
REMARK    3  A    between atoms: C5_11  and  O3_12 
REMARK    4  A    between atoms: C7_14  and  O4_15 
REMARK    5  A    between atoms: C12_20  and  O5_21 
REMARK    6  A    between atoms: O5_21  and  C13_22 
REMARK    7  A    between atoms: C13_22  and  C14_23 
REMARK    8  A    between atoms: C18_27  and  N3_28 
ROOT
HETATM    1  C3  UNL     1      18.673  22.853  13.980  1.00  0.00     0.680 C 
HETATM    2  N2  UNL     1      19.871  22.349  14.170  1.00  0.00    -0.218 N 
ATOM      3  H2  UNL     1      20.270  21.658  13.535  1.00  0.00     0.178 HD
HETATM    4  C4  UNL     1      20.578  22.816  15.304  1.00  0.00     0.139 C 
HETATM    5  C5  UNL     1      21.649  21.860  15.799  1.00  0.00     0.173 C 
HETATM    6  C7  UNL     1      21.675  22.054  17.304  1.00  0.00     0.156 C 
HETATM    7  C9  UNL     1      20.666  23.196  17.552  1.00  0.00     0.023 C 
HETATM    8  C10 UNL     1      21.421  24.463  17.196  1.00  0.00     0.013 C 
HETATM    9  C11 UNL     1      19.647  22.807  16.512  1.00  0.00     0.067 C 
HETATM   10  C12 UNL     1      18.430  23.584  16.390  1.00  0.00     0.244 C 
HETATM   11  N4  UNL     1      18.224  23.801  14.932  1.00  0.00    -0.199 N 
ATOM     12  H4  UNL     1      17.751  24.647  14.612  1.00  0.00     0.180 HD
ENDROOT
BRANCH  10  13
HETATM   13  O5  UNL     1      18.266  24.743  17.079  1.00  0.00    -0.365 OA
BRANCH  13  14
HETATM   14  C13 UNL     1      17.185  25.513  16.782  1.00  0.00     0.175 C 
BRANCH  14  15
HETATM   15  C14 UNL     1      17.385  26.921  16.382  1.00  0.00     0.011 C 
HETATM   16  C15 UNL     1      17.611  27.162  14.912  1.00  0.00     0.007 C 
HETATM   17  C16 UNL     1      17.059  28.559  14.616  1.00  0.00     0.002 C 
HETATM   18  C17 UNL     1      15.563  28.442  14.559  1.00  0.00     0.033 C 
HETATM   19  C18 UNL     1      15.133  27.593  15.731  1.00  0.00     0.184 C 
HETATM   20  C19 UNL     1      16.141  27.694  16.845  1.00  0.00     0.039 C 
BRANCH  19  21
HETATM   21  N3  UNL     1      13.807  27.997  16.164  1.00  0.00    -0.075 N 
ATOM     22  H33 UNL     1      13.072  27.571  15.600  1.00  0.00     0.274 HD
ATOM     23  H32 UNL     1      13.555  27.588  17.065  1.00  0.00     0.274 HD
ATOM     24  H31 UNL     1      13.745  29.015  16.172  1.00  0.00     0.274 HD
ENDBRANCH  19  21
ENDBRANCH  14  15
ENDBRANCH  13  14
ENDBRANCH  10  13
BRANCH   1  25
HETATM   25  N1  UNL     1      17.916  22.434  12.868  1.00  0.00    -0.135 N 
HETATM   26  C2  UNL     1      18.286  22.534  11.515  1.00  0.00     0.378 C 
HETATM   27  O2  UNL     1      19.385  23.037  11.197  1.00  0.00    -0.238 OA
ATOM     28  H1  UNL     1      17.007  22.015  13.065  1.00  0.00     0.189 HD
BRANCH  26  29
HETATM   29  O1  UNL     1      17.426  22.069  10.502  1.00  0.00    -0.308 OA
HETATM   30  C1  UNL     1      16.753  20.835  10.676  1.00  0.00     0.215 C 
ENDBRANCH  26  29
ENDBRANCH   1  25
BRANCH   5  31
HETATM   31  O3  UNL     1      22.883  22.097  15.248  1.00  0.00    -0.386 OA
HETATM   32  C6  UNL     1      23.268  20.946  14.532  1.00  0.00     0.202 C 
ENDBRANCH   5  31
BRANCH   6  33
HETATM   33  O4  UNL     1      22.899  22.538  17.740  1.00  0.00    -0.388 OA
HETATM   34  C8  UNL     1      23.484  21.738  18.707  1.00  0.00     0.202 C 
ENDBRANCH   6  33
TORSDOF 8
ENDMDL
MODEL 5
REMARK VINA RESULT: -7.291653311      2.211      4.986
REMARK  8 active torsions:
REMARK  status: ('A' for Active; 'I' for Inactive)
REMARK    1  A    between atoms: O1_2  and  C2_3 
REMARK       I    between atoms: C2_3  and  N1_5 
REMARK    2  A    between atoms: N1_5  and  C3_7 
REMARK    3  A    between atoms: C5_11  and  O3_12 
REMARK    4  A    between atoms: C7_14  and  O4_15 
REMARK    5  A    between atoms: C12_20  and  O5_21 
REMARK    6  A    between atoms: O5_21  and  C13_22 
REMARK    7  A    between atoms: C13_22  and  C14_23 
REMARK    8  A    between atoms: C18_27  and  N3_28 
ROOT
HETATM    1  C3  UNL     1      18.054  22.217  14.480  1.00  0.00     0.680 C 
HETATM    2  N2  UNL     1      19.321  21.891  14.371  1.00  0.00    -0.218 N 
ATOM      3  H2  UNL     1      19.630  21.132  13.764  1.00  0.00     0.178 HD
HETATM    4  C4  UNL     1      20.235  22.649  15.142  1.00  0.00     0.139 C 
HETATM    5  C5  UNL     1      21.541  21.931  15.431  1.00  0.00     0.173 C 
HETATM    6  C7  UNL     1      21.960  22.426  16.803  1.00  0.00     0.156 C 
HETATM    7  C9  UNL     1      20.892  23.482  17.162  1.00  0.00     0.023 C 
HETATM    8  C10 UNL     1      21.301  24.723  16.392  1.00  0.00     0.013 C 
HETATM    9  C11 UNL     1      19.698  22.785  16.562  1.00  0.00     0.067 C 
HETATM   10  C12 UNL     1      18.386  23.389  16.697  1.00  0.00     0.244 C 
HETATM   11  N4  UNL     1      17.745  23.284  15.359  1.00  0.00    -0.199 N 
ATOM     12  H4  UNL     1      17.071  23.994  15.068  1.00  0.00     0.180 HD
ENDROOT
BRANCH  10  13
HETATM   13  O5  UNL     1      18.239  24.639  17.208  1.00  0.00    -0.365 OA
BRANCH  13  14
HETATM   14  C13 UNL     1      17.208  25.397  16.749  1.00  0.00     0.175 C 
BRANCH  14  15
HETATM   15  C14 UNL     1      17.464  26.787  16.322  1.00  0.00     0.011 C 
HETATM   16  C15 UNL     1      17.659  26.997  14.843  1.00  0.00     0.007 C 
HETATM   17  C16 UNL     1      17.167  28.415  14.541  1.00  0.00     0.002 C 
HETATM   18  C17 UNL     1      15.666  28.370  14.527  1.00  0.00     0.033 C 
HETATM   19  C18 UNL     1      15.229  27.559  15.724  1.00  0.00     0.184 C 
HETATM   20  C19 UNL     1      16.272  27.627  16.807  1.00  0.00     0.039 C 
BRANCH  19  21
HETATM   21  N3  UNL     1      13.937  28.033  16.187  1.00  0.00    -0.075 N 
ATOM     22  H33 UNL     1      14.019  28.863  16.774  1.00  0.00     0.274 HD
ATOM     23  H32 UNL     1      13.384  28.441  15.433  1.00  0.00     0.274 HD
ATOM     24  H31 UNL     1      13.444  27.274  16.659  1.00  0.00     0.274 HD
ENDBRANCH  19  21
ENDBRANCH  14  15
ENDBRANCH  13  14
ENDBRANCH  10  13
BRANCH   1  25
HETATM   25  N1  UNL     1      17.091  21.504  13.738  1.00  0.00    -0.135 N 
HETATM   26  C2  UNL     1      17.270  20.926  12.469  1.00  0.00     0.378 C 
HETATM   27  O2  UNL     1      18.371  21.018  11.883  1.00  0.00    -0.238 OA
ATOM     28  H1  UNL     1      16.171  21.397  14.165  1.00  0.00     0.189 HD
BRANCH  26  29
HETATM   29  O1  UNL     1      16.215  20.237  11.841  1.00  0.00    -0.308 OA
HETATM   30  C1  UNL     1      15.943  20.483  10.472  1.00  0.00     0.215 C 
ENDBRANCH  26  29
ENDBRANCH   1  25
BRANCH   5  31
HETATM   31  O3  UNL     1      22.515  22.181  14.496  1.00  0.00    -0.386 OA
HETATM   32  C6  UNL     1      22.951  20.944  13.982  1.00  0.00     0.202 C 
ENDBRANCH   5  31
BRANCH   6  33
HETATM   33  O4  UNL     1      23.163  23.114  16.758  1.00  0.00    -0.388 OA
HETATM   34  C8  UNL     1      24.077  22.670  17.698  1.00  0.00     0.202 C 
ENDBRANCH   6  33
TORSDOF 8
ENDMDL
