MODEL 1
REMARK VINA RESULT: -7.012360328      0.000      0.000
REMARK  15 active torsions:
REMARK  status: ('A' for Active; 'I' for Inactive)
REMARK    1  A    between atoms: C2_2  and  N1_3 
REMARK    2  A    between atoms: N1_3  and  C3_4 
REMARK    3  A    between atoms: N1_3  and  S1_35 
REMARK    4  A    between atoms: C3_4  and  C4_5 
REMARK    5  A    between atoms: C8_9  and  C10_11 
REMARK       I    between atoms: N2_13  and  C12_14 
REMARK    6  A    between atoms: C12_14  and  C13_16 
REMARK    7  A    between atoms: C13_16  and  C14_17 
REMARK    8  A    between atoms: C13_16  and  N6_26 
REMARK    9  A    between atoms: C14_17  and  C15_18 
REMARK   10  A    between atoms: C15_18  and  C16_19 
REMARK   11  A    between atoms: C16_19  and  C17_20 
REMARK   12  A    between atoms: C17_20  and  N3_21 
REMARK       I    between atoms: N6_26  and  C19_28 
REMARK   13  A    between atoms: C19_28  and  O3_30 
REMARK   14  A    between atoms: O3_30  and  C20_31 
REMARK   15  A    between atoms: S1_35  and  C24_38 
ROOT
HETATM    1  C4  UNL     1      18.874  34.731  16.423  1.00  0.00     0.107 C 
HETATM    2  C5  UNL     1      18.598  36.214  16.489  1.00  0.00     0.033 C 
HETATM    3  C6  UNL     1      17.320  36.204  17.295  1.00  0.00     0.011 C 
HETATM    4  C7  UNL     1      16.629  37.538  17.255  1.00  0.00     0.012 C 
HETATM    5  C8  UNL     1      16.559  35.055  16.764  1.00  0.00     0.035 C 
HETATM    6  C9  UNL     1      15.721  35.400  15.551  1.00  0.00     0.039 C 
HETATM    7  N2  UNL     1      17.567  34.118  16.306  1.00  0.00    -0.335 N 
HETATM    8  C12 UNL     1      17.319  32.825  15.794  1.00  0.00     0.243 C 
HETATM    9  O1  UNL     1      16.095  32.444  15.738  1.00  0.00    -0.271 OA
ENDROOT
BRANCH   8  10
HETATM   10  C13 UNL     1      18.363  31.874  15.314  1.00  0.00     0.179 C 
BRANCH  10  11
HETATM   11  C14 UNL     1      18.655  30.901  16.475  1.00  0.00     0.035 C 
BRANCH  11  12
HETATM   12  C15 UNL     1      20.087  30.465  16.480  1.00  0.00     0.004 C 
BRANCH  12  13
HETATM   13  C16 UNL     1      20.178  29.159  15.744  1.00  0.00     0.020 C 
BRANCH  13  14
HETATM   14  C17 UNL     1      21.317  29.186  14.742  1.00  0.00     0.122 C 
BRANCH  14  15
HETATM   15  N3  UNL     1      21.596  30.576  14.463  1.00  0.00    -0.367 N 
HETATM   16  C18 UNL     1      22.256  30.994  13.459  1.00  0.00     0.196 C 
HETATM   17  N4  UNL     1      22.462  32.390  13.299  1.00  0.00    -0.067 NA
HETATM   18  N5  UNL     1      22.789  30.096  12.498  1.00  0.00    -0.067 NA
ATOM     19  H3  UNL     1      21.240  31.271  15.119  1.00  0.00     0.161 HD
ENDBRANCH  14  15
ENDBRANCH  13  14
ENDBRANCH  12  13
ENDBRANCH  11  12
ENDBRANCH  10  11
BRANCH  10  20
HETATM   20  N6  UNL     1      17.766  30.980  14.298  1.00  0.00    -0.324 N 
HETATM   21  C19 UNL     1      18.288  30.888  12.986  1.00  0.00     0.362 C 
HETATM   22  O2  UNL     1      19.271  31.539  12.586  1.00  0.00    -0.238 OA
ATOM     23  H6  UNL     1      16.956  30.413  14.551  1.00  0.00     0.165 HD
BRANCH  21  24
HETATM   24  O3  UNL     1      17.674  30.033  12.104  1.00  0.00    -0.294 OA
BRANCH  24  25
HETATM   25  C20 UNL     1      18.128  28.705  11.866  1.00  0.00     0.061 C 
HETATM   26  C21 UNL     1      17.398  28.221  10.625  1.00  0.00     0.046 C 
HETATM   27  C22 UNL     1      17.698  27.783  12.998  1.00  0.00     0.046 C 
HETATM   28  C23 UNL     1      19.601  28.627  11.633  1.00  0.00     0.046 C 
ENDBRANCH  24  25
ENDBRANCH  21  24
ENDBRANCH  10  20
ENDBRANCH   8  10
BRANCH   1  29
HETATM   29  C3  UNL     1      19.649  34.278  17.619  1.00  0.00     0.160 C 
BRANCH  29  30
HETATM   30  N1  UNL     1      21.011  34.685  17.648  1.00  0.00    -0.302 N 
BRANCH  30  31
HETATM   31  C2  UNL     1      21.942  33.637  17.434  1.00  0.00     0.131 C 
HETATM   32  C1  UNL     1      22.923  33.917  16.317  1.00  0.00     0.027 C 
ENDBRANCH  30  31
BRANCH  30  33
HETATM   33  S1  UNL     1      21.474  36.016  18.534  1.00  0.00     0.331 S 
HETATM   34  O4  UNL     1      22.648  35.693  19.475  1.00  0.00    -0.196 OA
HETATM   35  O5  UNL     1      20.432  36.590  19.465  1.00  0.00    -0.196 OA
BRANCH  33  36
HETATM   36  C24 UNL     1      22.095  37.322  17.506  1.00  0.00     0.517 C 
HETATM   37  F1  UNL     1      23.494  37.318  17.508  1.00  0.00    -0.155 F 
HETATM   38  F2  UNL     1      21.676  37.139  16.189  1.00  0.00    -0.155 F 
HETATM   39  F3  UNL     1      21.670  38.563  17.905  1.00  0.00    -0.155 F 
ENDBRANCH  33  36
ENDBRANCH  30  33
ENDBRANCH  29  30
ENDBRANCH   1  29
BRANCH   5  40
HETATM   40  C10 UNL     1      15.734  34.464  17.885  1.00  0.00     0.027 C 
HETATM   41  C11 UNL     1      14.332  35.022  17.885  1.00  0.00     0.007 C 
ENDBRANCH   5  40
TORSDOF 15
ENDMDL
MODEL 2
REMARK VINA RESULT: -6.940082713      3.228      5.389
REMARK  15 active torsions:
REMARK  status: ('A' for Active; 'I' for Inactive)
REMARK    1  A    between atoms: C2_2  and  N1_3 
REMARK    2  A    between atoms: N1_3  and  C3_4 
REMARK    3  A    between atoms: N1_3  and  S1_35 
REMARK    4  A    between atoms: C3_4  and  C4_5 
REMARK    5  A    between atoms: C8_9  and  C10_11 
REMARK       I    between atoms: N2_13  and  C12_14 
REMARK    6  A    between atoms: C12_14  and  C13_16 
REMARK    7  A    between atoms: C13_16  and  C14_17 
REMARK    8  A    between atoms: C13_16  and  N6_26 
REMARK    9  A    between atoms: C14_17  and  C15_18 
REMARK   10  A    between atoms: C15_18  and  C16_19 
REMARK   11  A    between atoms: C16_19  and  C17_20 
REMARK   12  A    between atoms: C17_20  and  N3_21 
REMARK       I    between atoms: N6_26  and  C19_28 
REMARK   13  A    between atoms: C19_28  and  O3_30 
REMARK   14  A    between atoms: O3_30  and  C20_31 
REMARK   15  A    between atoms: S1_35  and  C24_38 
ROOT
HETATM    1  C4  UNL     1      19.206  33.590  16.824  1.00  0.00     0.107 C 
HETATM    2  C5  UNL     1      18.960  34.162  18.199  1.00  0.00     0.033 C 
HETATM    3  C6  UNL     1      19.921  35.327  18.171  1.00  0.00     0.011 C 
HETATM    4  C7  UNL     1      20.128  35.909  19.541  1.00  0.00     0.012 C 
HETATM    5  C8  UNL     1      21.122  34.797  17.494  1.00  0.00     0.035 C 
HETATM    6  C9  UNL     1      22.084  34.103  18.438  1.00  0.00     0.039 C 
HETATM    7  N2  UNL     1      20.625  33.771  16.598  1.00  0.00    -0.335 N 
HETATM    8  C12 UNL     1      21.401  33.038  15.673  1.00  0.00     0.243 C 
HETATM    9  O1  UNL     1      22.653  33.310  15.616  1.00  0.00    -0.271 OA
ENDROOT
BRANCH   8  10
HETATM   10  C13 UNL     1      20.880  31.975  14.764  1.00  0.00     0.179 C 
BRANCH  10  11
HETATM   11  C14 UNL     1      20.457  32.671  13.454  1.00  0.00     0.035 C 
BRANCH  11  12
HETATM   12  C15 UNL     1      19.400  31.892  12.734  1.00  0.00     0.004 C 
BRANCH  12  13
HETATM   13  C16 UNL     1      18.434  31.367  13.756  1.00  0.00     0.020 C 
BRANCH  13  14
HETATM   14  C17 UNL     1      17.603  30.237  13.178  1.00  0.00     0.122 C 
BRANCH  14  15
HETATM   15  N3  UNL     1      18.523  29.332  12.527  1.00  0.00    -0.367 N 
HETATM   16  C18 UNL     1      18.335  28.808  11.384  1.00  0.00     0.196 C 
HETATM   17  N4  UNL     1      19.319  27.932  10.853  1.00  0.00    -0.067 NA
HETATM   18  N5  UNL     1      17.164  29.078  10.629  1.00  0.00    -0.067 NA
ATOM     19  H3  UNL     1      19.385  29.097  13.020  1.00  0.00     0.161 HD
ENDBRANCH  14  15
ENDBRANCH  13  14
ENDBRANCH  12  13
ENDBRANCH  11  12
ENDBRANCH  10  11
BRANCH  10  20
HETATM   20  N6  UNL     1      22.009  31.130  14.319  1.00  0.00    -0.324 N 
HETATM   21  C19 UNL     1      21.882  29.726  14.183  1.00  0.00     0.362 C 
HETATM   22  O2  UNL     1      20.832  29.101  14.421  1.00  0.00    -0.238 OA
ATOM     23  H6  UNL     1      22.904  31.570  14.104  1.00  0.00     0.165 HD
BRANCH  21  24
HETATM   24  O3  UNL     1      22.979  29.016  13.764  1.00  0.00    -0.294 OA
BRANCH  24  25
HETATM   25  C20 UNL     1      23.130  28.532  12.434  1.00  0.00     0.061 C 
HETATM   26  C21 UNL     1      24.626  28.449  12.178  1.00  0.00     0.046 C 
HETATM   27  C22 UNL     1      22.584  29.541  11.434  1.00  0.00     0.046 C 
HETATM   28  C23 UNL     1      22.521  27.184  12.233  1.00  0.00     0.046 C 
ENDBRANCH  24  25
ENDBRANCH  21  24
ENDBRANCH  10  20
ENDBRANCH   8  10
BRANCH   1  29
HETATM   29  C3  UNL     1      18.341  34.260  15.804  1.00  0.00     0.160 C 
BRANCH  29  30
HETATM   30  N1  UNL     1      16.998  34.495  16.208  1.00  0.00    -0.302 N 
BRANCH  30  31
HETATM   31  C2  UNL     1      16.062  33.552  15.712  1.00  0.00     0.131 C 
HETATM   32  C1  UNL     1      15.645  32.518  16.734  1.00  0.00     0.027 C 
ENDBRANCH  30  31
BRANCH  30  33
HETATM   33  S1  UNL     1      16.487  36.036  16.573  1.00  0.00     0.331 S 
HETATM   34  O4  UNL     1      15.961  36.771  15.328  1.00  0.00    -0.196 OA
HETATM   35  O5  UNL     1      17.538  36.976  17.113  1.00  0.00    -0.196 OA
BRANCH  33  36
HETATM   36  C24 UNL     1      15.104  36.036  17.686  1.00  0.00     0.517 C 
HETATM   37  F1  UNL     1      15.373  35.224  18.794  1.00  0.00    -0.155 F 
HETATM   38  F2  UNL     1      14.866  37.325  18.159  1.00  0.00    -0.155 F 
HETATM   39  F3  UNL     1      13.948  35.592  17.100  1.00  0.00    -0.155 F 
ENDBRANCH  33  36
ENDBRANCH  30  33
ENDBRANCH  29  30
ENDBRANCH   1  29
BRANCH   5  40
HETATM   40  C10 UNL     1      21.779  35.922  16.726  1.00  0.00     0.027 C 
HETATM   41  C11 UNL     1      22.689  36.734  17.616  1.00  0.00     0.007 C 
ENDBRANCH   5  40
TORSDOF 15
ENDMDL
MODEL 3
REMARK VINA RESULT: -6.910823955      0.617      1.099
REMARK  15 active torsions:
REMARK  status: ('A' for Active; 'I' for Inactive)
REMARK    1  A    between atoms: C2_2  and  N1_3 
REMARK    2  A    between atoms: N1_3  and  C3_4 
REMARK    3  A    between atoms: N1_3  and  S1_35 
REMARK    4  A    between atoms: C3_4  and  C4_5 
REMARK    5  A    between atoms: C8_9  and  C10_11 
REMARK       I    between atoms: N2_13  and  C12_14 
REMARK    6  A    between atoms: C12_14  and  C13_16 
REMARK    7  A    between atoms: C13_16  and  C14_17 
REMARK    8  A    between atoms: C13_16  and  N6_26 
REMARK    9  A    between atoms: C14_17  and  C15_18 
REMARK   10  A    between atoms: C15_18  and  C16_19 
REMARK   11  A    between atoms: C16_19  and  C17_20 
REMARK   12  A    between atoms: C17_20  and  N3_21 
REMARK       I    between atoms: N6_26  and  C19_28 
REMARK   13  A    between atoms: C19_28  and  O3_30 
REMARK   14  A    between atoms: O3_30  and  C20_31 
REMARK   15  A    between atoms: S1_35  and  C24_38 
ROOT
HETATM    1  C4  UNL     1      18.936  34.661  16.374  1.00  0.00     0.107 C 
HETATM    2  C5  UNL     1      18.670  36.144  16.467  1.00  0.00     0.033 C 
HETATM    3  C6  UNL     1      17.404  36.129  17.291  1.00  0.00     0.011 C 
HETATM    4  C7  UNL     1      16.720  37.467  17.282  1.00  0.00     0.012 C 
HETATM    5  C8  UNL     1      16.629  34.992  16.754  1.00  0.00     0.035 C 
HETATM    6  C9  UNL     1      15.775  35.361  15.558  1.00  0.00     0.039 C 
HETATM    7  N2  UNL     1      17.625  34.057  16.266  1.00  0.00    -0.335 N 
HETATM    8  C12 UNL     1      17.362  32.774  15.739  1.00  0.00     0.243 C 
HETATM    9  O1  UNL     1      16.135  32.400  15.695  1.00  0.00    -0.271 OA
ENDROOT
BRANCH   8  10
HETATM   10  C13 UNL     1      18.394  31.825  15.228  1.00  0.00     0.179 C 
BRANCH  10  11
HETATM   11  C14 UNL     1      18.674  30.813  16.359  1.00  0.00     0.035 C 
BRANCH  11  12
HETATM   12  C15 UNL     1      20.142  30.606  16.561  1.00  0.00     0.004 C 
BRANCH  12  13
HETATM   13  C16 UNL     1      20.634  29.685  15.482  1.00  0.00     0.020 C 
BRANCH  13  14
HETATM   14  C17 UNL     1      21.742  30.340  14.679  1.00  0.00     0.122 C 
BRANCH  14  15
HETATM   15  N3  UNL     1      22.543  29.274  14.123  1.00  0.00    -0.367 N 
HETATM   16  C18 UNL     1      22.889  29.190  12.902  1.00  0.00     0.196 C 
HETATM   17  N4  UNL     1      23.679  28.089  12.480  1.00  0.00    -0.067 NA
HETATM   18  N5  UNL     1      22.501  30.172  11.954  1.00  0.00    -0.067 NA
ATOM     19  H3  UNL     1      22.853  28.536  14.755  1.00  0.00     0.161 HD
ENDBRANCH  14  15
ENDBRANCH  13  14
ENDBRANCH  12  13
ENDBRANCH  11  12
ENDBRANCH  10  11
BRANCH  10  20
HETATM   20  N6  UNL     1      17.785  30.969  14.186  1.00  0.00    -0.324 N 
HETATM   21  C19 UNL     1      18.347  30.857  12.892  1.00  0.00     0.362 C 
HETATM   22  O2  UNL     1      19.378  31.455  12.531  1.00  0.00    -0.238 OA
ATOM     23  H6  UNL     1      16.937  30.447  14.407  1.00  0.00     0.165 HD
BRANCH  21  24
HETATM   24  O3  UNL     1      17.719  30.041  11.984  1.00  0.00    -0.294 OA
BRANCH  24  25
HETATM   25  C20 UNL     1      18.060  28.671  11.803  1.00  0.00     0.061 C 
HETATM   26  C21 UNL     1      17.371  28.225  10.525  1.00  0.00     0.046 C 
HETATM   27  C22 UNL     1      17.472  27.822  12.921  1.00  0.00     0.046 C 
HETATM   28  C23 UNL     1      19.532  28.451  11.673  1.00  0.00     0.046 C 
ENDBRANCH  24  25
ENDBRANCH  21  24
ENDBRANCH  10  20
ENDBRANCH   8  10
BRANCH   1  29
HETATM   29  C3  UNL     1      19.726  34.186  17.551  1.00  0.00     0.160 C 
BRANCH  29  30
HETATM   30  N1  UNL     1      21.076  34.631  17.596  1.00  0.00    -0.302 N 
BRANCH  30  31
HETATM   31  C2  UNL     1      22.036  33.625  17.316  1.00  0.00     0.131 C 
HETATM   32  C1  UNL     1      22.805  33.862  16.035  1.00  0.00     0.027 C 
ENDBRANCH  30  31
BRANCH  30  33
HETATM   33  S1  UNL     1      21.506  35.922  18.555  1.00  0.00     0.331 S 
HETATM   34  O4  UNL     1      22.602  35.540  19.565  1.00  0.00    -0.196 OA
HETATM   35  O5  UNL     1      20.415  36.494  19.428  1.00  0.00    -0.196 OA
BRANCH  33  36
HETATM   36  C24 UNL     1      22.229  37.242  17.615  1.00  0.00     0.517 C 
HETATM   37  F1  UNL     1      21.660  37.296  16.337  1.00  0.00    -0.155 F 
HETATM   38  F2  UNL     1      21.984  38.465  18.236  1.00  0.00    -0.155 F 
HETATM   39  F3  UNL     1      23.586  37.115  17.475  1.00  0.00    -0.155 F 
ENDBRANCH  33  36
ENDBRANCH  30  33
ENDBRANCH  29  30
ENDBRANCH   1  29
BRANCH   5  40
HETATM   40  C10 UNL     1      15.817  34.389  17.877  1.00  0.00     0.027 C 
HETATM   41  C11 UNL     1      14.446  35.015  17.959  1.00  0.00     0.007 C 
ENDBRANCH   5  40
TORSDOF 15
ENDMDL
MODEL 4
REMARK VINA RESULT: -6.891371469      2.977      5.192
REMARK  15 active torsions:
REMARK  status: ('A' for Active; 'I' for Inactive)
REMARK    1  A    between atoms: C2_2  and  N1_3 
REMARK    2  A    between atoms: N1_3  and  C3_4 
REMARK    3  A    between atoms: N1_3  and  S1_35 
REMARK    4  A    between atoms: C3_4  and  C4_5 
REMARK    5  A    between atoms: C8_9  and  C10_11 
REMARK       I    between atoms: N2_13  and  C12_14 
REMARK    6  A    between atoms: C12_14  and  C13_16 
REMARK    7  A    between atoms: C13_16  and  C14_17 
REMARK    8  A    between atoms: C13_16  and  N6_26 
REMARK    9  A    between atoms: C14_17  and  C15_18 
REMARK   10  A    between atoms: C15_18  and  C16_19 
REMARK   11  A    between atoms: C16_19  and  C17_20 
REMARK   12  A    between atoms: C17_20  and  N3_21 
REMARK       I    between atoms: N6_26  and  C19_28 
REMARK   13  A    between atoms: C19_28  and  O3_30 
REMARK   14  A    between atoms: O3_30  and  C20_31 
REMARK   15  A    between atoms: S1_35  and  C24_38 
ROOT
HETATM    1  C4  UNL     1      18.874  33.837  17.335  1.00  0.00     0.107 C 
HETATM    2  C5  UNL     1      18.814  34.627  18.621  1.00  0.00     0.033 C 
HETATM    3  C6  UNL     1      19.590  35.855  18.208  1.00  0.00     0.011 C 
HETATM    4  C7  UNL     1      19.969  36.697  19.393  1.00  0.00     0.012 C 
HETATM    5  C8  UNL     1      20.704  35.329  17.392  1.00  0.00     0.035 C 
HETATM    6  C9  UNL     1      21.908  34.920  18.216  1.00  0.00     0.039 C 
HETATM    7  N2  UNL     1      20.189  34.112  16.796  1.00  0.00    -0.335 N 
HETATM    8  C12 UNL     1      20.870  33.300  15.861  1.00  0.00     0.243 C 
HETATM    9  O1  UNL     1      22.043  33.678  15.504  1.00  0.00    -0.271 OA
ENDROOT
BRANCH   8  10
HETATM   10  C13 UNL     1      20.335  32.043  15.263  1.00  0.00     0.179 C 
BRANCH  10  11
HETATM   11  C14 UNL     1      19.516  32.448  14.020  1.00  0.00     0.035 C 
BRANCH  11  12
HETATM   12  C15 UNL     1      18.331  31.554  13.827  1.00  0.00     0.004 C 
BRANCH  12  13
HETATM   13  C16 UNL     1      18.613  30.654  12.659  1.00  0.00     0.020 C 
BRANCH  13  14
HETATM   14  C17 UNL     1      17.381  29.848  12.293  1.00  0.00     0.122 C 
BRANCH  14  15
HETATM   15  N3  UNL     1      17.840  28.533  11.908  1.00  0.00    -0.367 N 
HETATM   16  C18 UNL     1      17.952  27.544  12.699  1.00  0.00     0.196 C 
HETATM   17  N4  UNL     1      18.417  26.301  12.195  1.00  0.00    -0.067 NA
HETATM   18  N5  UNL     1      17.622  27.657  14.075  1.00  0.00    -0.067 NA
ATOM     19  H3  UNL     1      18.094  28.388  10.930  1.00  0.00     0.161 HD
ENDBRANCH  14  15
ENDBRANCH  13  14
ENDBRANCH  12  13
ENDBRANCH  11  12
ENDBRANCH  10  11
BRANCH  10  20
HETATM   20  N6  UNL     1      21.455  31.282  14.666  1.00  0.00    -0.324 N 
HETATM   21  C19 UNL     1      21.481  29.867  14.672  1.00  0.00     0.362 C 
HETATM   22  O2  UNL     1      20.585  29.160  15.169  1.00  0.00    -0.238 OA
ATOM     23  H6  UNL     1      22.228  31.792  14.239  1.00  0.00     0.165 HD
BRANCH  21  24
HETATM   24  O3  UNL     1      22.559  29.238  14.096  1.00  0.00    -0.294 OA
BRANCH  24  25
HETATM   25  C20 UNL     1      22.588  28.844  12.730  1.00  0.00     0.061 C 
HETATM   26  C21 UNL     1      24.038  28.520  12.411  1.00  0.00     0.046 C 
HETATM   27  C22 UNL     1      22.207  30.010  11.829  1.00  0.00     0.046 C 
HETATM   28  C23 UNL     1      21.742  27.645  12.452  1.00  0.00     0.046 C 
ENDBRANCH  24  25
ENDBRANCH  21  24
ENDBRANCH  10  20
ENDBRANCH   8  10
BRANCH   1  29
HETATM   29  C3  UNL     1      17.754  34.220  16.421  1.00  0.00     0.160 C 
BRANCH  29  30
HETATM   30  N1  UNL     1      16.525  34.530  17.066  1.00  0.00    -0.302 N 
BRANCH  30  31
HETATM   31  C2  UNL     1      15.722  33.402  17.373  1.00  0.00     0.131 C 
HETATM   32  C1  UNL     1      15.641  32.392  16.250  1.00  0.00     0.027 C 
ENDBRANCH  30  31
BRANCH  30  33
HETATM   33  S1  UNL     1      15.796  36.006  16.822  1.00  0.00     0.331 S 
HETATM   34  O4  UNL     1      14.262  35.887  16.801  1.00  0.00    -0.196 OA
HETATM   35  O5  UNL     1      16.107  36.695  15.514  1.00  0.00    -0.196 OA
BRANCH  33  36
HETATM   36  C24 UNL     1      16.120  37.140  18.149  1.00  0.00     0.517 C 
HETATM   37  F1  UNL     1      17.241  37.924  17.854  1.00  0.00    -0.155 F 
HETATM   38  F2  UNL     1      15.039  38.002  18.320  1.00  0.00    -0.155 F 
HETATM   39  F3  UNL     1      16.340  36.511  19.346  1.00  0.00    -0.155 F 
ENDBRANCH  33  36
ENDBRANCH  30  33
ENDBRANCH  29  30
ENDBRANCH   1  29
BRANCH   5  40
HETATM   40  C10 UNL     1      21.052  36.352  16.334  1.00  0.00     0.027 C 
HETATM   41  C11 UNL     1      21.701  37.571  16.943  1.00  0.00     0.007 C 
ENDBRANCH   5  40
TORSDOF 15
ENDMDL
MODEL 5
REMARK VINA RESULT: -6.703599580      2.068      2.601
REMARK  15 active torsions:
REMARK  status: ('A' for Active; 'I' for Inactive)
REMARK    1  A    between atoms: C2_2  and  N1_3 
REMARK    2  A    between atoms: N1_3  and  C3_4 
REMARK    3  A    between atoms: N1_3  and  S1_35 
REMARK    4  A    between atoms: C3_4  and  C4_5 
REMARK    5  A    between atoms: C8_9  and  C10_11 
REMARK       I    between atoms: N2_13  and  C12_14 
REMARK    6  A    between atoms: C12_14  and  C13_16 
REMARK    7  A    between atoms: C13_16  and  C14_17 
REMARK    8  A    between atoms: C13_16  and  N6_26 
REMARK    9  A    between atoms: C14_17  and  C15_18 
REMARK   10  A    between atoms: C15_18  and  C16_19 
REMARK   11  A    between atoms: C16_19  and  C17_20 
REMARK   12  A    between atoms: C17_20  and  N3_21 
REMARK       I    between atoms: N6_26  and  C19_28 
REMARK   13  A    between atoms: C19_28  and  O3_30 
REMARK   14  A    between atoms: O3_30  and  C20_31 
REMARK   15  A    between atoms: S1_35  and  C24_38 
ROOT
HETATM    1  C4  UNL     1      19.118  34.610  16.371  1.00  0.00     0.107 C 
HETATM    2  C5  UNL     1      18.926  36.100  16.527  1.00  0.00     0.033 C 
HETATM    3  C6  UNL     1      17.685  36.112  17.388  1.00  0.00     0.011 C 
HETATM    4  C7  UNL     1      17.065  37.480  17.449  1.00  0.00     0.012 C 
HETATM    5  C8  UNL     1      16.841  35.033  16.834  1.00  0.00     0.035 C 
HETATM    6  C9  UNL     1      15.972  35.487  15.679  1.00  0.00     0.039 C 
HETATM    7  N2  UNL     1      17.777  34.073  16.282  1.00  0.00    -0.335 N 
HETATM    8  C12 UNL     1      17.438  32.824  15.717  1.00  0.00     0.243 C 
HETATM    9  O1  UNL     1      16.195  32.509  15.697  1.00  0.00    -0.271 OA
ENDROOT
BRANCH   8  10
HETATM   10  C13 UNL     1      18.409  31.848  15.141  1.00  0.00     0.179 C 
BRANCH  10  11
HETATM   11  C14 UNL     1      18.665  30.776  16.221  1.00  0.00     0.035 C 
BRANCH  11  12
HETATM   12  C15 UNL     1      20.118  30.431  16.319  1.00  0.00     0.004 C 
BRANCH  12  13
HETATM   13  C16 UNL     1      20.360  29.199  15.495  1.00  0.00     0.020 C 
BRANCH  13  14
HETATM   14  C17 UNL     1      21.542  29.397  14.566  1.00  0.00     0.122 C 
BRANCH  14  15
HETATM   15  N3  UNL     1      21.616  28.224  13.726  1.00  0.00    -0.367 N 
HETATM   16  C18 UNL     1      22.412  28.085  12.745  1.00  0.00     0.196 C 
HETATM   17  N4  UNL     1      22.386  26.879  11.996  1.00  0.00    -0.067 NA
HETATM   18  N5  UNL     1      23.326  29.109  12.382  1.00  0.00    -0.067 NA
ATOM     19  H3  UNL     1      20.983  27.451  13.936  1.00  0.00     0.161 HD
ENDBRANCH  14  15
ENDBRANCH  13  14
ENDBRANCH  12  13
ENDBRANCH  11  12
ENDBRANCH  10  11
BRANCH  10  20
HETATM   20  N6  UNL     1      17.733  31.068  14.080  1.00  0.00    -0.324 N 
HETATM   21  C19 UNL     1      18.365  30.783  12.846  1.00  0.00     0.362 C 
HETATM   22  O2  UNL     1      19.517  31.156  12.557  1.00  0.00    -0.238 OA
ATOM     23  H6  UNL     1      16.785  30.727  14.244  1.00  0.00     0.165 HD
BRANCH  21  24
HETATM   24  O3  UNL     1      17.667  30.053  11.916  1.00  0.00    -0.294 OA
BRANCH  24  25
HETATM   25  C20 UNL     1      17.933  28.682  11.647  1.00  0.00     0.061 C 
HETATM   26  C21 UNL     1      16.860  28.223  10.673  1.00  0.00     0.046 C 
HETATM   27  C22 UNL     1      17.750  27.845  12.905  1.00  0.00     0.046 C 
HETATM   28  C23 UNL     1      19.278  28.459  11.038  1.00  0.00     0.046 C 
ENDBRANCH  24  25
ENDBRANCH  21  24
ENDBRANCH  10  20
ENDBRANCH   8  10
BRANCH   1  29
HETATM   29  C3  UNL     1      19.919  34.055  17.506  1.00  0.00     0.160 C 
BRANCH  29  30
HETATM   30  N1  UNL     1      21.297  33.841  17.229  1.00  0.00    -0.302 N 
BRANCH  30  31
HETATM   31  C2  UNL     1      22.176  34.279  18.252  1.00  0.00     0.131 C 
HETATM   32  C1  UNL     1      22.044  35.752  18.575  1.00  0.00     0.027 C 
ENDBRANCH  30  31
BRANCH  30  33
HETATM   33  S1  UNL     1      21.841  33.785  15.657  1.00  0.00     0.331 S 
HETATM   34  O4  UNL     1      22.269  35.174  15.152  1.00  0.00    -0.196 OA
HETATM   35  O5  UNL     1      20.838  33.334  14.621  1.00  0.00    -0.196 OA
BRANCH  33  36
HETATM   36  C24 UNL     1      23.307  32.799  15.491  1.00  0.00     0.517 C 
HETATM   37  F1  UNL     1      23.429  32.327  14.179  1.00  0.00    -0.155 F 
HETATM   38  F2  UNL     1      24.437  33.566  15.767  1.00  0.00    -0.155 F 
HETATM   39  F3  UNL     1      23.324  31.721  16.337  1.00  0.00    -0.155 F 
ENDBRANCH  33  36
ENDBRANCH  30  33
ENDBRANCH  29  30
ENDBRANCH   1  29
BRANCH   5  40
HETATM   40  C10 UNL     1      16.034  34.426  17.959  1.00  0.00     0.027 C 
HETATM   41  C11 UNL     1      14.607  34.915  17.935  1.00  0.00     0.007 C 
ENDBRANCH   5  40
TORSDOF 15
ENDMDL
