MODEL 1
REMARK VINA RESULT: -8.355932288      0.000      0.000
REMARK  12 active torsions:
REMARK  status: ('A' for Active; 'I' for Inactive)
REMARK    1  A    between atoms: C2_2  and  C3_3 
REMARK    2  A    between atoms: C3_3  and  C4_4 
REMARK    3  A    between atoms: C4_4  and  N1_5 
REMARK       I    between atoms: N1_5  and  C5_7 
REMARK    4  A    between atoms: C5_7  and  C6_9 
REMARK    5  A    between atoms: C6_9  and  N2_10 
REMARK    6  A    between atoms: N3_13  and  C9_14 
REMARK    7  A    between atoms: C11_19  and  N5_20 
REMARK    8  A    between atoms: C12_22  and  C13_23 
REMARK    9  A    between atoms: C13_23  and  C14_24 
REMARK   10  A    between atoms: C20_33  and  N7_34 
REMARK   11  A    between atoms: C21_36  and  C22_37 
REMARK   12  A    between atoms: C22_37  and  C23_38 
ROOT
HETATM    1  C9  UNL     1      20.605  30.050  14.095  1.00  0.00     0.115 A 
HETATM    2  C10 UNL     1      20.057  28.850  13.704  1.00  0.00     0.149 A 
HETATM    3 CL1  UNL     1      18.341  28.508  14.063  1.00  0.00    -0.061 Cl
HETATM    4  N4  UNL     1      20.796  27.943  13.059  1.00  0.00    -0.178 N 
ATOM      5  H4  UNL     1      20.366  27.061  12.778  1.00  0.00     0.185 HD
HETATM    6  C11 UNL     1      22.092  28.161  12.769  1.00  0.00     0.684 A 
HETATM    7  N6  UNL     1      22.620  29.352  13.163  1.00  0.00    -0.174 N 
ATOM      8  H6  UNL     1      23.601  29.532  12.951  1.00  0.00     0.186 HD
HETATM    9  C20 UNL     1      21.922  30.321  13.824  1.00  0.00     0.150 A 
ENDROOT
BRANCH   1  10
HETATM   10  N3  UNL     1      19.725  30.968  14.791  1.00  0.00    -0.372 N 
HETATM   11  C8  UNL     1      18.971  31.861  13.937  1.00  0.00     0.143 C 
HETATM   12  C7  UNL     1      17.913  32.623  14.661  1.00  0.00     0.142 C 
HETATM   13  N2  UNL     1      18.079  32.682  16.067  1.00  0.00    -0.382 N 
HETATM   14  C25 UNL     1      18.386  31.461  16.719  1.00  0.00     0.142 C 
HETATM   15  C24 UNL     1      19.698  30.926  16.213  1.00  0.00     0.143 C 
BRANCH  13  16
HETATM   16  C6  UNL     1      17.311  33.618  16.779  1.00  0.00     0.160 C 
BRANCH  16  17
HETATM   17  C5  UNL     1      18.034  34.739  17.403  1.00  0.00     0.256 C 
HETATM   18  N1  UNL     1      18.778  34.564  18.584  1.00  0.00    -0.356 N 
ATOM     19  H1  UNL     1      18.804  33.630  18.994  1.00  0.00     0.162 HD
HETATM   20  O1  UNL     1      17.989  35.872  16.878  1.00  0.00    -0.267 OA
BRANCH  18  21
HETATM   21  C4  UNL     1      19.505  35.607  19.257  1.00  0.00     0.123 C 
BRANCH  21  22
HETATM   22  C3  UNL     1      20.934  35.687  18.826  1.00  0.00     0.019 C 
BRANCH  22  23
HETATM   23  C2  UNL     1      21.235  36.977  18.085  1.00  0.00    -0.003 C 
HETATM   24  C1  UNL     1      22.721  37.225  17.992  1.00  0.00     0.005 C 
ENDBRANCH  22  23
ENDBRANCH  21  22
ENDBRANCH  18  21
ENDBRANCH  16  17
ENDBRANCH  13  16
ENDBRANCH   1  10
BRANCH   9  25
HETATM   25  N7  UNL     1      22.452  31.381  14.146  1.00  0.00    -0.353 N 
HETATM   26  C21 UNL     1      22.720  32.691  14.001  1.00  0.00     0.065 C 
ATOM     27  H7  UNL     1      22.978  31.130  14.983  1.00  0.00     0.166 HD
BRANCH  26  28
HETATM   28  C22 UNL     1      23.603  33.308  15.099  1.00  0.00     0.080 C 
BRANCH  28  29
HETATM   29  C23 UNL     1      22.737  33.928  16.174  1.00  0.00     0.183 C 
HETATM   30 CL3  UNL     1      22.614  32.741  17.494  1.00  0.00    -0.108 Cl
HETATM   31 CL4  UNL     1      21.112  34.297  15.606  1.00  0.00    -0.108 Cl
ENDBRANCH  28  29
ENDBRANCH  26  28
ENDBRANCH   9  25
BRANCH   6  32
HETATM   32  N5  UNL     1      22.790  27.335  12.170  1.00  0.00    -0.205 N 
HETATM   33  C12 UNL     1      22.929  26.191  11.473  1.00  0.00     0.083 C 
ATOM     34  H5  UNL     1      23.737  27.708  12.236  1.00  0.00     0.183 HD
BRANCH  33  35
HETATM   35  C13 UNL     1      21.672  25.374  11.290  1.00  0.00     0.083 C 
BRANCH  35  36
HETATM   36  C14 UNL     1      21.185  25.418   9.891  1.00  0.00    -0.053 A 
HETATM   37  C15 UNL     1      21.912  25.066   8.806  1.00  0.00     0.009 A 
HETATM   38  C16 UNL     1      21.454  25.110   7.514  1.00  0.00     0.024 A 
HETATM   39  C17 UNL     1      20.156  25.546   7.308  1.00  0.00     0.034 A 
HETATM   40 CL2  UNL     1      19.503  25.630   5.690  1.00  0.00    -0.084 Cl
HETATM   41  C18 UNL     1      19.375  25.916   8.379  1.00  0.00     0.024 A 
HETATM   42  C19 UNL     1      19.888  25.853   9.676  1.00  0.00     0.009 A 
ENDBRANCH  35  36
ENDBRANCH  33  35
ENDBRANCH   6  32
TORSDOF 12
ENDMDL
MODEL 2
REMARK VINA RESULT: -8.249134835      2.610      4.232
REMARK  12 active torsions:
REMARK  status: ('A' for Active; 'I' for Inactive)
REMARK    1  A    between atoms: C2_2  and  C3_3 
REMARK    2  A    between atoms: C3_3  and  C4_4 
REMARK    3  A    between atoms: C4_4  and  N1_5 
REMARK       I    between atoms: N1_5  and  C5_7 
REMARK    4  A    between atoms: C5_7  and  C6_9 
REMARK    5  A    between atoms: C6_9  and  N2_10 
REMARK    6  A    between atoms: N3_13  and  C9_14 
REMARK    7  A    between atoms: C11_19  and  N5_20 
REMARK    8  A    between atoms: C12_22  and  C13_23 
REMARK    9  A    between atoms: C13_23  and  C14_24 
REMARK   10  A    between atoms: C20_33  and  N7_34 
REMARK   11  A    between atoms: C21_36  and  C22_37 
REMARK   12  A    between atoms: C22_37  and  C23_38 
ROOT
HETATM    1  C9  UNL     1      19.710  31.215  14.058  1.00  0.00     0.115 A 
HETATM    2  C10 UNL     1      20.523  30.620  13.122  1.00  0.00     0.149 A 
HETATM    3 CL1  UNL     1      22.281  30.931  13.159  1.00  0.00    -0.061 Cl
HETATM    4  N4  UNL     1      20.009  29.813  12.189  1.00  0.00    -0.178 N 
ATOM      5  H4  UNL     1      20.633  29.383  11.506  1.00  0.00     0.185 HD
HETATM    6  C11 UNL     1      18.690  29.554  12.126  1.00  0.00     0.684 A 
HETATM    7  N6  UNL     1      17.898  30.150  13.058  1.00  0.00    -0.174 N 
ATOM      8  H6  UNL     1      16.896  29.963  13.024  1.00  0.00     0.186 HD
HETATM    9  C20 UNL     1      18.358  30.983  14.037  1.00  0.00     0.150 A 
ENDROOT
BRANCH   1  10
HETATM   10  N3  UNL     1      20.359  32.076  15.027  1.00  0.00    -0.372 N 
HETATM   11  C8  UNL     1      20.916  31.394  16.176  1.00  0.00     0.143 C 
HETATM   12  C7  UNL     1      21.772  32.269  17.029  1.00  0.00     0.142 C 
HETATM   13  N2  UNL     1      21.575  33.659  16.841  1.00  0.00    -0.382 N 
HETATM   14  C25 UNL     1      21.530  34.116  15.499  1.00  0.00     0.142 C 
HETATM   15  C24 UNL     1      20.372  33.477  14.781  1.00  0.00     0.143 C 
BRANCH  13  16
HETATM   16  C6  UNL     1      22.112  34.533  17.801  1.00  0.00     0.160 C 
BRANCH  16  17
HETATM   17  C5  UNL     1      21.166  35.425  18.495  1.00  0.00     0.256 C 
HETATM   18  N1  UNL     1      19.817  35.067  18.673  1.00  0.00    -0.356 N 
ATOM     19  H1  UNL     1      19.515  34.164  18.307  1.00  0.00     0.162 HD
HETATM   20  O1  UNL     1      21.565  36.524  18.936  1.00  0.00    -0.267 OA
BRANCH  18  21
HETATM   21  C4  UNL     1      18.833  35.883  19.332  1.00  0.00     0.123 C 
BRANCH  21  22
HETATM   22  C3  UNL     1      18.109  36.789  18.390  1.00  0.00     0.019 C 
BRANCH  22  23
HETATM   23  C2  UNL     1      16.877  37.405  19.026  1.00  0.00    -0.003 C 
HETATM   24  C1  UNL     1      15.954  37.994  17.986  1.00  0.00     0.005 C 
ENDBRANCH  22  23
ENDBRANCH  21  22
ENDBRANCH  18  21
ENDBRANCH  16  17
ENDBRANCH  13  16
ENDBRANCH   1  10
BRANCH   9  25
HETATM   25  N7  UNL     1      17.594  31.485  14.857  1.00  0.00    -0.353 N 
HETATM   26  C21 UNL     1      17.165  31.752  16.104  1.00  0.00     0.065 C 
ATOM     27  H7  UNL     1      16.908  31.962  14.271  1.00  0.00     0.166 HD
BRANCH  26  28
HETATM   28  C22 UNL     1      15.928  32.661  16.193  1.00  0.00     0.080 C 
BRANCH  28  29
HETATM   29  C23 UNL     1      16.324  34.027  16.711  1.00  0.00     0.183 C 
HETATM   30 CL3  UNL     1      15.317  34.356  18.140  1.00  0.00    -0.108 Cl
HETATM   31 CL4  UNL     1      16.048  35.305  15.531  1.00  0.00    -0.108 Cl
ENDBRANCH  28  29
ENDBRANCH  26  28
ENDBRANCH   9  25
BRANCH   6  32
HETATM   32  N5  UNL     1      18.197  28.806  11.272  1.00  0.00    -0.205 N 
HETATM   33  C12 UNL     1      17.964  27.578  10.771  1.00  0.00     0.083 C 
ATOM     34  H5  UNL     1      17.734  29.438  10.619  1.00  0.00     0.183 HD
BRANCH  33  35
HETATM   35  C13 UNL     1      18.614  26.431  11.508  1.00  0.00     0.083 C 
BRANCH  35  36
HETATM   36  C14 UNL     1      19.918  26.061  10.909  1.00  0.00    -0.053 A 
HETATM   37  C15 UNL     1      21.104  26.082  11.560  1.00  0.00     0.009 A 
HETATM   38  C16 UNL     1      22.306  25.736  10.998  1.00  0.00     0.024 A 
HETATM   39  C17 UNL     1      22.304  25.339   9.671  1.00  0.00     0.034 A 
HETATM   40 CL2  UNL     1      23.798  24.885   8.887  1.00  0.00    -0.084 Cl
HETATM   41  C18 UNL     1      21.124  25.300   8.965  1.00  0.00     0.024 A 
HETATM   42  C19 UNL     1      19.924  25.662   9.583  1.00  0.00     0.009 A 
ENDBRANCH  35  36
ENDBRANCH  33  35
ENDBRANCH   6  32
TORSDOF 12
ENDMDL
MODEL 3
REMARK VINA RESULT: -8.245144243      3.404     10.114
REMARK  12 active torsions:
REMARK  status: ('A' for Active; 'I' for Inactive)
REMARK    1  A    between atoms: C2_2  and  C3_3 
REMARK    2  A    between atoms: C3_3  and  C4_4 
REMARK    3  A    between atoms: C4_4  and  N1_5 
REMARK       I    between atoms: N1_5  and  C5_7 
REMARK    4  A    between atoms: C5_7  and  C6_9 
REMARK    5  A    between atoms: C6_9  and  N2_10 
REMARK    6  A    between atoms: N3_13  and  C9_14 
REMARK    7  A    between atoms: C11_19  and  N5_20 
REMARK    8  A    between atoms: C12_22  and  C13_23 
REMARK    9  A    between atoms: C13_23  and  C14_24 
REMARK   10  A    between atoms: C20_33  and  N7_34 
REMARK   11  A    between atoms: C21_36  and  C22_37 
REMARK   12  A    between atoms: C22_37  and  C23_38 
ROOT
HETATM    1  C9  UNL     1      20.292  31.916  15.425  1.00  0.00     0.115 A 
HETATM    2  C10 UNL     1      21.657  32.082  15.463  1.00  0.00     0.149 A 
HETATM    3 CL1  UNL     1      22.694  31.087  14.403  1.00  0.00    -0.061 Cl
HETATM    4  N4  UNL     1      22.210  32.979  16.284  1.00  0.00    -0.178 N 
ATOM      5  H4  UNL     1      23.225  33.084  16.294  1.00  0.00     0.185 HD
HETATM    6  C11 UNL     1      21.464  33.748  17.099  1.00  0.00     0.684 A 
HETATM    7  N6  UNL     1      20.116  33.572  17.050  1.00  0.00    -0.174 N 
ATOM      8  H6  UNL     1      19.536  34.148  17.661  1.00  0.00     0.186 HD
HETATM    9  C20 UNL     1      19.487  32.675  16.235  1.00  0.00     0.150 A 
ENDROOT
BRANCH   1  10
HETATM   10  N3  UNL     1      19.786  30.916  14.505  1.00  0.00    -0.372 N 
HETATM   11  C8  UNL     1      19.752  29.566  15.026  1.00  0.00     0.143 C 
HETATM   12  C7  UNL     1      19.016  28.609  14.149  1.00  0.00     0.142 C 
HETATM   13  N2  UNL     1      18.845  29.040  12.810  1.00  0.00    -0.382 N 
HETATM   14  C25 UNL     1      18.395  30.373  12.627  1.00  0.00     0.142 C 
HETATM   15  C24 UNL     1      19.400  31.335  13.201  1.00  0.00     0.143 C 
BRANCH  13  16
HETATM   16  C6  UNL     1      18.439  28.088  11.861  1.00  0.00     0.160 C 
BRANCH  16  17
HETATM   17  C5  UNL     1      19.339  26.942  11.638  1.00  0.00     0.256 C 
HETATM   18  N1  UNL     1      20.670  27.126  11.222  1.00  0.00    -0.356 N 
ATOM     19  H1  UNL     1      20.995  28.083  11.083  1.00  0.00     0.162 HD
HETATM   20  O1  UNL     1      18.916  25.780  11.820  1.00  0.00    -0.267 OA
BRANCH  18  21
HETATM   21  C4  UNL     1      21.606  26.063  10.977  1.00  0.00     0.123 C 
BRANCH  21  22
HETATM   22  C3  UNL     1      22.978  26.372  11.482  1.00  0.00     0.019 C 
BRANCH  22  23
HETATM   23  C2  UNL     1      23.042  27.723  12.170  1.00  0.00    -0.003 C 
HETATM   24  C1  UNL     1      24.386  28.381  11.972  1.00  0.00     0.005 C 
ENDBRANCH  22  23
ENDBRANCH  21  22
ENDBRANCH  18  21
ENDBRANCH  16  17
ENDBRANCH  13  16
ENDBRANCH   1  10
BRANCH   9  25
HETATM   25  N7  UNL     1      18.264  32.568  16.229  1.00  0.00    -0.353 N 
HETATM   26  C21 UNL     1      17.111  31.874  16.203  1.00  0.00     0.065 C 
ATOM     27  H7  UNL     1      17.947  33.537  16.262  1.00  0.00     0.166 HD
BRANCH  26  28
HETATM   28  C22 UNL     1      15.831  32.722  16.289  1.00  0.00     0.080 C 
BRANCH  28  29
HETATM   29  C23 UNL     1      16.170  34.128  16.735  1.00  0.00     0.183 C 
HETATM   30 CL3  UNL     1      14.952  34.599  17.944  1.00  0.00    -0.108 Cl
HETATM   31 CL4  UNL     1      16.117  35.289  15.412  1.00  0.00    -0.108 Cl
ENDBRANCH  28  29
ENDBRANCH  26  28
ENDBRANCH   9  25
BRANCH   6  32
HETATM   32  N5  UNL     1      21.958  34.587  17.863  1.00  0.00    -0.205 N 
HETATM   33  C12 UNL     1      22.140  35.861  18.257  1.00  0.00     0.083 C 
ATOM     34  H5  UNL     1      22.499  34.036  18.528  1.00  0.00     0.183 HD
BRANCH  33  35
HETATM   35  C13 UNL     1      21.504  36.918  17.386  1.00  0.00     0.083 C 
BRANCH  35  36
HETATM   36  C14 UNL     1      20.198  37.365  17.928  1.00  0.00    -0.053 A 
HETATM   37  C15 UNL     1      19.021  36.728  17.735  1.00  0.00     0.009 A 
HETATM   38  C16 UNL     1      17.817  37.148  18.241  1.00  0.00     0.024 A 
HETATM   39  C17 UNL     1      17.809  38.306  19.000  1.00  0.00     0.034 A 
HETATM   40 CL2  UNL     1      16.312  38.903  19.676  1.00  0.00    -0.084 Cl
HETATM   41  C18 UNL     1      18.980  38.991  19.225  1.00  0.00     0.024 A 
HETATM   42  C19 UNL     1      20.181  38.522  18.688  1.00  0.00     0.009 A 
ENDBRANCH  35  36
ENDBRANCH  33  35
ENDBRANCH   6  32
TORSDOF 12
ENDMDL
MODEL 4
REMARK VINA RESULT: -8.236827192      3.015     10.126
REMARK  12 active torsions:
REMARK  status: ('A' for Active; 'I' for Inactive)
REMARK    1  A    between atoms: C2_2  and  C3_3 
REMARK    2  A    between atoms: C3_3  and  C4_4 
REMARK    3  A    between atoms: C4_4  and  N1_5 
REMARK       I    between atoms: N1_5  and  C5_7 
REMARK    4  A    between atoms: C5_7  and  C6_9 
REMARK    5  A    between atoms: C6_9  and  N2_10 
REMARK    6  A    between atoms: N3_13  and  C9_14 
REMARK    7  A    between atoms: C11_19  and  N5_20 
REMARK    8  A    between atoms: C12_22  and  C13_23 
REMARK    9  A    between atoms: C13_23  and  C14_24 
REMARK   10  A    between atoms: C20_33  and  N7_34 
REMARK   11  A    between atoms: C21_36  and  C22_37 
REMARK   12  A    between atoms: C22_37  and  C23_38 
ROOT
HETATM    1  C9  UNL     1      21.397  32.462  14.899  1.00  0.00     0.115 A 
HETATM    2  C10 UNL     1      22.476  33.189  15.346  1.00  0.00     0.149 A 
HETATM    3 CL1  UNL     1      24.129  32.649  14.941  1.00  0.00    -0.061 Cl
HETATM    4  N4  UNL     1      22.297  34.292  16.078  1.00  0.00    -0.178 N 
ATOM      5  H4  UNL     1      23.113  34.815  16.397  1.00  0.00     0.185 HD
HETATM    6  C11 UNL     1      21.068  34.733  16.406  1.00  0.00     0.684 A 
HETATM    7  N6  UNL     1      20.010  34.004  15.957  1.00  0.00    -0.174 N 
ATOM      8  H6  UNL     1      19.072  34.325  16.197  1.00  0.00     0.186 HD
HETATM    9  C20 UNL     1      20.123  32.869  15.205  1.00  0.00     0.150 A 
ENDROOT
BRANCH   1  10
HETATM   10  N3  UNL     1      21.692  31.279  14.115  1.00  0.00    -0.372 N 
HETATM   11  C8  UNL     1      21.811  30.053  14.877  1.00  0.00     0.143 C 
HETATM   12  C7  UNL     1      21.881  28.830  14.026  1.00  0.00     0.142 C 
HETATM   13  N2  UNL     1      22.238  29.064  12.675  1.00  0.00    -0.382 N 
HETATM   14  C25 UNL     1      21.561  30.123  12.018  1.00  0.00     0.142 C 
HETATM   15  C24 UNL     1      21.856  31.426  12.710  1.00  0.00     0.143 C 
BRANCH  13  16
HETATM   16  C6  UNL     1      22.616  27.959  11.896  1.00  0.00     0.160 C 
BRANCH  16  17
HETATM   17  C5  UNL     1      21.656  26.845  11.808  1.00  0.00     0.256 C 
HETATM   18  N1  UNL     1      20.299  27.068  11.510  1.00  0.00    -0.356 N 
ATOM     19  H1  UNL     1      20.001  28.031  11.352  1.00  0.00     0.162 HD
HETATM   20  O1  UNL     1      22.049  25.674  12.001  1.00  0.00    -0.267 OA
BRANCH  18  21
HETATM   21  C4  UNL     1      19.301  26.037  11.412  1.00  0.00     0.123 C 
BRANCH  21  22
HETATM   22  C3  UNL     1      18.290  26.310  10.347  1.00  0.00     0.019 C 
BRANCH  22  23
HETATM   23  C2  UNL     1      18.634  27.546   9.536  1.00  0.00    -0.003 C 
HETATM   24  C1  UNL     1      18.386  27.328   8.064  1.00  0.00     0.005 C 
ENDBRANCH  22  23
ENDBRANCH  21  22
ENDBRANCH  18  21
ENDBRANCH  16  17
ENDBRANCH  13  16
ENDBRANCH   1  10
BRANCH   9  25
HETATM   25  N7  UNL     1      19.130  32.258  14.822  1.00  0.00    -0.353 N 
HETATM   26  C21 UNL     1      18.020  31.520  15.004  1.00  0.00     0.065 C 
ATOM     27  H7  UNL     1      19.166  32.372  13.809  1.00  0.00     0.166 HD
BRANCH  26  28
HETATM   28  C22 UNL     1      17.231  31.192  13.724  1.00  0.00     0.080 C 
BRANCH  28  29
HETATM   29  C23 UNL     1      17.920  30.082  12.960  1.00  0.00     0.183 C 
HETATM   30 CL3  UNL     1      16.805  29.565  11.674  1.00  0.00    -0.108 Cl
HETATM   31 CL4  UNL     1      18.286  28.689  13.971  1.00  0.00    -0.108 Cl
ENDBRANCH  28  29
ENDBRANCH  26  28
ENDBRANCH   9  25
BRANCH   6  32
HETATM   32  N5  UNL     1      20.882  35.754  17.079  1.00  0.00    -0.205 N 
HETATM   33  C12 UNL     1      20.375  36.380  18.158  1.00  0.00     0.083 C 
ATOM     34  H5  UNL     1      21.346  36.493  16.552  1.00  0.00     0.183 HD
BRANCH  33  35
HETATM   35  C13 UNL     1      19.552  35.525  19.091  1.00  0.00     0.083 C 
BRANCH  35  36
HETATM   36  C14 UNL     1      18.112  35.558  18.741  1.00  0.00    -0.053 A 
HETATM   37  C15 UNL     1      17.427  34.535  18.180  1.00  0.00     0.009 A 
HETATM   38  C16 UNL     1      16.094  34.575  17.860  1.00  0.00     0.024 A 
HETATM   39  C17 UNL     1      15.403  35.743  18.130  1.00  0.00     0.034 A 
HETATM   40 CL2  UNL     1      13.702  35.868  17.749  1.00  0.00    -0.084 Cl
HETATM   41  C18 UNL     1      16.054  36.813  18.701  1.00  0.00     0.024 A 
HETATM   42  C19 UNL     1      17.413  36.723  19.009  1.00  0.00     0.009 A 
ENDBRANCH  35  36
ENDBRANCH  33  35
ENDBRANCH   6  32
TORSDOF 12
ENDMDL
MODEL 5
REMARK VINA RESULT: -8.224700617      2.408      4.590
REMARK  12 active torsions:
REMARK  status: ('A' for Active; 'I' for Inactive)
REMARK    1  A    between atoms: C2_2  and  C3_3 
REMARK    2  A    between atoms: C3_3  and  C4_4 
REMARK    3  A    between atoms: C4_4  and  N1_5 
REMARK       I    between atoms: N1_5  and  C5_7 
REMARK    4  A    between atoms: C5_7  and  C6_9 
REMARK    5  A    between atoms: C6_9  and  N2_10 
REMARK    6  A    between atoms: N3_13  and  C9_14 
REMARK    7  A    between atoms: C11_19  and  N5_20 
REMARK    8  A    between atoms: C12_22  and  C13_23 
REMARK    9  A    between atoms: C13_23  and  C14_24 
REMARK   10  A    between atoms: C20_33  and  N7_34 
REMARK   11  A    between atoms: C21_36  and  C22_37 
REMARK   12  A    between atoms: C22_37  and  C23_38 
ROOT
HETATM    1  C9  UNL     1      20.948  30.080  13.181  1.00  0.00     0.115 A 
HETATM    2  C10 UNL     1      22.196  30.440  13.633  1.00  0.00     0.149 A 
HETATM    3 CL1  UNL     1      22.344  31.634  14.953  1.00  0.00    -0.061 Cl
HETATM    4  N4  UNL     1      23.295  29.904  13.094  1.00  0.00    -0.178 N 
ATOM      5  H4  UNL     1      24.210  30.186  13.448  1.00  0.00     0.185 HD
HETATM    6  C11 UNL     1      23.227  29.002  12.098  1.00  0.00     0.684 A 
HETATM    7  N6  UNL     1      21.986  28.656  11.661  1.00  0.00    -0.174 N 
ATOM      8  H6  UNL     1      21.918  27.974  10.906  1.00  0.00     0.186 HD
HETATM    9  C20 UNL     1      20.824  29.165  12.167  1.00  0.00     0.150 A 
ENDROOT
BRANCH   1  10
HETATM   10  N3  UNL     1      19.816  30.718  13.825  1.00  0.00    -0.372 N 
HETATM   11  C8  UNL     1      19.334  30.052  15.017  1.00  0.00     0.143 C 
HETATM   12  C7  UNL     1      18.332  30.851  15.780  1.00  0.00     0.142 C 
HETATM   13  N2  UNL     1      17.714  31.891  15.042  1.00  0.00    -0.382 N 
HETATM   14  C25 UNL     1      18.573  32.719  14.277  1.00  0.00     0.142 C 
HETATM   15  C24 UNL     1      19.282  31.897  13.235  1.00  0.00     0.143 C 
BRANCH  13  16
HETATM   16  C6  UNL     1      16.562  32.484  15.585  1.00  0.00     0.160 C 
BRANCH  16  17
HETATM   17  C5  UNL     1      16.745  33.748  16.319  1.00  0.00     0.256 C 
HETATM   18  N1  UNL     1      16.145  34.943  15.881  1.00  0.00    -0.356 N 
ATOM     19  H1  UNL     1      15.574  34.904  15.037  1.00  0.00     0.162 HD
HETATM   20  O1  UNL     1      17.446  33.766  17.353  1.00  0.00    -0.267 OA
BRANCH  18  21
HETATM   21  C4  UNL     1      16.279  36.216  16.537  1.00  0.00     0.123 C 
BRANCH  21  22
HETATM   22  C3  UNL     1      15.206  36.462  17.547  1.00  0.00     0.019 C 
BRANCH  22  23
HETATM   23  C2  UNL     1      15.720  36.335  18.969  1.00  0.00    -0.003 C 
HETATM   24  C1  UNL     1      17.139  36.837  19.090  1.00  0.00     0.005 C 
ENDBRANCH  22  23
ENDBRANCH  21  22
ENDBRANCH  18  21
ENDBRANCH  16  17
ENDBRANCH  13  16
ENDBRANCH   1  10
BRANCH   9  25
HETATM   25  N7  UNL     1      19.731  28.807  11.737  1.00  0.00    -0.353 N 
HETATM   26  C21 UNL     1      18.585  28.104  11.784  1.00  0.00     0.065 C 
ATOM     27  H7  UNL     1      19.644  29.330  10.866  1.00  0.00     0.166 HD
BRANCH  26  28
HETATM   28  C22 UNL     1      17.604  28.368  10.629  1.00  0.00     0.080 C 
BRANCH  28  29
HETATM   29  C23 UNL     1      17.533  27.157   9.723  1.00  0.00     0.183 C 
HETATM   30 CL3  UNL     1      18.083  25.759  10.676  1.00  0.00    -0.108 Cl
HETATM   31 CL4  UNL     1      18.570  27.308   8.309  1.00  0.00    -0.108 Cl
ENDBRANCH  28  29
ENDBRANCH  26  28
ENDBRANCH   9  25
BRANCH   6  32
HETATM   32  N5  UNL     1      24.233  28.492  11.589  1.00  0.00    -0.205 N 
HETATM   33  C12 UNL     1      24.919  27.420  11.150  1.00  0.00     0.083 C 
ATOM     34  H5  UNL     1      24.856  29.280  11.416  1.00  0.00     0.183 HD
BRANCH  33  35
HETATM   35  C13 UNL     1      24.255  26.080  11.361  1.00  0.00     0.083 C 
BRANCH  35  36
HETATM   36  C14 UNL     1      23.407  25.698  10.207  1.00  0.00    -0.053 A 
HETATM   37  C15 UNL     1      22.079  25.451  10.269  1.00  0.00     0.009 A 
HETATM   38  C16 UNL     1      21.302  25.099   9.195  1.00  0.00     0.024 A 
HETATM   39  C17 UNL     1      21.923  24.988   7.962  1.00  0.00     0.034 A 
HETATM   40 CL2  UNL     1      20.998  24.543   6.549  1.00  0.00    -0.084 Cl
HETATM   41  C18 UNL     1      23.272  25.230   7.846  1.00  0.00     0.024 A 
HETATM   42  C19 UNL     1      24.020  25.586   8.970  1.00  0.00     0.009 A 
ENDBRANCH  35  36
ENDBRANCH  33  35
ENDBRANCH   6  32
TORSDOF 12
ENDMDL
