MODEL 1
REMARK VINA RESULT: -8.740153605      0.000      0.000
REMARK  18 active torsions:
REMARK  status: ('A' for Active; 'I' for Inactive)
REMARK    1  A    between atoms: C2_2  and  C4_4 
REMARK    2  A    between atoms: C4_4  and  O1_5 
REMARK    3  A    between atoms: C4_4  and  C5_7 
REMARK    4  A    between atoms: C5_7  and  C6_9 
REMARK    5  A    between atoms: C6_9  and  O3_10 
REMARK    6  A    between atoms: C10_16  and  O5_18 
REMARK    7  A    between atoms: O5_18  and  C12_19 
REMARK    8  A    between atoms: C12_19  and  C13_21 
REMARK    9  A    between atoms: C13_21  and  C14_22 
REMARK   10  A    between atoms: C14_22  and  C15_23 
REMARK   11  A    between atoms: C15_23  and  C16_24 
REMARK   12  A    between atoms: C16_24  and  C17_25 
REMARK   13  A    between atoms: C18_27  and  C19_28 
REMARK   14  A    between atoms: C19_28  and  C20_29 
REMARK   15  A    between atoms: C24_33  and  C25_34 
REMARK   16  A    between atoms: C25_34  and  O8_35 
REMARK   17  A    between atoms: C25_34  and  C26_37 
REMARK   18  A    between atoms: C27_38  and  C28_39 
ROOT
HETATM    1  C6  UNL     1      21.223  31.914  14.600  1.00  0.00     0.139 C 
HETATM    2  C7  UNL     1      20.163  32.740  13.897  1.00  0.00     0.126 C 
HETATM    3  C8  UNL     1      19.880  31.754  12.768  1.00  0.00     0.138 C 
HETATM    4  O4  UNL     1      19.804  32.000  11.595  1.00  0.00    -0.297 OA
HETATM    5  C9  UNL     1      19.729  30.468  13.492  1.00  0.00     0.105 C 
HETATM    6  C10 UNL     1      19.683  29.346  12.575  1.00  0.00     0.079 C 
HETATM    7  C11 UNL     1      19.090  28.078  13.191  1.00  0.00     0.047 C 
HETATM    8  C23 UNL     1      20.948  28.902  11.875  1.00  0.00     0.050 C 
HETATM    9  C24 UNL     1      22.190  28.773  12.544  1.00  0.00     0.043 C 
HETATM   10  C29 UNL     1      22.315  28.691  14.007  1.00  0.00    -0.022 C 
HETATM   11  C30 UNL     1      21.590  29.477  14.951  1.00  0.00    -0.017 C 
HETATM   12  C31 UNL     1      20.610  30.517  14.679  1.00  0.00     0.025 C 
HETATM   13  C32 UNL     1      19.640  30.475  15.894  1.00  0.00     0.024 C 
ENDROOT
BRANCH   6  14
HETATM   14  O5  UNL     1      18.826  29.648  11.504  1.00  0.00    -0.306 OA
BRANCH  14  15
HETATM   15  C12 UNL     1      17.633  29.019  11.110  1.00  0.00     0.284 C 
HETATM   16  O6  UNL     1      16.643  29.726  11.262  1.00  0.00    -0.260 OA
BRANCH  15  17
HETATM   17  C13 UNL     1      17.710  27.692  10.614  1.00  0.00     0.094 C 
BRANCH  17  18
HETATM   18  C14 UNL     1      18.517  27.142   9.646  1.00  0.00    -0.023 C 
HETATM   19  C18 UNL     1      18.081  27.551   8.354  1.00  0.00     0.008 C 
BRANCH  18  20
HETATM   20  C15 UNL     1      19.571  26.298  10.067  1.00  0.00     0.070 C 
BRANCH  20  21
HETATM   21  C16 UNL     1      20.612  25.742   9.710  1.00  0.00    -0.087 C 
BRANCH  21  22
HETATM   22  C17 UNL     1      21.800  25.124   9.286  1.00  0.00     0.314 C 
HETATM   23  O7  UNL     1      21.930  24.349   8.332  1.00  0.00    -0.293 OA
ENDBRANCH  21  22
ENDBRANCH  20  21
ENDBRANCH  18  20
BRANCH  19  24
HETATM   24  C19 UNL     1      18.198  27.581   7.141  1.00  0.00    -0.022 C 
BRANCH  24  25
HETATM   25  C20 UNL     1      18.379  26.911   5.896  1.00  0.00    -0.000 C 
HETATM   26  C21 UNL     1      18.137  27.901   4.714  1.00  0.00     0.013 C 
HETATM   27  C22 UNL     1      19.617  26.159   5.615  1.00  0.00     0.013 C 
ENDBRANCH  24  25
ENDBRANCH  19  24
ENDBRANCH  17  18
ENDBRANCH  15  17
ENDBRANCH  14  15
ENDBRANCH   6  14
BRANCH   9  28
HETATM   28  C25 UNL     1      23.012  27.631  11.964  1.00  0.00     0.149 C 
BRANCH  28  29
HETATM   29  O8  UNL     1      22.471  26.459  12.560  1.00  0.00    -0.391 OA
ATOM     30  H8  UNL     1      23.219  26.020  12.947  1.00  0.00     0.210 HD
ENDBRANCH  28  29
BRANCH  28  31
HETATM   31  C26 UNL     1      24.430  27.635  12.352  1.00  0.00     0.012 C 
HETATM   32  C27 UNL     1      25.333  26.887  11.761  1.00  0.00     0.083 C 
BRANCH  32  33
HETATM   33  C28 UNL     1      25.174  25.953  10.675  1.00  0.00     0.198 C 
HETATM   34  O9  UNL     1      24.673  24.804  11.001  1.00  0.00    -0.645 OA
HETATM   35  O10 UNL     1      25.506  26.219   9.380  1.00  0.00    -0.645 OA
ENDBRANCH  32  33
ENDBRANCH  28  31
ENDBRANCH   9  28
BRANCH   1  36
HETATM   36  C5  UNL     1      21.851  32.472  15.757  1.00  0.00     0.195 C 
HETATM   37  O2  UNL     1      23.101  32.603  15.710  1.00  0.00    -0.291 OA
BRANCH  36  38
HETATM   38  C4  UNL     1      21.275  32.950  17.050  1.00  0.00     0.218 C 
BRANCH  38  39
HETATM   39  C2  UNL     1      20.883  34.348  17.064  1.00  0.00    -0.058 C 
HETATM   40  C1  UNL     1      19.607  34.713  16.917  1.00  0.00     0.017 C 
HETATM   41  C3  UNL     1      21.851  35.449  17.247  1.00  0.00     0.046 C 
ENDBRANCH  38  39
BRANCH  38  42
HETATM   42  O1  UNL     1      22.261  32.829  18.074  1.00  0.00    -0.384 OA
ATOM     43  H1  UNL     1      22.915  32.236  17.721  1.00  0.00     0.211 HD
ENDBRANCH  38  42
ENDBRANCH  36  38
ENDBRANCH   1  36
BRANCH   1  44
HETATM   44  O3  UNL     1      22.271  31.880  13.616  1.00  0.00    -0.380 OA
ATOM     45  H3  UNL     1      22.180  32.705  13.153  1.00  0.00     0.211 HD
ENDBRANCH   1  44
TORSDOF 18
ENDMDL
MODEL 2
REMARK VINA RESULT: -8.454862523      3.083     10.540
REMARK  18 active torsions:
REMARK  status: ('A' for Active; 'I' for Inactive)
REMARK    1  A    between atoms: C2_2  and  C4_4 
REMARK    2  A    between atoms: C4_4  and  O1_5 
REMARK    3  A    between atoms: C4_4  and  C5_7 
REMARK    4  A    between atoms: C5_7  and  C6_9 
REMARK    5  A    between atoms: C6_9  and  O3_10 
REMARK    6  A    between atoms: C10_16  and  O5_18 
REMARK    7  A    between atoms: O5_18  and  C12_19 
REMARK    8  A    between atoms: C12_19  and  C13_21 
REMARK    9  A    between atoms: C13_21  and  C14_22 
REMARK   10  A    between atoms: C14_22  and  C15_23 
REMARK   11  A    between atoms: C15_23  and  C16_24 
REMARK   12  A    between atoms: C16_24  and  C17_25 
REMARK   13  A    between atoms: C18_27  and  C19_28 
REMARK   14  A    between atoms: C19_28  and  C20_29 
REMARK   15  A    between atoms: C24_33  and  C25_34 
REMARK   16  A    between atoms: C25_34  and  O8_35 
REMARK   17  A    between atoms: C25_34  and  C26_37 
REMARK   18  A    between atoms: C27_38  and  C28_39 
ROOT
HETATM    1  C6  UNL     1      19.954  30.218  12.671  1.00  0.00     0.139 C 
HETATM    2  C7  UNL     1      21.400  30.666  12.586  1.00  0.00     0.126 C 
HETATM    3  C8  UNL     1      21.282  31.850  13.541  1.00  0.00     0.138 C 
HETATM    4  O4  UNL     1      21.694  32.964  13.364  1.00  0.00    -0.297 OA
HETATM    5  C9  UNL     1      20.556  31.265  14.694  1.00  0.00     0.105 C 
HETATM    6  C10 UNL     1      20.132  32.290  15.628  1.00  0.00     0.079 C 
HETATM    7  C11 UNL     1      19.792  31.747  17.017  1.00  0.00     0.047 C 
HETATM    8  C23 UNL     1      18.986  33.206  15.260  1.00  0.00     0.050 C 
HETATM    9  C24 UNL     1      17.788  32.737  14.669  1.00  0.00     0.043 C 
HETATM   10  C29 UNL     1      17.377  31.326  14.686  1.00  0.00    -0.022 C 
HETATM   11  C30 UNL     1      18.232  30.205  14.469  1.00  0.00    -0.017 C 
HETATM   12  C31 UNL     1      19.656  30.215  14.169  1.00  0.00     0.025 C 
HETATM   13  C32 UNL     1      20.197  28.890  14.775  1.00  0.00     0.024 C 
ENDROOT
BRANCH   6  14
HETATM   14  O5  UNL     1      21.188  33.188  15.852  1.00  0.00    -0.306 OA
BRANCH  14  15
HETATM   15  C12 UNL     1      22.104  33.242  16.916  1.00  0.00     0.284 C 
HETATM   16  O6  UNL     1      23.064  32.493  16.764  1.00  0.00    -0.260 OA
BRANCH  15  17
HETATM   17  C13 UNL     1      21.819  34.109  18.001  1.00  0.00     0.094 C 
BRANCH  17  18
HETATM   18  C14 UNL     1      21.369  35.410  18.015  1.00  0.00    -0.023 C 
HETATM   19  C18 UNL     1      19.961  35.438  18.229  1.00  0.00     0.008 C 
BRANCH  18  20
HETATM   20  C15 UNL     1      22.317  36.438  17.810  1.00  0.00     0.070 C 
BRANCH  20  21
HETATM   21  C16 UNL     1      22.832  37.438  18.312  1.00  0.00    -0.087 C 
BRANCH  21  22
HETATM   22  C17 UNL     1      23.425  38.567  18.905  1.00  0.00     0.314 C 
HETATM   23  O7  UNL     1      23.203  39.009  20.037  1.00  0.00    -0.293 OA
ENDBRANCH  21  22
ENDBRANCH  20  21
ENDBRANCH  18  20
BRANCH  19  24
HETATM   24  C19 UNL     1      18.914  36.036  18.400  1.00  0.00    -0.022 C 
BRANCH  24  25
HETATM   25  C20 UNL     1      18.189  37.258  18.521  1.00  0.00    -0.000 C 
HETATM   26  C21 UNL     1      19.155  38.417  18.922  1.00  0.00     0.013 C 
HETATM   27  C22 UNL     1      17.328  37.740  17.424  1.00  0.00     0.013 C 
ENDBRANCH  24  25
ENDBRANCH  19  24
ENDBRANCH  17  18
ENDBRANCH  15  17
ENDBRANCH  14  15
ENDBRANCH   6  14
BRANCH   9  28
HETATM   28  C25 UNL     1      16.590  33.555  15.129  1.00  0.00     0.149 C 
BRANCH  28  29
HETATM   29  O8  UNL     1      17.120  34.462  16.087  1.00  0.00    -0.391 OA
ATOM     30  H8  UNL     1      16.955  34.048  16.926  1.00  0.00     0.210 HD
ENDBRANCH  28  29
BRANCH  28  31
HETATM   31  C26 UNL     1      15.566  32.791  15.855  1.00  0.00     0.012 C 
HETATM   32  C27 UNL     1      14.943  33.257  16.913  1.00  0.00     0.083 C 
BRANCH  32  33
HETATM   33  C28 UNL     1      15.096  34.530  17.571  1.00  0.00     0.198 C 
HETATM   34  O9  UNL     1      15.721  34.497  18.705  1.00  0.00    -0.645 OA
HETATM   35  O10 UNL     1      14.637  35.713  17.071  1.00  0.00    -0.645 OA
ENDBRANCH  32  33
ENDBRANCH  28  31
ENDBRANCH   9  28
BRANCH   1  36
HETATM   36  C5  UNL     1      19.548  29.104  11.872  1.00  0.00     0.195 C 
HETATM   37  O2  UNL     1      20.454  28.512  11.232  1.00  0.00    -0.291 OA
BRANCH  36  38
HETATM   38  C4  UNL     1      18.204  28.489  11.658  1.00  0.00     0.218 C 
BRANCH  38  39
HETATM   39  C2  UNL     1      18.224  27.174  11.042  1.00  0.00    -0.058 C 
HETATM   40  C1  UNL     1      18.390  26.068  11.771  1.00  0.00     0.017 C 
HETATM   41  C3  UNL     1      18.060  26.969   9.588  1.00  0.00     0.046 C 
ENDBRANCH  38  39
BRANCH  38  42
HETATM   42  O1  UNL     1      17.452  29.308  10.763  1.00  0.00    -0.384 OA
ATOM     43  H1  UNL     1      17.937  30.123  10.706  1.00  0.00     0.211 HD
ENDBRANCH  38  42
ENDBRANCH  36  38
ENDBRANCH   1  36
BRANCH   1  44
HETATM   44  O3  UNL     1      19.265  31.336  12.087  1.00  0.00    -0.380 OA
ATOM     45  H3  UNL     1      19.951  31.829  11.652  1.00  0.00     0.211 HD
ENDBRANCH   1  44
TORSDOF 18
ENDMDL
MODEL 3
REMARK VINA RESULT: -8.437961269      1.427      1.863
REMARK  18 active torsions:
REMARK  status: ('A' for Active; 'I' for Inactive)
REMARK    1  A    between atoms: C2_2  and  C4_4 
REMARK    2  A    between atoms: C4_4  and  O1_5 
REMARK    3  A    between atoms: C4_4  and  C5_7 
REMARK    4  A    between atoms: C5_7  and  C6_9 
REMARK    5  A    between atoms: C6_9  and  O3_10 
REMARK    6  A    between atoms: C10_16  and  O5_18 
REMARK    7  A    between atoms: O5_18  and  C12_19 
REMARK    8  A    between atoms: C12_19  and  C13_21 
REMARK    9  A    between atoms: C13_21  and  C14_22 
REMARK   10  A    between atoms: C14_22  and  C15_23 
REMARK   11  A    between atoms: C15_23  and  C16_24 
REMARK   12  A    between atoms: C16_24  and  C17_25 
REMARK   13  A    between atoms: C18_27  and  C19_28 
REMARK   14  A    between atoms: C19_28  and  C20_29 
REMARK   15  A    between atoms: C24_33  and  C25_34 
REMARK   16  A    between atoms: C25_34  and  O8_35 
REMARK   17  A    between atoms: C25_34  and  C26_37 
REMARK   18  A    between atoms: C27_38  and  C28_39 
ROOT
HETATM    1  C6  UNL     1      21.138  31.678  14.600  1.00  0.00     0.139 C 
HETATM    2  C7  UNL     1      20.123  32.550  13.885  1.00  0.00     0.126 C 
HETATM    3  C8  UNL     1      19.877  31.616  12.705  1.00  0.00     0.138 C 
HETATM    4  O4  UNL     1      19.858  31.911  11.541  1.00  0.00    -0.297 OA
HETATM    5  C9  UNL     1      19.674  30.304  13.367  1.00  0.00     0.105 C 
HETATM    6  C10 UNL     1      19.654  29.222  12.403  1.00  0.00     0.079 C 
HETATM    7  C11 UNL     1      19.014  27.939  12.939  1.00  0.00     0.047 C 
HETATM    8  C23 UNL     1      20.943  28.786  11.743  1.00  0.00     0.050 C 
HETATM    9  C24 UNL     1      22.150  28.608  12.461  1.00  0.00     0.043 C 
HETATM   10  C29 UNL     1      22.208  28.465  13.923  1.00  0.00    -0.022 C 
HETATM   11  C30 UNL     1      21.452  29.223  14.866  1.00  0.00    -0.017 C 
HETATM   12  C31 UNL     1      20.501  30.290  14.593  1.00  0.00     0.025 C 
HETATM   13  C32 UNL     1      19.477  30.214  15.760  1.00  0.00     0.024 C 
ENDROOT
BRANCH   6  14
HETATM   14  O5  UNL     1      18.851  29.581  11.308  1.00  0.00    -0.306 OA
BRANCH  14  15
HETATM   15  C12 UNL     1      17.932  28.806  10.581  1.00  0.00     0.284 C 
HETATM   16  O6  UNL     1      16.771  29.179  10.719  1.00  0.00    -0.260 OA
BRANCH  15  17
HETATM   17  C13 UNL     1      18.430  27.722   9.816  1.00  0.00     0.094 C 
BRANCH  17  18
HETATM   18  C14 UNL     1      17.872  27.037   8.761  1.00  0.00    -0.023 C 
HETATM   19  C18 UNL     1      18.288  27.616   7.528  1.00  0.00     0.008 C 
BRANCH  18  20
HETATM   20  C15 UNL     1      17.018  25.951   9.057  1.00  0.00     0.070 C 
BRANCH  20  21
HETATM   21  C16 UNL     1      16.343  25.045   8.564  1.00  0.00    -0.087 C 
BRANCH  21  22
HETATM   22  C17 UNL     1      15.554  24.028   7.999  1.00  0.00     0.314 C 
HETATM   23  O7  UNL     1      15.535  22.838   8.332  1.00  0.00    -0.293 OA
ENDBRANCH  21  22
ENDBRANCH  20  21
ENDBRANCH  18  20
BRANCH  19  24
HETATM   24  C19 UNL     1      18.318  27.640   6.310  1.00  0.00    -0.022 C 
BRANCH  24  25
HETATM   25  C20 UNL     1      18.651  27.029   5.065  1.00  0.00    -0.000 C 
HETATM   26  C21 UNL     1      19.764  25.955   5.276  1.00  0.00     0.013 C 
HETATM   27  C22 UNL     1      17.605  26.440   4.207  1.00  0.00     0.013 C 
ENDBRANCH  24  25
ENDBRANCH  19  24
ENDBRANCH  17  18
ENDBRANCH  15  17
ENDBRANCH  14  15
ENDBRANCH   6  14
BRANCH   9  28
HETATM   28  C25 UNL     1      22.981  27.478  11.871  1.00  0.00     0.149 C 
BRANCH  28  29
HETATM   29  O8  UNL     1      22.379  26.291  12.371  1.00  0.00    -0.391 OA
ATOM     30  H8  UNL     1      21.831  25.981  11.660  1.00  0.00     0.210 HD
ENDBRANCH  28  29
BRANCH  28  31
HETATM   31  C26 UNL     1      24.372  27.426  12.341  1.00  0.00     0.012 C 
HETATM   32  C27 UNL     1      25.295  26.691  11.764  1.00  0.00     0.083 C 
BRANCH  32  33
HETATM   33  C28 UNL     1      25.182  25.823  10.619  1.00  0.00     0.198 C 
HETATM   34  O9  UNL     1      24.683  24.651  10.858  1.00  0.00    -0.645 OA
HETATM   35  O10 UNL     1      25.555  26.169   9.354  1.00  0.00    -0.645 OA
ENDBRANCH  32  33
ENDBRANCH  28  31
ENDBRANCH   9  28
BRANCH   1  36
HETATM   36  C5  UNL     1      21.720  32.178  15.806  1.00  0.00     0.195 C 
HETATM   37  O2  UNL     1      22.976  32.155  15.876  1.00  0.00    -0.291 OA
BRANCH  36  38
HETATM   38  C4  UNL     1      21.092  32.748  17.036  1.00  0.00     0.218 C 
BRANCH  38  39
HETATM   39  C2  UNL     1      20.410  34.015  16.843  1.00  0.00    -0.058 C 
HETATM   40  C1  UNL     1      21.073  35.110  16.465  1.00  0.00     0.017 C 
HETATM   41  C3  UNL     1      18.955  34.179  17.043  1.00  0.00     0.046 C 
ENDBRANCH  38  39
BRANCH  38  42
HETATM   42  O1  UNL     1      22.109  33.015  18.001  1.00  0.00    -0.384 OA
ATOM     43  H1  UNL     1      22.928  32.839  17.553  1.00  0.00     0.211 HD
ENDBRANCH  38  42
ENDBRANCH  36  38
ENDBRANCH   1  36
BRANCH   1  44
HETATM   44  O3  UNL     1      22.228  31.667  13.663  1.00  0.00    -0.380 OA
ATOM     45  H3  UNL     1      22.467  32.583  13.575  1.00  0.00     0.211 HD
ENDBRANCH   1  44
TORSDOF 18
ENDMDL
MODEL 4
REMARK VINA RESULT: -8.436195799      1.250      1.496
REMARK  18 active torsions:
REMARK  status: ('A' for Active; 'I' for Inactive)
REMARK    1  A    between atoms: C2_2  and  C4_4 
REMARK    2  A    between atoms: C4_4  and  O1_5 
REMARK    3  A    between atoms: C4_4  and  C5_7 
REMARK    4  A    between atoms: C5_7  and  C6_9 
REMARK    5  A    between atoms: C6_9  and  O3_10 
REMARK    6  A    between atoms: C10_16  and  O5_18 
REMARK    7  A    between atoms: O5_18  and  C12_19 
REMARK    8  A    between atoms: C12_19  and  C13_21 
REMARK    9  A    between atoms: C13_21  and  C14_22 
REMARK   10  A    between atoms: C14_22  and  C15_23 
REMARK   11  A    between atoms: C15_23  and  C16_24 
REMARK   12  A    between atoms: C16_24  and  C17_25 
REMARK   13  A    between atoms: C18_27  and  C19_28 
REMARK   14  A    between atoms: C19_28  and  C20_29 
REMARK   15  A    between atoms: C24_33  and  C25_34 
REMARK   16  A    between atoms: C25_34  and  O8_35 
REMARK   17  A    between atoms: C25_34  and  C26_37 
REMARK   18  A    between atoms: C27_38  and  C28_39 
ROOT
HETATM    1  C6  UNL     1      21.203  31.802  14.633  1.00  0.00     0.139 C 
HETATM    2  C7  UNL     1      20.154  32.658  13.948  1.00  0.00     0.126 C 
HETATM    3  C8  UNL     1      19.873  31.708  12.788  1.00  0.00     0.138 C 
HETATM    4  O4  UNL     1      19.807  31.991  11.622  1.00  0.00    -0.297 OA
HETATM    5  C9  UNL     1      19.707  30.402  13.470  1.00  0.00     0.105 C 
HETATM    6  C10 UNL     1      19.661  29.309  12.519  1.00  0.00     0.079 C 
HETATM    7  C11 UNL     1      19.054  28.026  13.091  1.00  0.00     0.047 C 
HETATM    8  C23 UNL     1      20.928  28.878  11.815  1.00  0.00     0.050 C 
HETATM    9  C24 UNL     1      22.164  28.719  12.489  1.00  0.00     0.043 C 
HETATM   10  C29 UNL     1      22.277  28.592  13.949  1.00  0.00    -0.022 C 
HETATM   11  C30 UNL     1      21.550  29.353  14.912  1.00  0.00    -0.017 C 
HETATM   12  C31 UNL     1      20.580  30.408  14.665  1.00  0.00     0.025 C 
HETATM   13  C32 UNL     1      19.601  30.335  15.870  1.00  0.00     0.024 C 
ENDROOT
BRANCH   6  14
HETATM   14  O5  UNL     1      18.814  29.650  11.452  1.00  0.00    -0.306 OA
BRANCH  14  15
HETATM   15  C12 UNL     1      17.725  28.943  10.914  1.00  0.00     0.284 C 
HETATM   16  O6  UNL     1      16.693  29.082  11.563  1.00  0.00    -0.260 OA
BRANCH  15  17
HETATM   17  C13 UNL     1      17.940  28.175   9.742  1.00  0.00     0.094 C 
BRANCH  17  18
HETATM   18  C14 UNL     1      18.083  26.817   9.573  1.00  0.00    -0.023 C 
HETATM   19  C18 UNL     1      16.930  26.280   8.932  1.00  0.00     0.008 C 
BRANCH  18  20
HETATM   20  C15 UNL     1      19.270  26.215  10.049  1.00  0.00     0.070 C 
BRANCH  20  21
HETATM   21  C16 UNL     1      20.363  25.755   9.713  1.00  0.00    -0.087 C 
BRANCH  21  22
HETATM   22  C17 UNL     1      21.608  25.242   9.310  1.00  0.00     0.314 C 
HETATM   23  O7  UNL     1      21.813  24.434   8.397  1.00  0.00    -0.293 OA
ENDBRANCH  21  22
ENDBRANCH  20  21
ENDBRANCH  18  20
BRANCH  19  24
HETATM   24  C19 UNL     1      16.311  25.354   8.438  1.00  0.00    -0.022 C 
BRANCH  24  25
HETATM   25  C20 UNL     1      16.219  24.284   7.499  1.00  0.00    -0.000 C 
HETATM   26  C21 UNL     1      17.633  23.943   6.934  1.00  0.00     0.013 C 
HETATM   27  C22 UNL     1      15.553  23.017   7.860  1.00  0.00     0.013 C 
ENDBRANCH  24  25
ENDBRANCH  19  24
ENDBRANCH  17  18
ENDBRANCH  15  17
ENDBRANCH  14  15
ENDBRANCH   6  14
BRANCH   9  28
HETATM   28  C25 UNL     1      22.983  27.591  11.880  1.00  0.00     0.149 C 
BRANCH  28  29
HETATM   29  O8  UNL     1      22.504  26.414  12.519  1.00  0.00    -0.391 OA
ATOM     30  H8  UNL     1      21.843  26.723  13.128  1.00  0.00     0.210 HD
ENDBRANCH  28  29
BRANCH  28  31
HETATM   31  C26 UNL     1      24.418  27.635  12.190  1.00  0.00     0.012 C 
HETATM   32  C27 UNL     1      25.303  26.874  11.588  1.00  0.00     0.083 C 
BRANCH  32  33
HETATM   33  C28 UNL     1      25.103  25.886  10.557  1.00  0.00     0.198 C 
HETATM   34  O9  UNL     1      24.614  24.756  10.959  1.00  0.00    -0.645 OA
HETATM   35  O10 UNL     1      25.388  26.086   9.239  1.00  0.00    -0.645 OA
ENDBRANCH  32  33
ENDBRANCH  28  31
ENDBRANCH   9  28
BRANCH   1  36
HETATM   36  C5  UNL     1      21.826  32.320  15.812  1.00  0.00     0.195 C 
HETATM   37  O2  UNL     1      23.083  32.318  15.830  1.00  0.00    -0.291 OA
BRANCH  36  38
HETATM   38  C4  UNL     1      21.238  32.887  17.063  1.00  0.00     0.218 C 
BRANCH  38  39
HETATM   39  C2  UNL     1      20.799  34.268  16.960  1.00  0.00    -0.058 C 
HETATM   40  C1  UNL     1      21.676  35.274  16.924  1.00  0.00     0.017 C 
HETATM   41  C3  UNL     1      19.374  34.651  16.884  1.00  0.00     0.046 C 
ENDBRANCH  38  39
BRANCH  38  42
HETATM   42  O1  UNL     1      22.230  32.887  18.088  1.00  0.00    -0.384 OA
ATOM     43  H1  UNL     1      21.944  32.228  18.710  1.00  0.00     0.211 HD
ENDBRANCH  38  42
ENDBRANCH  36  38
ENDBRANCH   1  36
BRANCH   1  44
HETATM   44  O3  UNL     1      22.258  31.791  13.656  1.00  0.00    -0.380 OA
ATOM     45  H3  UNL     1      22.183  30.938  13.245  1.00  0.00     0.211 HD
ENDBRANCH   1  44
TORSDOF 18
ENDMDL
MODEL 5
REMARK VINA RESULT: -8.414611957      3.353     10.688
REMARK  18 active torsions:
REMARK  status: ('A' for Active; 'I' for Inactive)
REMARK    1  A    between atoms: C2_2  and  C4_4 
REMARK    2  A    between atoms: C4_4  and  O1_5 
REMARK    3  A    between atoms: C4_4  and  C5_7 
REMARK    4  A    between atoms: C5_7  and  C6_9 
REMARK    5  A    between atoms: C6_9  and  O3_10 
REMARK    6  A    between atoms: C10_16  and  O5_18 
REMARK    7  A    between atoms: O5_18  and  C12_19 
REMARK    8  A    between atoms: C12_19  and  C13_21 
REMARK    9  A    between atoms: C13_21  and  C14_22 
REMARK   10  A    between atoms: C14_22  and  C15_23 
REMARK   11  A    between atoms: C15_23  and  C16_24 
REMARK   12  A    between atoms: C16_24  and  C17_25 
REMARK   13  A    between atoms: C18_27  and  C19_28 
REMARK   14  A    between atoms: C19_28  and  C20_29 
REMARK   15  A    between atoms: C24_33  and  C25_34 
REMARK   16  A    between atoms: C25_34  and  O8_35 
REMARK   17  A    between atoms: C25_34  and  C26_37 
REMARK   18  A    between atoms: C27_38  and  C28_39 
ROOT
HETATM    1  C6  UNL     1      20.025  30.649  12.921  1.00  0.00     0.139 C 
HETATM    2  C7  UNL     1      21.506  30.970  12.997  1.00  0.00     0.126 C 
HETATM    3  C8  UNL     1      21.377  32.224  13.857  1.00  0.00     0.138 C 
HETATM    4  O4  UNL     1      21.905  33.286  13.669  1.00  0.00    -0.297 OA
HETATM    5  C9  UNL     1      20.464  31.783  14.939  1.00  0.00     0.105 C 
HETATM    6  C10 UNL     1      20.021  32.901  15.748  1.00  0.00     0.079 C 
HETATM    7  C11 UNL     1      19.466  32.486  17.112  1.00  0.00     0.047 C 
HETATM    8  C23 UNL     1      19.017  33.880  15.182  1.00  0.00     0.050 C 
HETATM    9  C24 UNL     1      17.864  33.469  14.470  1.00  0.00     0.043 C 
HETATM   10  C29 UNL     1      17.329  32.101  14.518  1.00  0.00    -0.022 C 
HETATM   11  C30 UNL     1      18.100  30.901  14.480  1.00  0.00    -0.017 C 
HETATM   12  C31 UNL     1      19.545  30.775  14.366  1.00  0.00     0.025 C 
HETATM   13  C32 UNL     1      19.887  29.456  15.114  1.00  0.00     0.024 C 
ENDROOT
BRANCH   6  14
HETATM   14  O5  UNL     1      21.118  33.724  16.053  1.00  0.00    -0.306 OA
BRANCH  14  15
HETATM   15  C12 UNL     1      21.931  33.741  17.199  1.00  0.00     0.284 C 
HETATM   16  O6  UNL     1      22.783  32.858  17.199  1.00  0.00    -0.260 OA
BRANCH  15  17
HETATM   17  C13 UNL     1      21.674  34.726  18.186  1.00  0.00     0.094 C 
BRANCH  17  18
HETATM   18  C14 UNL     1      21.339  36.055  18.061  1.00  0.00    -0.023 C 
HETATM   19  C18 UNL     1      22.508  36.865  18.150  1.00  0.00     0.008 C 
BRANCH  18  20
HETATM   20  C15 UNL     1      19.973  36.377  17.893  1.00  0.00     0.070 C 
BRANCH  20  21
HETATM   21  C16 UNL     1      19.175  37.305  17.743  1.00  0.00    -0.087 C 
BRANCH  21  22
HETATM   22  C17 UNL     1      18.248  38.349  17.581  1.00  0.00     0.314 C 
HETATM   23  O7  UNL     1      17.444  38.485  16.652  1.00  0.00    -0.293 OA
ENDBRANCH  21  22
ENDBRANCH  20  21
ENDBRANCH  18  20
BRANCH  19  24
HETATM   24  C19 UNL     1      23.069  37.945  18.113  1.00  0.00    -0.022 C 
BRANCH  24  25
HETATM   25  C20 UNL     1      23.017  39.369  18.060  1.00  0.00    -0.000 C 
HETATM   26  C21 UNL     1      21.974  39.828  16.993  1.00  0.00     0.013 C 
HETATM   27  C22 UNL     1      22.798  40.164  19.284  1.00  0.00     0.013 C 
ENDBRANCH  24  25
ENDBRANCH  19  24
ENDBRANCH  17  18
ENDBRANCH  15  17
ENDBRANCH  14  15
ENDBRANCH   6  14
BRANCH   9  28
HETATM   28  C25 UNL     1      16.696  34.411  14.722  1.00  0.00     0.149 C 
BRANCH  28  29
HETATM   29  O8  UNL     1      17.208  35.386  15.622  1.00  0.00    -0.391 OA
ATOM     30  H8  UNL     1      16.463  35.635  16.156  1.00  0.00     0.210 HD
ENDBRANCH  28  29
BRANCH  28  31
HETATM   31  C26 UNL     1      15.557  33.806  15.426  1.00  0.00     0.012 C 
HETATM   32  C27 UNL     1      15.252  34.092  16.671  1.00  0.00     0.083 C 
BRANCH  32  33
HETATM   33  C28 UNL     1      15.906  34.997  17.583  1.00  0.00     0.198 C 
HETATM   34  O9  UNL     1      15.434  36.203  17.600  1.00  0.00    -0.645 OA
HETATM   35  O10 UNL     1      16.945  34.650  18.394  1.00  0.00    -0.645 OA
ENDBRANCH  32  33
ENDBRANCH  28  31
ENDBRANCH   9  28
BRANCH   1  36
HETATM   36  C5  UNL     1      19.623  29.517  12.144  1.00  0.00     0.195 C 
HETATM   37  O2  UNL     1      20.543  28.848  11.608  1.00  0.00    -0.291 OA
BRANCH  36  38
HETATM   38  C4  UNL     1      18.268  28.962  11.849  1.00  0.00     0.218 C 
BRANCH  38  39
HETATM   39  C2  UNL     1      18.017  27.640  12.394  1.00  0.00    -0.058 C 
HETATM   40  C1  UNL     1      17.490  27.479  13.610  1.00  0.00     0.017 C 
HETATM   41  C3  UNL     1      18.317  26.398  11.651  1.00  0.00     0.046 C 
ENDBRANCH  38  39
BRANCH  38  42
HETATM   42  O1  UNL     1      18.119  28.818  10.437  1.00  0.00    -0.384 OA
ATOM     43  H1  UNL     1      17.869  29.680  10.125  1.00  0.00     0.211 HD
ENDBRANCH  38  42
ENDBRANCH  36  38
ENDBRANCH   1  36
BRANCH   1  44
HETATM   44  O3  UNL     1      19.517  31.775  12.188  1.00  0.00    -0.380 OA
ATOM     45  H3  UNL     1      19.949  32.523  12.584  1.00  0.00     0.211 HD
ENDBRANCH   1  44
TORSDOF 18
ENDMDL
