MODEL 1
REMARK VINA RESULT: -8.633246024      0.000      0.000
REMARK  15 active torsions:
REMARK  status: ('A' for Active; 'I' for Inactive)
REMARK    1  A    between atoms: C2_2  and  C3_3 
REMARK    2  A    between atoms: C10_11  and  O2_12 
REMARK    3  A    between atoms: C11_14  and  O3_15 
REMARK    4  A    between atoms: O3_15  and  C12_16 
REMARK    5  A    between atoms: C12_16  and  C13_18 
REMARK    6  A    between atoms: C13_18  and  C14_19 
REMARK    7  A    between atoms: C14_19  and  C15_20 
REMARK       I    between atoms: C15_20  and  N1_22 
REMARK    8  A    between atoms: C20_27  and  C21_28 
REMARK       I    between atoms: C21_28  and  N2_30 
REMARK    9  A    between atoms: N2_30  and  C22_32 
REMARK   10  A    between atoms: C22_32  and  C23_33 
REMARK   11  A    between atoms: C23_33  and  C24_34 
REMARK   12  A    between atoms: C24_34  and  C25_35 
REMARK   13  A    between atoms: C25_35  and  C26_36 
REMARK   14  A    between atoms: C26_36  and  C27_37 
REMARK   15  A    between atoms: C27_37  and  C28_38 
ROOT
HETATM    1  C15 UNL     1      17.375  31.982  15.168  1.00  0.00     0.221 C 
HETATM    2  O5  UNL     1      17.465  30.985  15.914  1.00  0.00    -0.273 OA
HETATM    3  N1  UNL     1      17.234  33.295  15.705  1.00  0.00    -0.339 N 
HETATM    4  C16 UNL     1      17.125  34.466  14.868  1.00  0.00     0.127 C 
HETATM    5  C17 UNL     1      16.241  35.499  15.548  1.00  0.00     0.020 C 
HETATM    6  C18 UNL     1      15.235  34.776  16.418  1.00  0.00     0.004 C 
HETATM    7  C19 UNL     1      15.856  34.033  17.563  1.00  0.00     0.035 C 
HETATM    8  C20 UNL     1      17.183  33.463  17.120  1.00  0.00     0.179 C 
ENDROOT
BRANCH   1   9
HETATM    9  C14 UNL     1      17.417  31.779  13.692  1.00  0.00     0.112 C 
BRANCH   9  10
HETATM   10  C13 UNL     1      17.825  30.353  13.378  1.00  0.00     0.120 C 
BRANCH  10  11
HETATM   11  C12 UNL     1      18.939  30.389  12.405  1.00  0.00     0.259 C 
HETATM   12  O4  UNL     1      19.231  31.448  11.808  1.00  0.00    -0.265 OA
BRANCH  11  13
HETATM   13  O3  UNL     1      19.707  29.259  12.109  1.00  0.00    -0.312 OA
BRANCH  13  14
HETATM   14  C11 UNL     1      19.932  28.833  10.789  1.00  0.00     0.177 C 
HETATM   15  C10 UNL     1      21.014  27.866  10.574  1.00  0.00     0.163 C 
HETATM   16  C6  UNL     1      20.639  26.593  11.243  1.00  0.00     0.085 C 
HETATM   17  C7  UNL     1      22.195  27.736  11.419  1.00  0.00     0.100 C 
HETATM   18  C5  UNL     1      19.391  26.196  11.139  1.00  0.00     0.022 C 
HETATM   19  O1  UNL     1      21.914  26.378  11.727  1.00  0.00    -0.339 OA
HETATM   20  C3  UNL     1      18.321  26.919  10.402  1.00  0.00    -0.004 C 
HETATM   21  C4  UNL     1      16.995  26.783  11.163  1.00  0.00     0.024 C 
HETATM   22  C29 UNL     1      18.601  28.356  10.175  1.00  0.00     0.053 C 
HETATM   23  C8  UNL     1      23.510  27.731  10.606  1.00  0.00     0.050 C 
HETATM   24  C9  UNL     1      22.407  28.610  12.613  1.00  0.00     0.050 C 
BRANCH  15  25
HETATM   25  O2  UNL     1      21.361  27.687   9.217  1.00  0.00    -0.377 OA
ATOM     26  H2  UNL     1      20.628  27.832   8.630  1.00  0.00     0.211 HD
ENDBRANCH  15  25
BRANCH  20  27
HETATM   27  C2  UNL     1      18.097  26.176   9.101  1.00  0.00    -0.024 C 
HETATM   28  C1  UNL     1      18.124  26.807   7.954  1.00  0.00     0.008 C 
ENDBRANCH  20  27
ENDBRANCH  13  14
ENDBRANCH  11  13
ENDBRANCH  10  11
ENDBRANCH   9  10
ENDBRANCH   1   9
BRANCH   8  29
HETATM   29  C21 UNL     1      18.307  34.321  17.618  1.00  0.00     0.240 C 
HETATM   30  O6  UNL     1      18.101  35.210  18.467  1.00  0.00    -0.271 OA
HETATM   31  N2  UNL     1      19.614  34.115  17.117  1.00  0.00    -0.359 N 
ATOM     32  H2  UNL     1      19.773  33.390  16.417  1.00  0.00     0.162 HD
BRANCH  31  33
HETATM   33  C22 UNL     1      20.708  34.897  17.567  1.00  0.00     0.122 C 
BRANCH  33  34
HETATM   34  C23 UNL     1      22.066  34.310  17.455  1.00  0.00     0.020 C 
BRANCH  34  35
HETATM   35  C24 UNL     1      22.961  34.974  16.426  1.00  0.00     0.002 C 
BRANCH  35  36
HETATM   36  C25 UNL     1      23.804  33.849  15.821  1.00  0.00     0.001 C 
BRANCH  36  37
HETATM   37  C26 UNL     1      23.319  33.427  14.475  1.00  0.00     0.010 C 
BRANCH  37  38
HETATM   38  C27 UNL     1      22.862  31.980  14.593  1.00  0.00     0.113 C 
BRANCH  38  39
HETATM   39  C28 UNL     1      21.405  31.970  14.783  1.00  0.00     0.172 C 
HETATM   40  O7  UNL     1      20.865  30.947  15.279  1.00  0.00    -0.648 OA
HETATM   41  O8  UNL     1      20.589  33.028  14.447  1.00  0.00    -0.648 OA
ENDBRANCH  38  39
ENDBRANCH  37  38
ENDBRANCH  36  37
ENDBRANCH  35  36
ENDBRANCH  34  35
ENDBRANCH  33  34
ENDBRANCH  31  33
ENDBRANCH   8  29
TORSDOF 15
ENDMDL
MODEL 2
REMARK VINA RESULT: -8.601740820      1.384      2.918
REMARK  15 active torsions:
REMARK  status: ('A' for Active; 'I' for Inactive)
REMARK    1  A    between atoms: C2_2  and  C3_3 
REMARK    2  A    between atoms: C10_11  and  O2_12 
REMARK    3  A    between atoms: C11_14  and  O3_15 
REMARK    4  A    between atoms: O3_15  and  C12_16 
REMARK    5  A    between atoms: C12_16  and  C13_18 
REMARK    6  A    between atoms: C13_18  and  C14_19 
REMARK    7  A    between atoms: C14_19  and  C15_20 
REMARK       I    between atoms: C15_20  and  N1_22 
REMARK    8  A    between atoms: C20_27  and  C21_28 
REMARK       I    between atoms: C21_28  and  N2_30 
REMARK    9  A    between atoms: N2_30  and  C22_32 
REMARK   10  A    between atoms: C22_32  and  C23_33 
REMARK   11  A    between atoms: C23_33  and  C24_34 
REMARK   12  A    between atoms: C24_34  and  C25_35 
REMARK   13  A    between atoms: C25_35  and  C26_36 
REMARK   14  A    between atoms: C26_36  and  C27_37 
REMARK   15  A    between atoms: C27_37  and  C28_38 
ROOT
HETATM    1  C15 UNL     1      17.607  32.120  15.149  1.00  0.00     0.221 C 
HETATM    2  O5  UNL     1      17.681  31.084  15.842  1.00  0.00    -0.273 OA
HETATM    3  N1  UNL     1      17.318  33.385  15.740  1.00  0.00    -0.339 N 
HETATM    4  C16 UNL     1      17.224  34.598  14.964  1.00  0.00     0.127 C 
HETATM    5  C17 UNL     1      16.201  35.529  15.595  1.00  0.00     0.020 C 
HETATM    6  C18 UNL     1      15.156  34.692  16.301  1.00  0.00     0.004 C 
HETATM    7  C19 UNL     1      15.695  33.915  17.465  1.00  0.00     0.035 C 
HETATM    8  C20 UNL     1      17.098  33.457  17.147  1.00  0.00     0.179 C 
ENDROOT
BRANCH   1   9
HETATM    9  C14 UNL     1      17.827  32.015  13.678  1.00  0.00     0.112 C 
BRANCH   9  10
HETATM   10  C13 UNL     1      19.312  32.042  13.375  1.00  0.00     0.120 C 
BRANCH  10  11
HETATM   11  C12 UNL     1      19.511  31.612  11.973  1.00  0.00     0.259 C 
HETATM   12  O4  UNL     1      20.071  32.364  11.147  1.00  0.00    -0.265 OA
BRANCH  11  13
HETATM   13  O3  UNL     1      19.087  30.362  11.511  1.00  0.00    -0.312 OA
BRANCH  13  14
HETATM   14  C11 UNL     1      19.373  29.173  12.201  1.00  0.00     0.177 C 
HETATM   15  C10 UNL     1      18.652  27.966  11.781  1.00  0.00     0.163 C 
HETATM   16  C6  UNL     1      19.084  27.625  10.400  1.00  0.00     0.085 C 
HETATM   17  C7  UNL     1      17.332  27.957  11.162  1.00  0.00     0.100 C 
HETATM   18  C5  UNL     1      20.360  27.744  10.114  1.00  0.00     0.022 C 
HETATM   19  O1  UNL     1      17.804  27.301   9.995  1.00  0.00    -0.339 OA
HETATM   20  C3  UNL     1      21.411  28.193  11.065  1.00  0.00    -0.004 C 
HETATM   21  C4  UNL     1      22.441  29.054  10.320  1.00  0.00     0.024 C 
HETATM   22  C29 UNL     1      20.898  28.954  12.228  1.00  0.00     0.053 C 
HETATM   23  C8  UNL     1      16.360  26.970  11.848  1.00  0.00     0.050 C 
HETATM   24  C9  UNL     1      16.578  29.221  10.900  1.00  0.00     0.050 C 
BRANCH  15  25
HETATM   25  O2  UNL     1      18.781  26.881  12.675  1.00  0.00    -0.377 OA
ATOM     26  H2  UNL     1      19.675  26.754  12.970  1.00  0.00     0.211 HD
ENDBRANCH  15  25
BRANCH  20  27
HETATM   27  C2  UNL     1      22.178  26.959  11.493  1.00  0.00    -0.024 C 
HETATM   28  C1  UNL     1      23.488  26.953  11.506  1.00  0.00     0.008 C 
ENDBRANCH  20  27
ENDBRANCH  13  14
ENDBRANCH  11  13
ENDBRANCH  10  11
ENDBRANCH   9  10
ENDBRANCH   1   9
BRANCH   8  29
HETATM   29  C21 UNL     1      18.098  34.348  17.819  1.00  0.00     0.240 C 
HETATM   30  O6  UNL     1      17.737  35.179  18.676  1.00  0.00    -0.271 OA
HETATM   31  N2  UNL     1      19.467  34.242  17.476  1.00  0.00    -0.359 N 
ATOM     32  H2  UNL     1      19.754  33.565  16.770  1.00  0.00     0.162 HD
BRANCH  31  33
HETATM   33  C22 UNL     1      20.448  35.058  18.094  1.00  0.00     0.122 C 
BRANCH  33  34
HETATM   34  C23 UNL     1      20.938  36.237  17.338  1.00  0.00     0.020 C 
BRANCH  34  35
HETATM   35  C24 UNL     1      21.850  35.908  16.172  1.00  0.00     0.002 C 
BRANCH  35  36
HETATM   36  C25 UNL     1      23.036  35.150  16.773  1.00  0.00     0.001 C 
BRANCH  36  37
HETATM   37  C26 UNL     1      23.668  34.209  15.804  1.00  0.00     0.010 C 
BRANCH  37  38
HETATM   38  C27 UNL     1      22.565  33.683  14.898  1.00  0.00     0.113 C 
BRANCH  38  39
HETATM   39  C28 UNL     1      22.196  32.335  15.354  1.00  0.00     0.172 C 
HETATM   40  O7  UNL     1      22.635  31.340  14.722  1.00  0.00    -0.648 OA
HETATM   41  O8  UNL     1      21.390  32.099  16.446  1.00  0.00    -0.648 OA
ENDBRANCH  38  39
ENDBRANCH  37  38
ENDBRANCH  36  37
ENDBRANCH  35  36
ENDBRANCH  34  35
ENDBRANCH  33  34
ENDBRANCH  31  33
ENDBRANCH   8  29
TORSDOF 15
ENDMDL
MODEL 3
REMARK VINA RESULT: -8.467516792      1.383      2.990
REMARK  15 active torsions:
REMARK  status: ('A' for Active; 'I' for Inactive)
REMARK    1  A    between atoms: C2_2  and  C3_3 
REMARK    2  A    between atoms: C10_11  and  O2_12 
REMARK    3  A    between atoms: C11_14  and  O3_15 
REMARK    4  A    between atoms: O3_15  and  C12_16 
REMARK    5  A    between atoms: C12_16  and  C13_18 
REMARK    6  A    between atoms: C13_18  and  C14_19 
REMARK    7  A    between atoms: C14_19  and  C15_20 
REMARK       I    between atoms: C15_20  and  N1_22 
REMARK    8  A    between atoms: C20_27  and  C21_28 
REMARK       I    between atoms: C21_28  and  N2_30 
REMARK    9  A    between atoms: N2_30  and  C22_32 
REMARK   10  A    between atoms: C22_32  and  C23_33 
REMARK   11  A    between atoms: C23_33  and  C24_34 
REMARK   12  A    between atoms: C24_34  and  C25_35 
REMARK   13  A    between atoms: C25_35  and  C26_36 
REMARK   14  A    between atoms: C26_36  and  C27_37 
REMARK   15  A    between atoms: C27_37  and  C28_38 
ROOT
HETATM    1  C15 UNL     1      18.362  31.386  14.349  1.00  0.00     0.221 C 
HETATM    2  O5  UNL     1      18.756  30.543  15.182  1.00  0.00    -0.273 OA
HETATM    3  N1  UNL     1      17.980  32.699  14.751  1.00  0.00    -0.339 N 
HETATM    4  C16 UNL     1      17.517  33.693  13.811  1.00  0.00     0.127 C 
HETATM    5  C17 UNL     1      16.495  34.594  14.484  1.00  0.00     0.020 C 
HETATM    6  C18 UNL     1      15.779  33.799  15.555  1.00  0.00     0.004 C 
HETATM    7  C19 UNL     1      16.671  33.371  16.682  1.00  0.00     0.035 C 
HETATM    8  C20 UNL     1      18.039  33.045  16.133  1.00  0.00     0.179 C 
ENDROOT
BRANCH   1   9
HETATM    9  C14 UNL     1      18.295  30.995  12.912  1.00  0.00     0.112 C 
BRANCH   9  10
HETATM   10  C13 UNL     1      18.782  29.570  12.741  1.00  0.00     0.120 C 
BRANCH  10  11
HETATM   11  C12 UNL     1      19.640  29.510  11.537  1.00  0.00     0.259 C 
HETATM   12  O4  UNL     1      20.120  30.553  11.043  1.00  0.00    -0.265 OA
BRANCH  11  13
HETATM   13  O3  UNL     1      19.948  28.304  10.901  1.00  0.00    -0.312 OA
BRANCH  13  14
HETATM   14  C11 UNL     1      20.834  27.368  11.461  1.00  0.00     0.177 C 
HETATM   15  C10 UNL     1      20.704  25.976  11.018  1.00  0.00     0.163 C 
HETATM   16  C6  UNL     1      21.067  25.911   9.577  1.00  0.00     0.085 C 
HETATM   17  C7  UNL     1      19.470  25.367  10.534  1.00  0.00     0.100 C 
HETATM   18  C5  UNL     1      22.098  26.620   9.177  1.00  0.00     0.022 C 
HETATM   19  O1  UNL     1      20.041  25.037   9.276  1.00  0.00    -0.339 OA
HETATM   20  C3  UNL     1      22.934  27.483  10.053  1.00  0.00    -0.004 C 
HETATM   21  C4  UNL     1      23.349  28.744   9.281  1.00  0.00     0.024 C 
HETATM   22  C29 UNL     1      22.279  27.887  11.318  1.00  0.00     0.053 C 
HETATM   23  C8  UNL     1      19.157  24.023  11.231  1.00  0.00     0.050 C 
HETATM   24  C9  UNL     1      18.193  26.139  10.451  1.00  0.00     0.050 C 
BRANCH  15  25
HETATM   25  O2  UNL     1      21.429  25.055  11.804  1.00  0.00    -0.377 OA
ATOM     26  H2  UNL     1      22.324  24.942  11.504  1.00  0.00     0.211 HD
ENDBRANCH  15  25
BRANCH  20  27
HETATM   27  C2  UNL     1      24.230  26.740  10.301  1.00  0.00    -0.024 C 
HETATM   28  C1  UNL     1      24.710  26.613  11.514  1.00  0.00     0.008 C 
ENDBRANCH  20  27
ENDBRANCH  13  14
ENDBRANCH  11  13
ENDBRANCH  10  11
ENDBRANCH   9  10
ENDBRANCH   1   9
BRANCH   8  29
HETATM   29  C21 UNL     1      18.981  34.184  16.380  1.00  0.00     0.240 C 
HETATM   30  O6  UNL     1      18.658  35.127  17.130  1.00  0.00    -0.271 OA
HETATM   31  N2  UNL     1      20.250  34.187  15.753  1.00  0.00    -0.359 N 
ATOM     32  H2  UNL     1      20.504  33.416  15.136  1.00  0.00     0.162 HD
BRANCH  31  33
HETATM   33  C22 UNL     1      21.176  35.239  15.966  1.00  0.00     0.122 C 
BRANCH  33  34
HETATM   34  C23 UNL     1      22.154  35.082  17.070  1.00  0.00     0.020 C 
BRANCH  34  35
HETATM   35  C24 UNL     1      23.062  33.874  16.945  1.00  0.00     0.002 C 
BRANCH  35  36
HETATM   36  C25 UNL     1      24.018  34.190  15.793  1.00  0.00     0.001 C 
BRANCH  36  37
HETATM   37  C26 UNL     1      23.931  33.197  14.684  1.00  0.00     0.010 C 
BRANCH  37  38
HETATM   38  C27 UNL     1      23.020  32.072  15.154  1.00  0.00     0.113 C 
BRANCH  38  39
HETATM   39  C28 UNL     1      22.152  31.681  14.034  1.00  0.00     0.172 C 
HETATM   40  O7  UNL     1      22.021  30.459  13.766  1.00  0.00    -0.648 OA
HETATM   41  O8  UNL     1      21.467  32.587  13.255  1.00  0.00    -0.648 OA
ENDBRANCH  38  39
ENDBRANCH  37  38
ENDBRANCH  36  37
ENDBRANCH  35  36
ENDBRANCH  34  35
ENDBRANCH  33  34
ENDBRANCH  31  33
ENDBRANCH   8  29
TORSDOF 15
ENDMDL
MODEL 4
REMARK VINA RESULT: -8.413744594      2.997      8.915
REMARK  15 active torsions:
REMARK  status: ('A' for Active; 'I' for Inactive)
REMARK    1  A    between atoms: C2_2  and  C3_3 
REMARK    2  A    between atoms: C10_11  and  O2_12 
REMARK    3  A    between atoms: C11_14  and  O3_15 
REMARK    4  A    between atoms: O3_15  and  C12_16 
REMARK    5  A    between atoms: C12_16  and  C13_18 
REMARK    6  A    between atoms: C13_18  and  C14_19 
REMARK    7  A    between atoms: C14_19  and  C15_20 
REMARK       I    between atoms: C15_20  and  N1_22 
REMARK    8  A    between atoms: C20_27  and  C21_28 
REMARK       I    between atoms: C21_28  and  N2_30 
REMARK    9  A    between atoms: N2_30  and  C22_32 
REMARK   10  A    between atoms: C22_32  and  C23_33 
REMARK   11  A    between atoms: C23_33  and  C24_34 
REMARK   12  A    between atoms: C24_34  and  C25_35 
REMARK   13  A    between atoms: C25_35  and  C26_36 
REMARK   14  A    between atoms: C26_36  and  C27_37 
REMARK   15  A    between atoms: C27_37  and  C28_38 
ROOT
HETATM    1  C15 UNL     1      22.368  28.644  11.792  1.00  0.00     0.221 C 
HETATM    2  O5  UNL     1      22.308  28.488  13.030  1.00  0.00    -0.273 OA
HETATM    3  N1  UNL     1      22.772  27.580  10.933  1.00  0.00    -0.339 N 
HETATM    4  C16 UNL     1      22.854  27.732   9.499  1.00  0.00     0.127 C 
HETATM    5  C17 UNL     1      23.975  26.861   8.958  1.00  0.00     0.020 C 
HETATM    6  C18 UNL     1      25.038  26.721  10.026  1.00  0.00     0.004 C 
HETATM    7  C19 UNL     1      24.572  25.982  11.244  1.00  0.00     0.035 C 
HETATM    8  C20 UNL     1      23.125  26.323  11.506  1.00  0.00     0.179 C 
ENDROOT
BRANCH   1   9
HETATM    9  C14 UNL     1      22.008  29.972  11.219  1.00  0.00     0.112 C 
BRANCH   9  10
HETATM   10  C13 UNL     1      20.542  30.264  11.473  1.00  0.00     0.120 C 
BRANCH  10  11
HETATM   11  C12 UNL     1      20.418  31.661  11.944  1.00  0.00     0.259 C 
HETATM   12  O4  UNL     1      19.796  32.509  11.270  1.00  0.00    -0.265 OA
BRANCH  11  13
HETATM   13  O3  UNL     1      20.985  32.095  13.146  1.00  0.00    -0.312 OA
BRANCH  13  14
HETATM   14  C11 UNL     1      20.664  31.504  14.380  1.00  0.00     0.177 C 
HETATM   15  C10 UNL     1      20.952  32.283  15.589  1.00  0.00     0.163 C 
HETATM   16  C6  UNL     1      20.073  33.482  15.590  1.00  0.00     0.085 C 
HETATM   17  C7  UNL     1      21.999  33.292  15.701  1.00  0.00     0.100 C 
HETATM   18  C5  UNL     1      18.825  33.322  15.209  1.00  0.00     0.022 C 
HETATM   19  O1  UNL     1      21.077  34.317  16.040  1.00  0.00    -0.339 OA
HETATM   20  C3  UNL     1      18.221  32.034  14.779  1.00  0.00    -0.004 C 
HETATM   21  C4  UNL     1      17.230  32.291  13.635  1.00  0.00     0.024 C 
HETATM   22  C29 UNL     1      19.203  31.013  14.344  1.00  0.00     0.053 C 
HETATM   23  C8  UNL     1      22.892  33.087  16.946  1.00  0.00     0.050 C 
HETATM   24  C9  UNL     1      22.897  33.623  14.552  1.00  0.00     0.050 C 
BRANCH  15  25
HETATM   25  O2  UNL     1      20.859  31.540  16.785  1.00  0.00    -0.377 OA
ATOM     26  H2  UNL     1      21.068  32.057  17.555  1.00  0.00     0.211 HD
ENDBRANCH  15  25
BRANCH  20  27
HETATM   27  C2  UNL     1      17.365  31.539  15.926  1.00  0.00    -0.024 C 
HETATM   28  C1  UNL     1      16.066  31.707  15.917  1.00  0.00     0.008 C 
ENDBRANCH  20  27
ENDBRANCH  13  14
ENDBRANCH  11  13
ENDBRANCH  10  11
ENDBRANCH   9  10
ENDBRANCH   1   9
BRANCH   8  29
HETATM   29  C21 UNL     1      22.236  25.221  11.014  1.00  0.00     0.240 C 
HETATM   30  O6  UNL     1      22.698  24.289  10.326  1.00  0.00    -0.271 OA
HETATM   31  N2  UNL     1      20.858  25.240  11.337  1.00  0.00    -0.359 N 
ATOM     32  H2  UNL     1      20.487  26.009  11.895  1.00  0.00     0.162 HD
BRANCH  31  33
HETATM   33  C22 UNL     1      19.984  24.213  10.901  1.00  0.00     0.122 C 
BRANCH  33  34
HETATM   34  C23 UNL     1      18.545  24.345  11.240  1.00  0.00     0.020 C 
BRANCH  34  35
HETATM   35  C24 UNL     1      17.825  25.469  10.519  1.00  0.00     0.002 C 
BRANCH  35  36
HETATM   36  C25 UNL     1      17.255  26.368  11.618  1.00  0.00     0.001 C 
BRANCH  36  37
HETATM   37  C26 UNL     1      18.121  27.549  11.903  1.00  0.00     0.010 C 
BRANCH  37  38
HETATM   38  C27 UNL     1      17.212  28.766  11.988  1.00  0.00     0.113 C 
BRANCH  38  39
HETATM   39  C28 UNL     1      16.698  29.054  10.641  1.00  0.00     0.172 C 
HETATM   40  O7  UNL     1      15.463  29.243  10.492  1.00  0.00    -0.648 OA
HETATM   41  O8  UNL     1      17.499  29.129   9.523  1.00  0.00    -0.648 OA
ENDBRANCH  38  39
ENDBRANCH  37  38
ENDBRANCH  36  37
ENDBRANCH  35  36
ENDBRANCH  34  35
ENDBRANCH  33  34
ENDBRANCH  31  33
ENDBRANCH   8  29
TORSDOF 15
ENDMDL
MODEL 5
REMARK VINA RESULT: -8.394651403      2.866      9.312
REMARK  15 active torsions:
REMARK  status: ('A' for Active; 'I' for Inactive)
REMARK    1  A    between atoms: C2_2  and  C3_3 
REMARK    2  A    between atoms: C10_11  and  O2_12 
REMARK    3  A    between atoms: C11_14  and  O3_15 
REMARK    4  A    between atoms: O3_15  and  C12_16 
REMARK    5  A    between atoms: C12_16  and  C13_18 
REMARK    6  A    between atoms: C13_18  and  C14_19 
REMARK    7  A    between atoms: C14_19  and  C15_20 
REMARK       I    between atoms: C15_20  and  N1_22 
REMARK    8  A    between atoms: C20_27  and  C21_28 
REMARK       I    between atoms: C21_28  and  N2_30 
REMARK    9  A    between atoms: N2_30  and  C22_32 
REMARK   10  A    between atoms: C22_32  and  C23_33 
REMARK   11  A    between atoms: C23_33  and  C24_34 
REMARK   12  A    between atoms: C24_34  and  C25_35 
REMARK   13  A    between atoms: C25_35  and  C26_36 
REMARK   14  A    between atoms: C26_36  and  C27_37 
REMARK   15  A    between atoms: C27_37  and  C28_38 
ROOT
HETATM    1  C15 UNL     1      22.163  28.646  12.044  1.00  0.00     0.221 C 
HETATM    2  O5  UNL     1      22.070  28.393  13.263  1.00  0.00    -0.273 OA
HETATM    3  N1  UNL     1      22.734  27.707  11.135  1.00  0.00    -0.339 N 
HETATM    4  C16 UNL     1      22.857  27.973   9.721  1.00  0.00     0.127 C 
HETATM    5  C17 UNL     1      24.101  27.288   9.180  1.00  0.00     0.020 C 
HETATM    6  C18 UNL     1      25.127  27.200  10.289  1.00  0.00     0.004 C 
HETATM    7  C19 UNL     1      24.706  26.322  11.429  1.00  0.00     0.035 C 
HETATM    8  C20 UNL     1      23.217  26.463  11.638  1.00  0.00     0.179 C 
ENDROOT
BRANCH   1   9
HETATM    9  C14 UNL     1      21.664  29.959  11.544  1.00  0.00     0.112 C 
BRANCH   9  10
HETATM   10  C13 UNL     1      20.156  30.027  11.690  1.00  0.00     0.120 C 
BRANCH  10  11
HETATM   11  C12 UNL     1      19.782  31.417  12.032  1.00  0.00     0.259 C 
HETATM   12  O4  UNL     1      19.899  32.335  11.193  1.00  0.00    -0.265 OA
BRANCH  11  13
HETATM   13  O3  UNL     1      19.290  31.767  13.293  1.00  0.00    -0.312 OA
BRANCH  13  14
HETATM   14  C11 UNL     1      19.608  32.990  13.908  1.00  0.00     0.177 C 
HETATM   15  C10 UNL     1      18.957  33.283  15.189  1.00  0.00     0.163 C 
HETATM   16  C6  UNL     1      19.447  32.304  16.194  1.00  0.00     0.085 C 
HETATM   17  C7  UNL     1      17.658  32.765  15.602  1.00  0.00     0.100 C 
HETATM   18  C5  UNL     1      20.725  32.001  16.176  1.00  0.00     0.022 C 
HETATM   19  O1  UNL     1      18.196  32.134  16.756  1.00  0.00    -0.339 OA
HETATM   20  C3  UNL     1      21.724  32.563  15.230  1.00  0.00    -0.004 C 
HETATM   21  C4  UNL     1      22.736  31.473  14.849  1.00  0.00     0.024 C 
HETATM   22  C29 UNL     1      21.141  33.132  13.993  1.00  0.00     0.053 C 
HETATM   23  C8  UNL     1      16.712  33.872  16.118  1.00  0.00     0.050 C 
HETATM   24  C9  UNL     1      16.856  31.862  14.721  1.00  0.00     0.050 C 
BRANCH  15  25
HETATM   25  O2  UNL     1      19.107  34.621  15.614  1.00  0.00    -0.377 OA
ATOM     26  H2  UNL     1      18.831  34.752  16.514  1.00  0.00     0.211 HD
ENDBRANCH  15  25
BRANCH  20  27
HETATM   27  C2  UNL     1      22.533  33.589  15.996  1.00  0.00    -0.024 C 
HETATM   28  C1  UNL     1      23.725  33.946  15.587  1.00  0.00     0.008 C 
ENDBRANCH  20  27
ENDBRANCH  13  14
ENDBRANCH  11  13
ENDBRANCH  10  11
ENDBRANCH   9  10
ENDBRANCH   1   9
BRANCH   8  29
HETATM   29  C21 UNL     1      22.496  25.300  11.028  1.00  0.00     0.240 C 
HETATM   30  O6  UNL     1      23.102  24.479  10.311  1.00  0.00    -0.271 OA
HETATM   31  N2  UNL     1      21.111  25.133  11.271  1.00  0.00    -0.359 N 
ATOM     32  H2  UNL     1      20.621  25.812  11.853  1.00  0.00     0.162 HD
BRANCH  31  33
HETATM   33  C22 UNL     1      20.392  24.042  10.721  1.00  0.00     0.122 C 
BRANCH  33  34
HETATM   34  C23 UNL     1      19.018  23.801  11.226  1.00  0.00     0.020 C 
BRANCH  34  35
HETATM   35  C24 UNL     1      17.924  24.511  10.451  1.00  0.00     0.002 C 
BRANCH  35  36
HETATM   36  C25 UNL     1      17.406  25.611  11.378  1.00  0.00     0.001 C 
BRANCH  36  37
HETATM   37  C26 UNL     1      17.923  26.962  11.014  1.00  0.00     0.010 C 
BRANCH  37  38
HETATM   38  C27 UNL     1      16.992  27.988  11.643  1.00  0.00     0.113 C 
BRANCH  38  39
HETATM   39  C28 UNL     1      16.502  28.879  10.581  1.00  0.00     0.172 C 
HETATM   40  O7  UNL     1      17.311  29.276   9.702  1.00  0.00    -0.648 OA
HETATM   41  O8  UNL     1      15.195  29.305  10.491  1.00  0.00    -0.648 OA
ENDBRANCH  38  39
ENDBRANCH  37  38
ENDBRANCH  36  37
ENDBRANCH  35  36
ENDBRANCH  34  35
ENDBRANCH  33  34
ENDBRANCH  31  33
ENDBRANCH   8  29
TORSDOF 15
ENDMDL
