MODEL 1
REMARK VINA RESULT: -8.327973259      0.000      0.000
REMARK  18 active torsions:
REMARK  status: ('A' for Active; 'I' for Inactive)
REMARK    1  A    between atoms: O1_2  and  C2_3 
REMARK    2  A    between atoms: C4_5  and  N1_6 
REMARK       I    between atoms: N1_6  and  C5_8 
REMARK    3  A    between atoms: C5_8  and  C6_10 
REMARK    4  A    between atoms: C6_10  and  N2_11 
REMARK    5  A    between atoms: N2_11  and  C7_12 
REMARK    6  A    between atoms: N2_11  and  C21_33 
REMARK    7  A    between atoms: C7_12  and  N3_14 
REMARK    8  A    between atoms: N3_14  and  C8_16 
REMARK    9  A    between atoms: C8_16  and  C9_17 
REMARK   10  A    between atoms: C9_17  and  C10_18 
REMARK   11  A    between atoms: C10_18  and  C11_19 
REMARK   12  A    between atoms: C11_19  and  C12_20 
REMARK       I    between atoms: C12_20  and  N4_22 
REMARK   13  A    between atoms: N4_22  and  C13_24 
REMARK   14  A    between atoms: C13_24  and  C14_25 
REMARK   15  A    between atoms: C14_25  and  C15_26 
REMARK   16  A    between atoms: C15_26  and  N5_27 
REMARK   17  A    between atoms: C27_39  and  O4_40 
REMARK   18  A    between atoms: C29_42  and  O5_43 
ROOT
HETATM    1  N2  UNL     1      20.738  31.253  14.745  1.00  0.00    -0.345 N 
ENDROOT
BRANCH   1   2
HETATM    2  C6  UNL     1      19.509  31.310  15.476  1.00  0.00     0.228 C 
BRANCH   2   3
HETATM    3  C5  UNL     1      18.877  32.626  15.673  1.00  0.00     0.240 C 
HETATM    4  N1  UNL     1      18.925  33.145  17.013  1.00  0.00    -0.326 N 
ATOM      5  H1  UNL     1      19.373  32.571  17.726  1.00  0.00     0.169 HD
HETATM    6  O2  UNL     1      18.315  33.315  14.798  1.00  0.00    -0.271 OA
BRANCH   4   7
HETATM    7  C4  UNL     1      18.399  34.385  17.412  1.00  0.00     0.040 A 
HETATM    8  C3  UNL     1      17.027  34.461  17.683  1.00  0.00     0.069 A 
HETATM    9  C2  UNL     1      16.423  35.615  18.102  1.00  0.00     0.106 A 
HETATM   10  C29 UNL     1      17.176  36.759  18.271  1.00  0.00     0.135 A 
HETATM   11  C27 UNL     1      18.526  36.737  18.020  1.00  0.00     0.106 A 
HETATM   12  C26 UNL     1      19.111  35.547  17.593  1.00  0.00     0.069 A 
BRANCH   9  13
HETATM   13  O1  UNL     1      15.061  35.669  18.365  1.00  0.00    -0.353 OA
HETATM   14  C1  UNL     1      14.129  35.609  17.316  1.00  0.00     0.210 C 
ENDBRANCH   9  13
BRANCH  10  15
HETATM   15  O5  UNL     1      16.524  37.907  18.698  1.00  0.00    -0.351 OA
HETATM   16  C30 UNL     1      16.090  38.829  17.715  1.00  0.00     0.210 C 
ENDBRANCH  10  15
BRANCH  11  17
HETATM   17  O4  UNL     1      19.220  37.911  18.210  1.00  0.00    -0.353 OA
HETATM   18  C28 UNL     1      20.637  37.891  18.267  1.00  0.00     0.210 C 
ENDBRANCH  11  17
ENDBRANCH   4   7
ENDBRANCH   2   3
ENDBRANCH   1   2
BRANCH   1  19
HETATM   19  C7  UNL     1      20.790  30.454  13.557  1.00  0.00     0.170 C 
HETATM   20  S1  UNL     1      20.383  31.068  12.104  1.00  0.00    -0.041 SA
BRANCH  19  21
HETATM   21  N3  UNL     1      21.235  29.089  13.532  1.00  0.00    -0.367 N 
ATOM     22  H3  UNL     1      20.547  28.357  13.357  1.00  0.00     0.161 HD
BRANCH  21  23
HETATM   23  C8  UNL     1      22.595  28.709  13.741  1.00  0.00     0.122 C 
BRANCH  23  24
HETATM   24  C9  UNL     1      23.624  29.299  12.845  1.00  0.00     0.020 C 
BRANCH  24  25
HETATM   25  C10 UNL     1      24.804  28.375  12.620  1.00  0.00     0.011 C 
BRANCH  25  26
HETATM   26  C11 UNL     1      24.781  27.840  11.185  1.00  0.00     0.103 C 
BRANCH  26  27
HETATM   27  C12 UNL     1      24.079  26.513  11.166  1.00  0.00     0.217 C 
HETATM   28  O3  UNL     1      24.575  25.551  11.796  1.00  0.00    -0.274 OA
HETATM   29  N4  UNL     1      22.883  26.336  10.450  1.00  0.00    -0.361 N 
ATOM     30  H4  UNL     1      22.505  27.149   9.964  1.00  0.00     0.162 HD
BRANCH  29  31
HETATM   31  C13 UNL     1      22.146  25.103  10.344  1.00  0.00     0.124 C 
BRANCH  31  32
HETATM   32  C14 UNL     1      20.965  25.065  11.258  1.00  0.00     0.050 C 
BRANCH  32  33
HETATM   33  C15 UNL     1      20.154  26.279  11.370  1.00  0.00     0.274 C 
BRANCH  33  34
HETATM   34  N5  UNL     1      18.754  26.290  11.225  1.00  0.00     0.088 N 
HETATM   35  C16 UNL     1      18.472  27.347  10.202  1.00  0.00     0.272 C 
HETATM   36  C17 UNL     1      17.185  28.055  10.454  1.00  0.00     0.030 C 
HETATM   37  C18 UNL     1      17.229  28.878  11.729  1.00  0.00     0.003 C 
HETATM   38  C19 UNL     1      17.978  28.058  12.769  1.00  0.00     0.030 C 
HETATM   39  C20 UNL     1      17.932  26.587  12.353  1.00  0.00     0.272 C 
ENDBRANCH  33  34
ENDBRANCH  32  33
ENDBRANCH  31  32
ENDBRANCH  29  31
ENDBRANCH  26  27
ENDBRANCH  25  26
ENDBRANCH  24  25
ENDBRANCH  23  24
ENDBRANCH  21  23
ENDBRANCH  19  21
ENDBRANCH   1  19
BRANCH   1  40
HETATM   40  C21 UNL     1      21.936  32.011  15.070  1.00  0.00     0.087 C 
HETATM   41  C22 UNL     1      21.979  33.392  14.558  1.00  0.00     0.025 C 
HETATM   42  C23 UNL     1      22.579  34.285  15.587  1.00  0.00     0.002 C 
HETATM   43  C24 UNL     1      22.623  33.472  16.828  1.00  0.00     0.002 C 
HETATM   44  C25 UNL     1      22.134  32.091  16.563  1.00  0.00     0.025 C 
ENDBRANCH   1  40
TORSDOF 18
ENDMDL
MODEL 2
REMARK VINA RESULT: -8.234258347      0.469      2.054
REMARK  18 active torsions:
REMARK  status: ('A' for Active; 'I' for Inactive)
REMARK    1  A    between atoms: O1_2  and  C2_3 
REMARK    2  A    between atoms: C4_5  and  N1_6 
REMARK       I    between atoms: N1_6  and  C5_8 
REMARK    3  A    between atoms: C5_8  and  C6_10 
REMARK    4  A    between atoms: C6_10  and  N2_11 
REMARK    5  A    between atoms: N2_11  and  C7_12 
REMARK    6  A    between atoms: N2_11  and  C21_33 
REMARK    7  A    between atoms: C7_12  and  N3_14 
REMARK    8  A    between atoms: N3_14  and  C8_16 
REMARK    9  A    between atoms: C8_16  and  C9_17 
REMARK   10  A    between atoms: C9_17  and  C10_18 
REMARK   11  A    between atoms: C10_18  and  C11_19 
REMARK   12  A    between atoms: C11_19  and  C12_20 
REMARK       I    between atoms: C12_20  and  N4_22 
REMARK   13  A    between atoms: N4_22  and  C13_24 
REMARK   14  A    between atoms: C13_24  and  C14_25 
REMARK   15  A    between atoms: C14_25  and  C15_26 
REMARK   16  A    between atoms: C15_26  and  N5_27 
REMARK   17  A    between atoms: C27_39  and  O4_40 
REMARK   18  A    between atoms: C29_42  and  O5_43 
ROOT
HETATM    1  N2  UNL     1      20.864  31.286  14.655  1.00  0.00    -0.345 N 
ENDROOT
BRANCH   1   2
HETATM    2  C6  UNL     1      19.640  31.203  15.392  1.00  0.00     0.228 C 
BRANCH   2   3
HETATM    3  C5  UNL     1      18.876  32.441  15.616  1.00  0.00     0.240 C 
HETATM    4  N1  UNL     1      18.983  33.010  16.932  1.00  0.00    -0.326 N 
ATOM      5  H1  UNL     1      19.560  32.518  17.613  1.00  0.00     0.169 HD
HETATM    6  O2  UNL     1      18.157  33.028  14.782  1.00  0.00    -0.271 OA
BRANCH   4   7
HETATM    7  C4  UNL     1      18.352  34.193  17.348  1.00  0.00     0.040 A 
HETATM    8  C3  UNL     1      19.123  35.361  17.418  1.00  0.00     0.069 A 
HETATM    9  C2  UNL     1      18.596  36.569  17.789  1.00  0.00     0.106 A 
HETATM   10  C29 UNL     1      17.257  36.663  18.108  1.00  0.00     0.135 A 
HETATM   11  C27 UNL     1      16.458  35.548  18.053  1.00  0.00     0.106 A 
HETATM   12  C26 UNL     1      17.023  34.332  17.675  1.00  0.00     0.069 A 
BRANCH   9  13
HETATM   13  O1  UNL     1      19.379  37.714  17.852  1.00  0.00    -0.353 OA
HETATM   14  C1  UNL     1      20.738  37.670  17.499  1.00  0.00     0.210 C 
ENDBRANCH   9  13
BRANCH  10  15
HETATM   15  O5  UNL     1      16.765  37.907  18.477  1.00  0.00    -0.351 OA
HETATM   16  C30 UNL     1      16.310  38.772  17.453  1.00  0.00     0.210 C 
ENDBRANCH  10  15
BRANCH  11  17
HETATM   17  O4  UNL     1      15.130  35.710  18.382  1.00  0.00    -0.353 OA
HETATM   18  C28 UNL     1      14.135  35.583  17.380  1.00  0.00     0.210 C 
ENDBRANCH  11  17
ENDBRANCH   4   7
ENDBRANCH   2   3
ENDBRANCH   1   2
BRANCH   1  19
HETATM   19  C7  UNL     1      21.008  30.484  13.477  1.00  0.00     0.170 C 
HETATM   20  S1  UNL     1      20.598  31.056  12.007  1.00  0.00    -0.041 SA
BRANCH  19  21
HETATM   21  N3  UNL     1      21.553  29.156  13.478  1.00  0.00    -0.367 N 
ATOM     22  H3  UNL     1      20.939  28.379  13.236  1.00  0.00     0.161 HD
BRANCH  21  23
HETATM   23  C8  UNL     1      22.914  28.873  13.800  1.00  0.00     0.122 C 
BRANCH  23  24
HETATM   24  C9  UNL     1      23.958  29.295  12.830  1.00  0.00     0.020 C 
BRANCH  24  25
HETATM   25  C10 UNL     1      24.878  28.160  12.429  1.00  0.00     0.011 C 
BRANCH  25  26
HETATM   26  C11 UNL     1      24.532  27.683  11.016  1.00  0.00     0.103 C 
BRANCH  26  27
HETATM   27  C12 UNL     1      23.749  26.406  11.104  1.00  0.00     0.217 C 
HETATM   28  O3  UNL     1      24.295  25.386  11.583  1.00  0.00    -0.274 OA
HETATM   29  N4  UNL     1      22.418  26.339  10.656  1.00  0.00    -0.361 N 
ATOM     30  H4  UNL     1      22.006  27.197  10.289  1.00  0.00     0.162 HD
BRANCH  29  31
HETATM   31  C13 UNL     1      21.588  25.162  10.671  1.00  0.00     0.124 C 
BRANCH  31  32
HETATM   32  C14 UNL     1      20.135  25.488  10.546  1.00  0.00     0.050 C 
BRANCH  32  33
HETATM   33  C15 UNL     1      19.581  26.484  11.464  1.00  0.00     0.274 C 
BRANCH  33  34
HETATM   34  N5  UNL     1      18.203  26.749  11.579  1.00  0.00     0.088 N 
HETATM   35  C16 UNL     1      17.960  27.956  10.727  1.00  0.00     0.272 C 
HETATM   36  C17 UNL     1      16.887  28.833  11.275  1.00  0.00     0.030 C 
HETATM   37  C18 UNL     1      17.292  29.472  12.591  1.00  0.00     0.003 C 
HETATM   38  C19 UNL     1      18.034  28.415  13.396  1.00  0.00     0.030 C 
HETATM   39  C20 UNL     1      17.647  27.037  12.861  1.00  0.00     0.272 C 
ENDBRANCH  33  34
ENDBRANCH  32  33
ENDBRANCH  31  32
ENDBRANCH  29  31
ENDBRANCH  26  27
ENDBRANCH  25  26
ENDBRANCH  24  25
ENDBRANCH  23  24
ENDBRANCH  21  23
ENDBRANCH  19  21
ENDBRANCH   1  19
BRANCH   1  40
HETATM   40  C21 UNL     1      21.961  32.190  14.963  1.00  0.00     0.087 C 
HETATM   41  C22 UNL     1      21.770  33.593  14.554  1.00  0.00     0.025 C 
HETATM   42  C23 UNL     1      22.307  34.495  15.610  1.00  0.00     0.002 C 
HETATM   43  C24 UNL     1      22.554  33.618  16.782  1.00  0.00     0.002 C 
HETATM   44  C25 UNL     1      22.250  32.201  16.443  1.00  0.00     0.025 C 
ENDBRANCH   1  40
TORSDOF 18
ENDMDL
MODEL 3
REMARK VINA RESULT: -8.129335377      2.196     11.083
REMARK  18 active torsions:
REMARK  status: ('A' for Active; 'I' for Inactive)
REMARK    1  A    between atoms: O1_2  and  C2_3 
REMARK    2  A    between atoms: C4_5  and  N1_6 
REMARK       I    between atoms: N1_6  and  C5_8 
REMARK    3  A    between atoms: C5_8  and  C6_10 
REMARK    4  A    between atoms: C6_10  and  N2_11 
REMARK    5  A    between atoms: N2_11  and  C7_12 
REMARK    6  A    between atoms: N2_11  and  C21_33 
REMARK    7  A    between atoms: C7_12  and  N3_14 
REMARK    8  A    between atoms: N3_14  and  C8_16 
REMARK    9  A    between atoms: C8_16  and  C9_17 
REMARK   10  A    between atoms: C9_17  and  C10_18 
REMARK   11  A    between atoms: C10_18  and  C11_19 
REMARK   12  A    between atoms: C11_19  and  C12_20 
REMARK       I    between atoms: C12_20  and  N4_22 
REMARK   13  A    between atoms: N4_22  and  C13_24 
REMARK   14  A    between atoms: C13_24  and  C14_25 
REMARK   15  A    between atoms: C14_25  and  C15_26 
REMARK   16  A    between atoms: C15_26  and  N5_27 
REMARK   17  A    between atoms: C27_39  and  O4_40 
REMARK   18  A    between atoms: C29_42  and  O5_43 
ROOT
HETATM    1  N2  UNL     1      18.893  29.894  14.023  1.00  0.00    -0.345 N 
ENDROOT
BRANCH   1   2
HETATM    2  C6  UNL     1      20.254  29.457  14.083  1.00  0.00     0.228 C 
BRANCH   2   3
HETATM    3  C5  UNL     1      20.847  28.858  12.876  1.00  0.00     0.240 C 
HETATM    4  N1  UNL     1      20.957  27.424  12.881  1.00  0.00    -0.326 N 
ATOM      5  H1  UNL     1      20.634  26.929  13.712  1.00  0.00     0.169 HD
HETATM    6  O2  UNL     1      21.256  29.472  11.870  1.00  0.00    -0.271 OA
BRANCH   4   7
HETATM    7  C4  UNL     1      21.475  26.655  11.827  1.00  0.00     0.040 A 
HETATM    8  C3  UNL     1      22.858  26.430  11.794  1.00  0.00     0.069 A 
HETATM    9  C2  UNL     1      23.457  25.674  10.824  1.00  0.00     0.106 A 
HETATM   10  C29 UNL     1      22.689  25.101   9.831  1.00  0.00     0.135 A 
HETATM   11  C27 UNL     1      21.329  25.290   9.819  1.00  0.00     0.106 A 
HETATM   12  C26 UNL     1      20.748  26.065  10.820  1.00  0.00     0.069 A 
BRANCH   9  13
HETATM   13  O1  UNL     1      24.829  25.465  10.810  1.00  0.00    -0.353 OA
HETATM   14  C1  UNL     1      25.716  26.548  10.698  1.00  0.00     0.210 C 
ENDBRANCH   9  13
BRANCH  10  15
HETATM   15  O5  UNL     1      23.337  24.342   8.867  1.00  0.00    -0.351 OA
HETATM   16  C30 UNL     1      23.720  24.982   7.664  1.00  0.00     0.210 C 
ENDBRANCH  10  15
BRANCH  11  17
HETATM   17  O4  UNL     1      20.620  24.689   8.802  1.00  0.00    -0.353 OA
HETATM   18  C28 UNL     1      19.524  25.367   8.211  1.00  0.00     0.210 C 
ENDBRANCH  11  17
ENDBRANCH   4   7
ENDBRANCH   2   3
ENDBRANCH   1   2
BRANCH   1  19
HETATM   19  C7  UNL     1      18.561  31.176  14.570  1.00  0.00     0.170 C 
HETATM   20  S1  UNL     1      18.278  31.371  16.162  1.00  0.00    -0.041 SA
BRANCH  19  21
HETATM   21  N3  UNL     1      18.492  32.381  13.792  1.00  0.00    -0.367 N 
ATOM     22  H3  UNL     1      18.725  32.333  12.800  1.00  0.00     0.161 HD
BRANCH  21  23
HETATM   23  C8  UNL     1      18.111  33.641  14.342  1.00  0.00     0.122 C 
BRANCH  23  24
HETATM   24  C9  UNL     1      16.718  34.105  14.109  1.00  0.00     0.020 C 
BRANCH  24  25
HETATM   25  C10 UNL     1      16.249  35.098  15.155  1.00  0.00     0.011 C 
BRANCH  25  26
HETATM   26  C11 UNL     1      15.608  34.353  16.329  1.00  0.00     0.103 C 
BRANCH  26  27
HETATM   27  C12 UNL     1      16.396  34.630  17.576  1.00  0.00     0.217 C 
HETATM   28  O3  UNL     1      15.799  34.686  18.676  1.00  0.00    -0.274 OA
HETATM   29  N4  UNL     1      17.786  34.831  17.526  1.00  0.00    -0.361 N 
ATOM     30  H4  UNL     1      18.235  34.761  16.613  1.00  0.00     0.162 HD
BRANCH  29  31
HETATM   31  C13 UNL     1      18.630  35.128  18.655  1.00  0.00     0.124 C 
BRANCH  31  32
HETATM   32  C14 UNL     1      20.029  35.459  18.249  1.00  0.00     0.050 C 
BRANCH  32  33
HETATM   33  C15 UNL     1      20.443  35.109  16.889  1.00  0.00     0.274 C 
BRANCH  33  34
HETATM   34  N5  UNL     1      21.784  34.894  16.519  1.00  0.00     0.088 N 
HETATM   35  C16 UNL     1      21.857  35.256  15.068  1.00  0.00     0.272 C 
HETATM   36  C17 UNL     1      22.839  34.421  14.321  1.00  0.00     0.030 C 
HETATM   37  C18 UNL     1      22.407  32.968  14.244  1.00  0.00     0.003 C 
HETATM   38  C19 UNL     1      21.820  32.600  15.598  1.00  0.00     0.030 C 
HETATM   39  C20 UNL     1      22.346  33.587  16.640  1.00  0.00     0.272 C 
ENDBRANCH  33  34
ENDBRANCH  32  33
ENDBRANCH  31  32
ENDBRANCH  29  31
ENDBRANCH  26  27
ENDBRANCH  25  26
ENDBRANCH  24  25
ENDBRANCH  23  24
ENDBRANCH  21  23
ENDBRANCH  19  21
ENDBRANCH   1  19
BRANCH   1  40
HETATM   40  C21 UNL     1      17.813  29.167  13.374  1.00  0.00     0.087 C 
HETATM   41  C22 UNL     1      17.820  29.191  11.900  1.00  0.00     0.025 C 
HETATM   42  C23 UNL     1      17.433  27.851  11.380  1.00  0.00     0.002 C 
HETATM   43  C24 UNL     1      17.480  26.949  12.557  1.00  0.00     0.002 C 
HETATM   44  C25 UNL     1      17.815  27.717  13.787  1.00  0.00     0.025 C 
ENDBRANCH   1  40
TORSDOF 18
ENDMDL
MODEL 4
REMARK VINA RESULT: -8.089440330      1.282      2.896
REMARK  18 active torsions:
REMARK  status: ('A' for Active; 'I' for Inactive)
REMARK    1  A    between atoms: O1_2  and  C2_3 
REMARK    2  A    between atoms: C4_5  and  N1_6 
REMARK       I    between atoms: N1_6  and  C5_8 
REMARK    3  A    between atoms: C5_8  and  C6_10 
REMARK    4  A    between atoms: C6_10  and  N2_11 
REMARK    5  A    between atoms: N2_11  and  C7_12 
REMARK    6  A    between atoms: N2_11  and  C21_33 
REMARK    7  A    between atoms: C7_12  and  N3_14 
REMARK    8  A    between atoms: N3_14  and  C8_16 
REMARK    9  A    between atoms: C8_16  and  C9_17 
REMARK   10  A    between atoms: C9_17  and  C10_18 
REMARK   11  A    between atoms: C10_18  and  C11_19 
REMARK   12  A    between atoms: C11_19  and  C12_20 
REMARK       I    between atoms: C12_20  and  N4_22 
REMARK   13  A    between atoms: N4_22  and  C13_24 
REMARK   14  A    between atoms: C13_24  and  C14_25 
REMARK   15  A    between atoms: C14_25  and  C15_26 
REMARK   16  A    between atoms: C15_26  and  N5_27 
REMARK   17  A    between atoms: C27_39  and  O4_40 
REMARK   18  A    between atoms: C29_42  and  O5_43 
ROOT
HETATM    1  N2  UNL     1      20.763  31.424  15.465  1.00  0.00    -0.345 N 
ENDROOT
BRANCH   1   2
HETATM    2  C6  UNL     1      21.055  32.372  16.496  1.00  0.00     0.228 C 
BRANCH   2   3
HETATM    3  C5  UNL     1      20.413  33.696  16.427  1.00  0.00     0.240 C 
HETATM    4  N1  UNL     1      19.732  34.122  17.620  1.00  0.00    -0.326 N 
ATOM      5  H1  UNL     1      19.728  33.483  18.414  1.00  0.00     0.169 HD
HETATM    6  O2  UNL     1      20.407  34.465  15.444  1.00  0.00    -0.271 OA
BRANCH   4   7
HETATM    7  C4  UNL     1      19.072  35.351  17.772  1.00  0.00     0.040 A 
HETATM    8  C3  UNL     1      19.829  36.459  18.177  1.00  0.00     0.069 A 
HETATM    9  C2  UNL     1      19.285  37.705  18.329  1.00  0.00     0.106 A 
HETATM   10  C29 UNL     1      17.943  37.902  18.079  1.00  0.00     0.135 A 
HETATM   11  C27 UNL     1      17.158  36.849  17.678  1.00  0.00     0.106 A 
HETATM   12  C26 UNL     1      17.739  35.592  17.533  1.00  0.00     0.069 A 
BRANCH   9  13
HETATM   13  O1  UNL     1      20.054  38.789  18.732  1.00  0.00    -0.353 OA
HETATM   14  C1  UNL     1      21.214  39.144  18.025  1.00  0.00     0.210 C 
ENDBRANCH   9  13
BRANCH  10  15
HETATM   15  O5  UNL     1      17.433  39.182  18.245  1.00  0.00    -0.351 OA
HETATM   16  C30 UNL     1      17.423  40.045  17.123  1.00  0.00     0.210 C 
ENDBRANCH  10  15
BRANCH  11  17
HETATM   17  O4  UNL     1      15.826  37.113  17.442  1.00  0.00    -0.353 OA
HETATM   18  C28 UNL     1      14.891  36.046  17.410  1.00  0.00     0.210 C 
ENDBRANCH  11  17
ENDBRANCH   4   7
ENDBRANCH   2   3
ENDBRANCH   1   2
BRANCH   1  19
HETATM   19  C7  UNL     1      21.830  30.996  14.610  1.00  0.00     0.170 C 
HETATM   20  S1  UNL     1      22.552  32.026  13.574  1.00  0.00    -0.041 SA
BRANCH  19  21
HETATM   21  N3  UNL     1      22.373  29.667  14.617  1.00  0.00    -0.367 N 
ATOM     22  H3  UNL     1      23.048  29.422  15.341  1.00  0.00     0.161 HD
BRANCH  21  23
HETATM   23  C8  UNL     1      22.013  28.674  13.658  1.00  0.00     0.122 C 
BRANCH  23  24
HETATM   24  C9  UNL     1      22.707  28.696  12.343  1.00  0.00     0.020 C 
BRANCH  24  25
HETATM   25  C10 UNL     1      24.201  28.470  12.465  1.00  0.00     0.011 C 
BRANCH  25  26
HETATM   26  C11 UNL     1      24.725  27.760  11.214  1.00  0.00     0.103 C 
BRANCH  26  27
HETATM   27  C12 UNL     1      24.018  26.445  11.062  1.00  0.00     0.217 C 
HETATM   28  O3  UNL     1      24.425  25.454  11.711  1.00  0.00    -0.274 OA
HETATM   29  N4  UNL     1      22.915  26.310  10.202  1.00  0.00    -0.361 N 
ATOM     30  H4  UNL     1      22.606  27.144   9.705  1.00  0.00     0.162 HD
BRANCH  29  31
HETATM   31  C13 UNL     1      22.184  25.091   9.963  1.00  0.00     0.124 C 
BRANCH  31  32
HETATM   32  C14 UNL     1      21.068  24.896  10.937  1.00  0.00     0.050 C 
BRANCH  32  33
HETATM   33  C15 UNL     1      20.251  26.063  11.276  1.00  0.00     0.274 C 
BRANCH  33  34
HETATM   34  N5  UNL     1      18.850  26.092  11.139  1.00  0.00     0.088 N 
HETATM   35  C16 UNL     1      18.577  27.131  10.095  1.00  0.00     0.272 C 
HETATM   36  C17 UNL     1      17.303  27.863  10.340  1.00  0.00     0.030 C 
HETATM   37  C18 UNL     1      17.367  28.712  11.597  1.00  0.00     0.003 C 
HETATM   38  C19 UNL     1      18.110  27.903  12.650  1.00  0.00     0.030 C 
HETATM   39  C20 UNL     1      18.040  26.425  12.265  1.00  0.00     0.272 C 
ENDBRANCH  33  34
ENDBRANCH  32  33
ENDBRANCH  31  32
ENDBRANCH  29  31
ENDBRANCH  26  27
ENDBRANCH  25  26
ENDBRANCH  24  25
ENDBRANCH  23  24
ENDBRANCH  21  23
ENDBRANCH  19  21
ENDBRANCH   1  19
BRANCH   1  40
HETATM   40  C21 UNL     1      19.471  30.790  15.258  1.00  0.00     0.087 C 
HETATM   41  C22 UNL     1      18.493  30.957  16.349  1.00  0.00     0.025 C 
HETATM   42  C23 UNL     1      17.139  31.178  15.771  1.00  0.00     0.002 C 
HETATM   43  C24 UNL     1      17.369  31.432  14.327  1.00  0.00     0.002 C 
HETATM   44  C25 UNL     1      18.816  31.301  14.001  1.00  0.00     0.025 C 
ENDBRANCH   1  40
TORSDOF 18
ENDMDL
MODEL 5
REMARK VINA RESULT: -8.038770736      1.172      2.071
REMARK  18 active torsions:
REMARK  status: ('A' for Active; 'I' for Inactive)
REMARK    1  A    between atoms: O1_2  and  C2_3 
REMARK    2  A    between atoms: C4_5  and  N1_6 
REMARK       I    between atoms: N1_6  and  C5_8 
REMARK    3  A    between atoms: C5_8  and  C6_10 
REMARK    4  A    between atoms: C6_10  and  N2_11 
REMARK    5  A    between atoms: N2_11  and  C7_12 
REMARK    6  A    between atoms: N2_11  and  C21_33 
REMARK    7  A    between atoms: C7_12  and  N3_14 
REMARK    8  A    between atoms: N3_14  and  C8_16 
REMARK    9  A    between atoms: C8_16  and  C9_17 
REMARK   10  A    between atoms: C9_17  and  C10_18 
REMARK   11  A    between atoms: C10_18  and  C11_19 
REMARK   12  A    between atoms: C11_19  and  C12_20 
REMARK       I    between atoms: C12_20  and  N4_22 
REMARK   13  A    between atoms: N4_22  and  C13_24 
REMARK   14  A    between atoms: C13_24  and  C14_25 
REMARK   15  A    between atoms: C14_25  and  C15_26 
REMARK   16  A    between atoms: C15_26  and  N5_27 
REMARK   17  A    between atoms: C27_39  and  O4_40 
REMARK   18  A    between atoms: C29_42  and  O5_43 
ROOT
HETATM    1  N2  UNL     1      20.331  31.284  14.863  1.00  0.00    -0.345 N 
ENDROOT
BRANCH   1   2
HETATM    2  C6  UNL     1      20.931  32.072  15.896  1.00  0.00     0.228 C 
BRANCH   2   3
HETATM    3  C5  UNL     1      20.519  33.480  16.027  1.00  0.00     0.240 C 
HETATM    4  N1  UNL     1      19.620  33.767  17.111  1.00  0.00    -0.326 N 
ATOM      5  H1  UNL     1      19.323  32.988  17.697  1.00  0.00     0.169 HD
HETATM    6  O2  UNL     1      20.874  34.425  15.294  1.00  0.00    -0.271 OA
BRANCH   4   7
HETATM    7  C4  UNL     1      19.121  35.042  17.422  1.00  0.00     0.040 A 
HETATM    8  C3  UNL     1      17.757  35.285  17.209  1.00  0.00     0.069 A 
HETATM    9  C2  UNL     1      17.169  36.485  17.504  1.00  0.00     0.106 A 
HETATM   10  C29 UNL     1      17.928  37.508  18.033  1.00  0.00     0.135 A 
HETATM   11  C27 UNL     1      19.269  37.320  18.262  1.00  0.00     0.106 A 
HETATM   12  C26 UNL     1      19.840  36.088  17.951  1.00  0.00     0.069 A 
BRANCH   9  13
HETATM   13  O1  UNL     1      15.816  36.704  17.284  1.00  0.00    -0.353 OA
HETATM   14  C1  UNL     1      14.914  35.628  17.254  1.00  0.00     0.210 C 
ENDBRANCH   9  13
BRANCH  10  15
HETATM   15  O5  UNL     1      17.292  38.708  18.318  1.00  0.00    -0.351 OA
HETATM   16  C30 UNL     1      17.257  39.697  17.306  1.00  0.00     0.210 C 
ENDBRANCH  10  15
BRANCH  11  17
HETATM   17  O4  UNL     1      19.970  38.380  18.794  1.00  0.00    -0.353 OA
HETATM   18  C28 UNL     1      20.939  39.051  18.005  1.00  0.00     0.210 C 
ENDBRANCH  11  17
ENDBRANCH   4   7
ENDBRANCH   2   3
ENDBRANCH   1   2
BRANCH   1  19
HETATM   19  C7  UNL     1      21.187  30.591  13.947  1.00  0.00     0.170 C 
HETATM   20  S1  UNL     1      21.061  30.811  12.337  1.00  0.00    -0.041 SA
BRANCH  19  21
HETATM   21  N3  UNL     1      22.235  29.698  14.354  1.00  0.00    -0.367 N 
ATOM     22  H3  UNL     1      22.580  29.758  15.311  1.00  0.00     0.161 HD
BRANCH  21  23
HETATM   23  C8  UNL     1      22.814  28.728  13.481  1.00  0.00     0.122 C 
BRANCH  23  24
HETATM   24  C9  UNL     1      24.130  29.047  12.868  1.00  0.00     0.020 C 
BRANCH  24  25
HETATM   25  C10 UNL     1      24.928  27.808  12.517  1.00  0.00     0.011 C 
BRANCH  25  26
HETATM   26  C11 UNL     1      24.766  27.487  11.029  1.00  0.00     0.103 C 
BRANCH  26  27
HETATM   27  C12 UNL     1      23.914  26.260  10.879  1.00  0.00     0.217 C 
HETATM   28  O3  UNL     1      24.407  25.139  11.143  1.00  0.00    -0.274 OA
HETATM   29  N4  UNL     1      22.581  26.352  10.445  1.00  0.00    -0.361 N 
ATOM     30  H4  UNL     1      22.214  27.284  10.257  1.00  0.00     0.162 HD
BRANCH  29  31
HETATM   31  C13 UNL     1      21.688  25.239  10.243  1.00  0.00     0.124 C 
BRANCH  31  32
HETATM   32  C14 UNL     1      20.264  25.669  10.105  1.00  0.00     0.050 C 
BRANCH  32  33
HETATM   33  C15 UNL     1      19.376  25.455  11.249  1.00  0.00     0.274 C 
BRANCH  33  34
HETATM   34  N5  UNL     1      18.085  26.009  11.340  1.00  0.00     0.088 N 
HETATM   35  C16 UNL     1      18.023  27.047  10.263  1.00  0.00     0.272 C 
HETATM   36  C17 UNL     1      17.176  28.213  10.643  1.00  0.00     0.030 C 
HETATM   37  C18 UNL     1      17.783  29.006  11.787  1.00  0.00     0.003 C 
HETATM   38  C19 UNL     1      18.359  28.003  12.776  1.00  0.00     0.030 C 
HETATM   39  C20 UNL     1      17.680  26.652  12.548  1.00  0.00     0.272 C 
ENDBRANCH  33  34
ENDBRANCH  32  33
ENDBRANCH  31  32
ENDBRANCH  29  31
ENDBRANCH  26  27
ENDBRANCH  25  26
ENDBRANCH  24  25
ENDBRANCH  23  24
ENDBRANCH  21  23
ENDBRANCH  19  21
ENDBRANCH   1  19
BRANCH   1  40
HETATM   40  C21 UNL     1      18.902  31.062  14.709  1.00  0.00     0.087 C 
HETATM   41  C22 UNL     1      18.159  30.786  15.952  1.00  0.00     0.025 C 
HETATM   42  C23 UNL     1      16.845  31.485  15.911  1.00  0.00     0.002 C 
HETATM   43  C24 UNL     1      16.936  32.415  14.758  1.00  0.00     0.002 C 
HETATM   44  C25 UNL     1      18.240  32.249  14.058  1.00  0.00     0.025 C 
ENDBRANCH   1  40
TORSDOF 18
ENDMDL
