MODEL 1
REMARK VINA RESULT: -9.642080546      0.000      0.000
REMARK  16 active torsions:
REMARK  status: ('A' for Active; 'I' for Inactive)
REMARK    1  A    between atoms: C2_2  and  O1_3 
REMARK    2  A    between atoms: O1_3  and  C3_4 
REMARK       I    between atoms: C3_4  and  N1_6 
REMARK    3  A    between atoms: N2_9  and  C6_10 
REMARK    4  A    between atoms: C6_10  and  O3_11 
REMARK    5  A    between atoms: C7_13  and  C8_14 
REMARK    6  A    between atoms: C7_13  and  N3_22 
REMARK    7  A    between atoms: C8_14  and  C9_15 
REMARK    8  A    between atoms: C9_15  and  C10_16 
REMARK       I    between atoms: N3_22  and  C16_24 
REMARK    9  A    between atoms: C16_24  and  C17_26 
REMARK   10  A    between atoms: C17_26  and  C18_27 
REMARK   11  A    between atoms: C17_26  and  N5_36 
REMARK   12  A    between atoms: C18_27  and  C19_28 
REMARK   13  A    between atoms: C19_28  and  C20_29 
REMARK   14  A    between atoms: C20_29  and  O5_30 
REMARK   15  A    between atoms: N4_32  and  O6_34 
REMARK   16  A    between atoms: N5_36  and  C22_38 
ROOT
HETATM    1  C6  UNL     1      19.259  30.563  16.163  1.00  0.00     0.161 C 
HETATM    2  C7  UNL     1      18.490  31.723  16.442  1.00  0.00     0.063 C 
ENDROOT
BRANCH   2   3
HETATM    3  C8  UNL     1      17.225  31.977  15.692  1.00  0.00     0.062 C 
BRANCH   3   4
HETATM    4  C9  UNL     1      16.142  32.434  16.640  1.00  0.00     0.011 C 
BRANCH   4   5
HETATM    5  C10 UNL     1      16.112  33.893  16.920  1.00  0.00    -0.014 C 
HETATM    6  C11 UNL     1      16.116  34.763  15.680  1.00  0.00     0.004 C 
HETATM    7  C12 UNL     1      16.311  36.202  16.075  1.00  0.00     0.000 C 
HETATM    8  C13 UNL     1      15.826  36.517  17.454  1.00  0.00     0.000 C 
HETATM    9  C14 UNL     1      14.590  35.696  17.733  1.00  0.00     0.000 C 
HETATM   10  C15 UNL     1      14.996  34.237  17.848  1.00  0.00     0.004 C 
ENDBRANCH   4   5
ENDBRANCH   3   4
ENDBRANCH   2   3
BRANCH   2  11
HETATM   11  N3  UNL     1      19.071  32.875  17.074  1.00  0.00    -0.325 N 
HETATM   12  C16 UNL     1      19.602  33.985  16.433  1.00  0.00     0.255 C 
HETATM   13  O4  UNL     1      19.520  34.002  15.201  1.00  0.00    -0.271 OA
ATOM     14  H3  UNL     1      19.095  32.879  18.094  1.00  0.00     0.168 HD
BRANCH  12  15
HETATM   15  C17 UNL     1      20.246  35.139  17.104  1.00  0.00     0.314 C 
BRANCH  15  16
HETATM   16  C18 UNL     1      21.664  35.189  16.677  1.00  0.00     0.054 C 
BRANCH  16  17
HETATM   17  C19 UNL     1      22.590  34.335  17.446  1.00  0.00     0.088 C 
BRANCH  17  18
HETATM   18  C20 UNL     1      22.588  32.926  16.883  1.00  0.00     0.135 C 
HETATM   19  N4  UNL     1      23.007  32.631  15.728  1.00  0.00    -0.251 N 
ATOM     20  H4  UNL     1      23.371  33.365  15.120  1.00  0.00     0.196 HD
BRANCH  18  21
HETATM   21  O5  UNL     1      22.088  31.944  17.727  1.00  0.00    -0.348 OA
ATOM     22  H5  UNL     1      21.303  31.504  17.423  1.00  0.00     0.219 HD
ENDBRANCH  18  21
BRANCH  19  23
HETATM   23  O6  UNL     1      22.977  31.340  15.285  1.00  0.00    -0.288 OA
ATOM     24  H6  UNL     1      23.148  31.136  14.374  1.00  0.00     0.244 HD
ENDBRANCH  19  23
ENDBRANCH  17  18
ENDBRANCH  16  17
ENDBRANCH  15  16
BRANCH  15  25
HETATM   25  N5  UNL     1      20.085  35.272  18.498  1.00  0.00     0.102 N 
HETATM   26  C21 UNL     1      18.745  35.451  19.014  1.00  0.00     0.311 C 
BRANCH  25  27
HETATM   27  C22 UNL     1      20.852  36.443  18.971  1.00  0.00     0.223 C 
HETATM   28  C23 UNL     1      21.461  36.320  20.305  1.00  0.00     0.036 C 
HETATM   29  C24 UNL     1      22.713  37.222  20.368  1.00  0.00     0.002 C 
HETATM   30  C25 UNL     1      22.481  38.400  19.491  1.00  0.00     0.000 C 
HETATM   31  C26 UNL     1      21.033  38.836  19.463  1.00  0.00     0.002 C 
HETATM   32  C27 UNL     1      20.148  37.748  18.817  1.00  0.00     0.036 C 
ENDBRANCH  25  27
ENDBRANCH  15  25
ENDBRANCH  12  15
ENDBRANCH   2  11
BRANCH   1  33
HETATM   33  N2  UNL     1      19.525  29.785  15.019  1.00  0.00    -0.357 N 
HETATM   34  C5  UNL     1      18.858  29.957  13.780  1.00  0.00     0.145 C 
HETATM   35  C4  UNL     1      19.396  29.270  12.579  1.00  0.00     0.148 C 
HETATM   36  N1  UNL     1      20.637  28.607  12.709  1.00  0.00    -0.325 N 
HETATM   37  C3  UNL     1      21.025  27.665  11.712  1.00  0.00     0.362 C 
HETATM   38  C29 UNL     1      21.476  28.891  13.857  1.00  0.00     0.148 C 
HETATM   39  O2  UNL     1      20.246  27.439  10.743  1.00  0.00    -0.238 OA
HETATM   40  C28 UNL     1      20.571  28.734  15.092  1.00  0.00     0.145 C 
BRANCH  37  41
HETATM   41  O1  UNL     1      22.213  26.960  11.721  1.00  0.00    -0.304 OA
BRANCH  41  42
HETATM   42  C2  UNL     1      23.375  27.383  11.018  1.00  0.00     0.176 C 
HETATM   43  C1  UNL     1      24.595  27.121  11.840  1.00  0.00     0.034 C 
ENDBRANCH  41  42
ENDBRANCH  37  41
ENDBRANCH   1  33
BRANCH   1  44
HETATM   44  O3  UNL     1      19.906  30.063  17.218  1.00  0.00    -0.345 OA
ATOM     45  H3  UNL     1      19.822  30.649  17.961  1.00  0.00     0.219 HD
ENDBRANCH   1  44
TORSDOF 16
ENDMDL
MODEL 2
REMARK VINA RESULT: -9.547289970      2.289      8.497
REMARK  16 active torsions:
REMARK  status: ('A' for Active; 'I' for Inactive)
REMARK    1  A    between atoms: C2_2  and  O1_3 
REMARK    2  A    between atoms: O1_3  and  C3_4 
REMARK       I    between atoms: C3_4  and  N1_6 
REMARK    3  A    between atoms: N2_9  and  C6_10 
REMARK    4  A    between atoms: C6_10  and  O3_11 
REMARK    5  A    between atoms: C7_13  and  C8_14 
REMARK    6  A    between atoms: C7_13  and  N3_22 
REMARK    7  A    between atoms: C8_14  and  C9_15 
REMARK    8  A    between atoms: C9_15  and  C10_16 
REMARK       I    between atoms: N3_22  and  C16_24 
REMARK    9  A    between atoms: C16_24  and  C17_26 
REMARK   10  A    between atoms: C17_26  and  C18_27 
REMARK   11  A    between atoms: C17_26  and  N5_36 
REMARK   12  A    between atoms: C18_27  and  C19_28 
REMARK   13  A    between atoms: C19_28  and  C20_29 
REMARK   14  A    between atoms: C20_29  and  O5_30 
REMARK   15  A    between atoms: N4_32  and  O6_34 
REMARK   16  A    between atoms: N5_36  and  C22_38 
ROOT
HETATM    1  C6  UNL     1      20.473  33.797  15.176  1.00  0.00     0.161 C 
HETATM    2  C7  UNL     1      19.324  33.357  14.469  1.00  0.00     0.063 C 
ENDROOT
BRANCH   2   3
HETATM    3  C8  UNL     1      18.066  34.160  14.516  1.00  0.00     0.062 C 
BRANCH   3   4
HETATM    4  C9  UNL     1      17.000  33.411  15.278  1.00  0.00     0.011 C 
BRANCH   4   5
HETATM    5  C10 UNL     1      16.129  34.246  16.147  1.00  0.00    -0.014 C 
HETATM    6  C11 UNL     1      16.214  33.905  17.620  1.00  0.00     0.004 C 
HETATM    7  C12 UNL     1      15.139  34.645  18.371  1.00  0.00     0.000 C 
HETATM    8  C13 UNL     1      14.718  35.920  17.715  1.00  0.00     0.000 C 
HETATM    9  C14 UNL     1      15.926  36.556  17.069  1.00  0.00     0.000 C 
HETATM   10  C15 UNL     1      16.349  35.698  15.889  1.00  0.00     0.004 C 
ENDBRANCH   4   5
ENDBRANCH   3   4
ENDBRANCH   2   3
BRANCH   2  11
HETATM   11  N3  UNL     1      19.160  31.983  14.082  1.00  0.00    -0.325 N 
HETATM   12  C16 UNL     1      19.663  31.386  12.934  1.00  0.00     0.255 C 
HETATM   13  O4  UNL     1      20.360  32.096  12.204  1.00  0.00    -0.271 OA
ATOM     14  H3  UNL     1      18.622  31.388  14.711  1.00  0.00     0.168 HD
BRANCH  12  15
HETATM   15  C17 UNL     1      19.435  29.979  12.527  1.00  0.00     0.314 C 
BRANCH  15  16
HETATM   16  C18 UNL     1      20.720  29.424  12.040  1.00  0.00     0.054 C 
BRANCH  16  17
HETATM   17  C19 UNL     1      21.469  28.608  13.016  1.00  0.00     0.088 C 
BRANCH  17  18
HETATM   18  C20 UNL     1      21.731  29.411  14.276  1.00  0.00     0.135 C 
HETATM   19  N4  UNL     1      22.460  30.442  14.313  1.00  0.00    -0.251 N 
ATOM     20  H4  UNL     1      22.911  30.772  13.459  1.00  0.00     0.196 HD
BRANCH  18  21
HETATM   21  O5  UNL     1      21.109  28.942  15.424  1.00  0.00    -0.348 OA
ATOM     22  H5  UNL     1      20.255  29.316  15.610  1.00  0.00     0.219 HD
ENDBRANCH  18  21
BRANCH  19  23
HETATM   23  O6  UNL     1      22.652  31.118  15.483  1.00  0.00    -0.288 OA
ATOM     24  H6  UNL     1      23.527  31.261  15.823  1.00  0.00     0.244 HD
ENDBRANCH  19  23
ENDBRANCH  17  18
ENDBRANCH  16  17
ENDBRANCH  15  16
BRANCH  15  25
HETATM   25  N5  UNL     1      18.353  29.703  11.666  1.00  0.00     0.102 N 
HETATM   26  C21 UNL     1      17.014  29.787  12.208  1.00  0.00     0.311 C 
BRANCH  25  27
HETATM   27  C22 UNL     1      18.483  28.329  11.141  1.00  0.00     0.223 C 
HETATM   28  C23 UNL     1      17.943  28.099   9.791  1.00  0.00     0.036 C 
HETATM   29  C24 UNL     1      18.716  26.935   9.134  1.00  0.00     0.002 C 
HETATM   30  C25 UNL     1      19.135  25.993  10.205  1.00  0.00     0.000 C 
HETATM   31  C26 UNL     1      18.139  25.911  11.340  1.00  0.00     0.002 C 
HETATM   32  C27 UNL     1      18.049  27.260  12.085  1.00  0.00     0.036 C 
ENDBRANCH  25  27
ENDBRANCH  15  25
ENDBRANCH  12  15
ENDBRANCH   2  11
BRANCH   1  33
HETATM   33  N2  UNL     1      20.707  34.497  16.376  1.00  0.00    -0.357 N 
HETATM   34  C5  UNL     1      19.687  35.139  17.124  1.00  0.00     0.145 C 
HETATM   35  C4  UNL     1      20.000  35.615  18.494  1.00  0.00     0.148 C 
HETATM   36  N1  UNL     1      21.255  35.261  19.036  1.00  0.00    -0.325 N 
HETATM   37  C3  UNL     1      21.736  35.960  20.181  1.00  0.00     0.362 C 
HETATM   38  C29 UNL     1      22.028  34.207  18.408  1.00  0.00     0.148 C 
HETATM   39  O2  UNL     1      21.032  36.886  20.677  1.00  0.00    -0.238 OA
HETATM   40  C28 UNL     1      22.090  34.562  16.911  1.00  0.00     0.145 C 
BRANCH  37  41
HETATM   41  O1  UNL     1      22.940  35.704  20.808  1.00  0.00    -0.304 OA
BRANCH  41  42
HETATM   42  C2  UNL     1      23.793  36.728  21.305  1.00  0.00     0.176 C 
HETATM   43  C1  UNL     1      24.938  36.124  22.051  1.00  0.00     0.034 C 
ENDBRANCH  41  42
ENDBRANCH  37  41
ENDBRANCH   1  33
BRANCH   1  44
HETATM   44  O3  UNL     1      21.632  33.484  14.594  1.00  0.00    -0.345 OA
ATOM     45  H3  UNL     1      22.205  33.053  15.217  1.00  0.00     0.219 HD
ENDBRANCH   1  44
TORSDOF 16
ENDMDL
MODEL 3
REMARK VINA RESULT: -9.531387751      1.902      2.597
REMARK  16 active torsions:
REMARK  status: ('A' for Active; 'I' for Inactive)
REMARK    1  A    between atoms: C2_2  and  O1_3 
REMARK    2  A    between atoms: O1_3  and  C3_4 
REMARK       I    between atoms: C3_4  and  N1_6 
REMARK    3  A    between atoms: N2_9  and  C6_10 
REMARK    4  A    between atoms: C6_10  and  O3_11 
REMARK    5  A    between atoms: C7_13  and  C8_14 
REMARK    6  A    between atoms: C7_13  and  N3_22 
REMARK    7  A    between atoms: C8_14  and  C9_15 
REMARK    8  A    between atoms: C9_15  and  C10_16 
REMARK       I    between atoms: N3_22  and  C16_24 
REMARK    9  A    between atoms: C16_24  and  C17_26 
REMARK   10  A    between atoms: C17_26  and  C18_27 
REMARK   11  A    between atoms: C17_26  and  N5_36 
REMARK   12  A    between atoms: C18_27  and  C19_28 
REMARK   13  A    between atoms: C19_28  and  C20_29 
REMARK   14  A    between atoms: C20_29  and  O5_30 
REMARK   15  A    between atoms: N4_32  and  O6_34 
REMARK   16  A    between atoms: N5_36  and  C22_38 
ROOT
HETATM    1  C6  UNL     1      19.156  30.706  15.141  1.00  0.00     0.161 C 
HETATM    2  C7  UNL     1      18.843  32.090  15.157  1.00  0.00     0.063 C 
ENDROOT
BRANCH   2   3
HETATM    3  C8  UNL     1      17.601  32.582  14.490  1.00  0.00     0.062 C 
BRANCH   3   4
HETATM    4  C9  UNL     1      16.409  32.370  15.391  1.00  0.00     0.011 C 
BRANCH   4   5
HETATM    5  C10 UNL     1      15.852  33.599  16.015  1.00  0.00    -0.014 C 
HETATM    6  C11 UNL     1      15.862  33.584  17.529  1.00  0.00     0.004 C 
HETATM    7  C12 UNL     1      15.079  34.760  18.050  1.00  0.00     0.000 C 
HETATM    8  C13 UNL     1      15.049  35.923  17.111  1.00  0.00     0.000 C 
HETATM    9  C14 UNL     1      16.378  36.007  16.399  1.00  0.00     0.000 C 
HETATM   10  C15 UNL     1      16.495  34.822  15.457  1.00  0.00     0.004 C 
ENDBRANCH   4   5
ENDBRANCH   3   4
ENDBRANCH   2   3
BRANCH   2  11
HETATM   11  N3  UNL     1      19.854  33.087  15.383  1.00  0.00    -0.325 N 
HETATM   12  C16 UNL     1      19.979  33.892  16.506  1.00  0.00     0.255 C 
HETATM   13  O4  UNL     1      19.171  33.695  17.419  1.00  0.00    -0.271 OA
ATOM     14  H3  UNL     1      20.547  33.215  14.646  1.00  0.00     0.168 HD
BRANCH  12  15
HETATM   15  C17 UNL     1      20.997  34.953  16.694  1.00  0.00     0.314 C 
BRANCH  15  16
HETATM   16  C18 UNL     1      22.238  34.318  17.199  1.00  0.00     0.054 C 
BRANCH  16  17
HETATM   17  C19 UNL     1      23.283  34.072  16.186  1.00  0.00     0.088 C 
BRANCH  17  18
HETATM   18  C20 UNL     1      22.909  32.875  15.332  1.00  0.00     0.135 C 
HETATM   19  N4  UNL     1      22.869  31.689  15.764  1.00  0.00    -0.251 N 
ATOM     20  H4  UNL     1      23.097  31.499  16.740  1.00  0.00     0.196 HD
BRANCH  18  21
HETATM   21  O5  UNL     1      22.604  33.157  14.008  1.00  0.00    -0.348 OA
ATOM     22  H5  UNL     1      21.725  33.481  13.850  1.00  0.00     0.219 HD
ENDBRANCH  18  21
BRANCH  19  23
HETATM   23  O6  UNL     1      22.522  30.658  14.938  1.00  0.00    -0.288 OA
ATOM     24  H6  UNL     1      21.910  29.991  15.226  1.00  0.00     0.244 HD
ENDBRANCH  19  23
ENDBRANCH  17  18
ENDBRANCH  16  17
ENDBRANCH  15  16
BRANCH  15  25
HETATM   25  N5  UNL     1      20.631  36.104  17.420  1.00  0.00     0.102 N 
HETATM   26  C21 UNL     1      20.893  37.396  16.824  1.00  0.00     0.311 C 
BRANCH  25  27
HETATM   27  C22 UNL     1      21.344  36.113  18.715  1.00  0.00     0.223 C 
HETATM   28  C23 UNL     1      20.518  35.868  19.908  1.00  0.00     0.036 C 
HETATM   29  C24 UNL     1      21.403  35.239  21.007  1.00  0.00     0.002 C 
HETATM   30  C25 UNL     1      22.783  35.768  20.851  1.00  0.00     0.000 C 
HETATM   31  C26 UNL     1      22.814  37.194  20.350  1.00  0.00     0.002 C 
HETATM   32  C27 UNL     1      22.249  37.280  18.916  1.00  0.00     0.036 C 
ENDBRANCH  25  27
ENDBRANCH  15  25
ENDBRANCH  12  15
ENDBRANCH   2  11
BRANCH   1  33
HETATM   33  N2  UNL     1      18.958  29.641  14.241  1.00  0.00    -0.357 N 
HETATM   34  C5  UNL     1      17.945  28.660  14.394  1.00  0.00     0.145 C 
HETATM   35  C4  UNL     1      17.660  27.747  13.260  1.00  0.00     0.148 C 
HETATM   36  N1  UNL     1      18.307  28.010  12.032  1.00  0.00    -0.325 N 
HETATM   37  C3  UNL     1      18.337  26.993  11.034  1.00  0.00     0.362 C 
HETATM   38  C29 UNL     1      18.937  29.300  11.825  1.00  0.00     0.148 C 
HETATM   39  O2  UNL     1      17.791  25.878  11.276  1.00  0.00    -0.238 OA
HETATM   40  C28 UNL     1      19.838  29.535  13.050  1.00  0.00     0.145 C 
BRANCH  37  41
HETATM   41  O1  UNL     1      18.930  27.129   9.794  1.00  0.00    -0.304 OA
BRANCH  41  42
HETATM   42  C2  UNL     1      18.235  27.602   8.646  1.00  0.00     0.176 C 
HETATM   43  C1  UNL     1      17.820  26.450   7.789  1.00  0.00     0.034 C 
ENDBRANCH  41  42
ENDBRANCH  37  41
ENDBRANCH   1  33
BRANCH   1  44
HETATM   44  O3  UNL     1      19.800  30.274  16.227  1.00  0.00    -0.345 OA
ATOM     45  H3  UNL     1      19.511  30.757  16.993  1.00  0.00     0.219 HD
ENDBRANCH   1  44
TORSDOF 16
ENDMDL
MODEL 4
REMARK VINA RESULT: -9.529528150      1.434      1.913
REMARK  16 active torsions:
REMARK  status: ('A' for Active; 'I' for Inactive)
REMARK    1  A    between atoms: C2_2  and  O1_3 
REMARK    2  A    between atoms: O1_3  and  C3_4 
REMARK       I    between atoms: C3_4  and  N1_6 
REMARK    3  A    between atoms: N2_9  and  C6_10 
REMARK    4  A    between atoms: C6_10  and  O3_11 
REMARK    5  A    between atoms: C7_13  and  C8_14 
REMARK    6  A    between atoms: C7_13  and  N3_22 
REMARK    7  A    between atoms: C8_14  and  C9_15 
REMARK    8  A    between atoms: C9_15  and  C10_16 
REMARK       I    between atoms: N3_22  and  C16_24 
REMARK    9  A    between atoms: C16_24  and  C17_26 
REMARK   10  A    between atoms: C17_26  and  C18_27 
REMARK   11  A    between atoms: C17_26  and  N5_36 
REMARK   12  A    between atoms: C18_27  and  C19_28 
REMARK   13  A    between atoms: C19_28  and  C20_29 
REMARK   14  A    between atoms: C20_29  and  O5_30 
REMARK   15  A    between atoms: N4_32  and  O6_34 
REMARK   16  A    between atoms: N5_36  and  C22_38 
ROOT
HETATM    1  C6  UNL     1      19.103  30.575  15.839  1.00  0.00     0.161 C 
HETATM    2  C7  UNL     1      18.503  31.636  16.568  1.00  0.00     0.063 C 
ENDROOT
BRANCH   2   3
HETATM    3  C8  UNL     1      17.037  31.889  16.446  1.00  0.00     0.062 C 
BRANCH   3   4
HETATM    4  C9  UNL     1      16.791  33.134  15.628  1.00  0.00     0.011 C 
BRANCH   4   5
HETATM    5  C10 UNL     1      16.063  34.225  16.327  1.00  0.00    -0.014 C 
HETATM    6  C11 UNL     1      16.007  34.068  17.832  1.00  0.00     0.004 C 
HETATM    7  C12 UNL     1      15.066  35.090  18.412  1.00  0.00     0.000 C 
HETATM    8  C13 UNL     1      14.939  36.327  17.581  1.00  0.00     0.000 C 
HETATM    9  C14 UNL     1      16.279  36.630  16.954  1.00  0.00     0.000 C 
HETATM   10  C15 UNL     1      16.580  35.562  15.918  1.00  0.00     0.004 C 
ENDBRANCH   4   5
ENDBRANCH   3   4
ENDBRANCH   2   3
BRANCH   2  11
HETATM   11  N3  UNL     1      19.277  32.741  17.061  1.00  0.00    -0.325 N 
HETATM   12  C16 UNL     1      19.936  33.692  16.294  1.00  0.00     0.255 C 
HETATM   13  O4  UNL     1      19.799  33.604  15.070  1.00  0.00    -0.271 OA
ATOM     14  H3  UNL     1      19.350  32.837  18.074  1.00  0.00     0.168 HD
BRANCH  12  15
HETATM   15  C17 UNL     1      20.775  34.792  16.824  1.00  0.00     0.314 C 
BRANCH  15  16
HETATM   16  C18 UNL     1      22.045  34.208  17.317  1.00  0.00     0.054 C 
BRANCH  16  17
HETATM   17  C19 UNL     1      23.120  34.086  16.314  1.00  0.00     0.088 C 
BRANCH  17  18
HETATM   18  C20 UNL     1      22.839  32.918  15.388  1.00  0.00     0.135 C 
HETATM   19  N4  UNL     1      22.774  31.717  15.774  1.00  0.00    -0.251 N 
ATOM     20  H4  UNL     1      22.916  31.494  16.759  1.00  0.00     0.196 HD
BRANCH  18  21
HETATM   21  O5  UNL     1      22.651  33.244  14.052  1.00  0.00    -0.348 OA
ATOM     22  H5  UNL     1      22.845  32.552  13.430  1.00  0.00     0.219 HD
ENDBRANCH  18  21
BRANCH  19  23
HETATM   23  O6  UNL     1      22.515  30.713  14.885  1.00  0.00    -0.288 OA
ATOM     24  H6  UNL     1      23.223  30.276  14.428  1.00  0.00     0.244 HD
ENDBRANCH  19  23
ENDBRANCH  17  18
ENDBRANCH  16  17
ENDBRANCH  15  16
BRANCH  15  25
HETATM   25  N5  UNL     1      20.191  35.693  17.737  1.00  0.00     0.102 N 
HETATM   26  C21 UNL     1      19.866  37.023  17.267  1.00  0.00     0.311 C 
BRANCH  25  27
HETATM   27  C22 UNL     1      21.102  35.890  18.883  1.00  0.00     0.223 C 
HETATM   28  C23 UNL     1      20.538  35.608  20.212  1.00  0.00     0.036 C 
HETATM   29  C24 UNL     1      21.681  35.186  21.161  1.00  0.00     0.002 C 
HETATM   30  C25 UNL     1      22.918  35.895  20.742  1.00  0.00     0.000 C 
HETATM   31  C26 UNL     1      22.645  37.275  20.187  1.00  0.00     0.002 C 
HETATM   32  C27 UNL     1      21.840  37.185  18.873  1.00  0.00     0.036 C 
ENDBRANCH  25  27
ENDBRANCH  15  25
ENDBRANCH  12  15
ENDBRANCH   2  11
BRANCH   1  33
HETATM   33  N2  UNL     1      18.880  29.963  14.590  1.00  0.00    -0.357 N 
HETATM   34  C5  UNL     1      18.045  30.512  13.584  1.00  0.00     0.145 C 
HETATM   35  C4  UNL     1      18.090  29.925  12.222  1.00  0.00     0.148 C 
HETATM   36  N1  UNL     1      19.081  28.952  11.963  1.00  0.00    -0.325 N 
HETATM   37  C3  UNL     1      18.956  28.127  10.808  1.00  0.00     0.362 C 
HETATM   38  C29 UNL     1      20.191  28.809  12.886  1.00  0.00     0.148 C 
HETATM   39  O2  UNL     1      17.957  28.280  10.048  1.00  0.00    -0.238 OA
HETATM   40  C28 UNL     1      19.565  28.682  14.286  1.00  0.00     0.145 C 
BRANCH  37  41
HETATM   41  O1  UNL     1      19.860  27.148  10.443  1.00  0.00    -0.304 OA
BRANCH  41  42
HETATM   42  C2  UNL     1      19.809  25.817  10.941  1.00  0.00     0.176 C 
HETATM   43  C1  UNL     1      21.189  25.329  11.240  1.00  0.00     0.034 C 
ENDBRANCH  41  42
ENDBRANCH  37  41
ENDBRANCH   1  33
BRANCH   1  44
HETATM   44  O3  UNL     1      20.136  29.998  16.455  1.00  0.00    -0.345 OA
ATOM     45  H3  UNL     1      20.206  30.319  17.347  1.00  0.00     0.219 HD
ENDBRANCH   1  44
TORSDOF 16
ENDMDL
MODEL 5
REMARK VINA RESULT: -9.479130254      2.248      8.456
REMARK  16 active torsions:
REMARK  status: ('A' for Active; 'I' for Inactive)
REMARK    1  A    between atoms: C2_2  and  O1_3 
REMARK    2  A    between atoms: O1_3  and  C3_4 
REMARK       I    between atoms: C3_4  and  N1_6 
REMARK    3  A    between atoms: N2_9  and  C6_10 
REMARK    4  A    between atoms: C6_10  and  O3_11 
REMARK    5  A    between atoms: C7_13  and  C8_14 
REMARK    6  A    between atoms: C7_13  and  N3_22 
REMARK    7  A    between atoms: C8_14  and  C9_15 
REMARK    8  A    between atoms: C9_15  and  C10_16 
REMARK       I    between atoms: N3_22  and  C16_24 
REMARK    9  A    between atoms: C16_24  and  C17_26 
REMARK   10  A    between atoms: C17_26  and  C18_27 
REMARK   11  A    between atoms: C17_26  and  N5_36 
REMARK   12  A    between atoms: C18_27  and  C19_28 
REMARK   13  A    between atoms: C19_28  and  C20_29 
REMARK   14  A    between atoms: C20_29  and  O5_30 
REMARK   15  A    between atoms: N4_32  and  O6_34 
REMARK   16  A    between atoms: N5_36  and  C22_38 
ROOT
HETATM    1  C6  UNL     1      21.437  32.879  14.713  1.00  0.00     0.161 C 
HETATM    2  C7  UNL     1      20.555  31.777  14.557  1.00  0.00     0.063 C 
ENDROOT
BRANCH   2   3
HETATM    3  C8  UNL     1      19.197  31.815  15.175  1.00  0.00     0.062 C 
BRANCH   3   4
HETATM    4  C9  UNL     1      18.386  32.938  14.578  1.00  0.00     0.011 C 
BRANCH   4   5
HETATM    5  C10 UNL     1      17.573  33.724  15.543  1.00  0.00    -0.014 C 
HETATM    6  C11 UNL     1      16.812  34.876  14.920  1.00  0.00     0.004 C 
HETATM    7  C12 UNL     1      16.214  35.730  16.005  1.00  0.00     0.000 C 
HETATM    8  C13 UNL     1      15.938  34.985  17.272  1.00  0.00     0.000 C 
HETATM    9  C14 UNL     1      15.500  33.583  16.925  1.00  0.00     0.000 C 
HETATM   10  C15 UNL     1      16.690  32.834  16.350  1.00  0.00     0.004 C 
ENDBRANCH   4   5
ENDBRANCH   3   4
ENDBRANCH   2   3
BRANCH   2  11
HETATM   11  N3  UNL     1      21.042  30.467  14.225  1.00  0.00    -0.325 N 
HETATM   12  C16 UNL     1      21.332  29.994  12.953  1.00  0.00     0.255 C 
HETATM   13  O4  UNL     1      21.205  30.797  12.024  1.00  0.00    -0.271 OA
ATOM     14  H3  UNL     1      21.190  29.820  15.000  1.00  0.00     0.168 HD
BRANCH  12  15
HETATM   15  C17 UNL     1      21.781  28.619  12.629  1.00  0.00     0.314 C 
BRANCH  15  16
HETATM   16  C18 UNL     1      22.825  28.709  11.580  1.00  0.00     0.054 C 
BRANCH  16  17
HETATM   17  C19 UNL     1      24.080  27.990  11.871  1.00  0.00     0.088 C 
BRANCH  17  18
HETATM   18  C20 UNL     1      24.293  26.881  10.858  1.00  0.00     0.135 C 
HETATM   19  N4  UNL     1      24.271  27.060   9.607  1.00  0.00    -0.251 N 
ATOM     20  H4  UNL     1      24.102  27.994   9.233  1.00  0.00     0.196 HD
BRANCH  18  21
HETATM   21  O5  UNL     1      24.520  25.619  11.389  1.00  0.00    -0.348 OA
ATOM     22  H5  UNL     1      25.366  25.236  11.187  1.00  0.00     0.219 HD
ENDBRANCH  18  21
BRANCH  19  23
HETATM   23  O6  UNL     1      24.472  26.015   8.751  1.00  0.00    -0.288 OA
ATOM     24  H6  UNL     1      23.881  25.272   8.746  1.00  0.00     0.244 HD
ENDBRANCH  19  23
ENDBRANCH  17  18
ENDBRANCH  16  17
ENDBRANCH  15  16
BRANCH  15  25
HETATM   25  N5  UNL     1      20.798  27.648  12.347  1.00  0.00     0.102 N 
HETATM   26  C21 UNL     1      20.930  26.879  11.129  1.00  0.00     0.311 C 
BRANCH  25  27
HETATM   27  C22 UNL     1      19.475  28.301  12.263  1.00  0.00     0.223 C 
HETATM   28  C23 UNL     1      18.510  27.942  13.314  1.00  0.00     0.036 C 
HETATM   29  C24 UNL     1      17.530  29.119  13.516  1.00  0.00     0.002 C 
HETATM   30  C25 UNL     1      17.361  29.811  12.212  1.00  0.00     0.000 C 
HETATM   31  C26 UNL     1      17.435  28.868  11.032  1.00  0.00     0.002 C 
HETATM   32  C27 UNL     1      18.846  28.253  10.913  1.00  0.00     0.036 C 
ENDBRANCH  25  27
ENDBRANCH  15  25
ENDBRANCH  12  15
ENDBRANCH   2  11
BRANCH   1  33
HETATM   33  N2  UNL     1      21.683  33.833  15.720  1.00  0.00    -0.357 N 
HETATM   34  C5  UNL     1      21.078  35.116  15.751  1.00  0.00     0.145 C 
HETATM   35  C4  UNL     1      21.203  35.933  16.984  1.00  0.00     0.148 C 
HETATM   36  N1  UNL     1      21.784  35.320  18.116  1.00  0.00    -0.325 N 
HETATM   37  C3  UNL     1      22.232  36.139  19.193  1.00  0.00     0.362 C 
HETATM   38  C29 UNL     1      21.924  33.876  18.147  1.00  0.00     0.148 C 
HETATM   39  O2  UNL     1      22.106  37.394  19.104  1.00  0.00    -0.238 OA
HETATM   40  C28 UNL     1      22.610  33.488  16.826  1.00  0.00     0.145 C 
BRANCH  37  41
HETATM   41  O1  UNL     1      22.809  35.661  20.354  1.00  0.00    -0.304 OA
BRANCH  41  42
HETATM   42  C2  UNL     1      23.596  36.468  21.221  1.00  0.00     0.176 C 
HETATM   43  C1  UNL     1      24.642  35.635  21.886  1.00  0.00     0.034 C 
ENDBRANCH  41  42
ENDBRANCH  37  41
ENDBRANCH   1  33
BRANCH   1  44
HETATM   44  O3  UNL     1      22.248  33.088  13.675  1.00  0.00    -0.345 OA
ATOM     45  H3  UNL     1      23.092  33.402  13.978  1.00  0.00     0.219 HD
ENDBRANCH   1  44
TORSDOF 16
ENDMDL
