MODEL 1
REMARK VINA RESULT: -10.249560485      0.000      0.000
REMARK  15 active torsions:
REMARK  status: ('A' for Active; 'I' for Inactive)
REMARK       I    between atoms: C1_2  and  N1_3 
REMARK    1  A    between atoms: C1_2  and  O5_33 
REMARK    2  A    between atoms: N1_3  and  C2_5 
REMARK    3  A    between atoms: C2_5  and  C3_6 
REMARK    4  A    between atoms: C2_5  and  C18_27 
REMARK    5  A    between atoms: C3_6  and  O3_8 
REMARK    6  A    between atoms: O3_8  and  C4_9 
REMARK    7  A    between atoms: C4_9  and  C5_10 
REMARK    8  A    between atoms: C5_10  and  C6_11 
REMARK    9  A    between atoms: C6_11  and  C7_12 
REMARK   10  A    between atoms: C7_12  and  N2_13 
REMARK   11  A    between atoms: C10_18  and  C11_19 
REMARK   12  A    between atoms: C11_19  and  O4_20 
REMARK   13  A    between atoms: O4_20  and  C12_21 
REMARK   14  A    between atoms: O5_33  and  C24_34 
REMARK   15  A    between atoms: C24_34  and  C25_35 
ROOT
HETATM    1  C3  UNL     1      88.431  93.575 148.839  1.00  0.00     0.286 C 
HETATM    2  O2  UNL     1      87.690  94.567 148.699  1.00  0.00    -0.263 OA
ENDROOT
BRANCH   1   3
HETATM    3  C2  UNL     1      89.904  93.601 148.541  1.00  0.00     0.220 C 
BRANCH   3   4
HETATM    4  N1  UNL     1      90.318  92.418 147.836  1.00  0.00    -0.319 N 
HETATM    5  C1  UNL     1      91.522  92.433 147.096  1.00  0.00     0.361 C 
HETATM    6  O1  UNL     1      92.207  93.482 147.071  1.00  0.00    -0.238 OA
ATOM      7  H1  UNL     1      89.746  91.574 147.870  1.00  0.00     0.166 HD
BRANCH   5   8
HETATM    8  O5  UNL     1      92.000  91.343 146.389  1.00  0.00    -0.299 OA
BRANCH   8   9
HETATM    9  C24 UNL     1      92.662  90.236 146.921  1.00  0.00     0.219 C 
BRANCH   9  10
HETATM   10  C25 UNL     1      93.913  90.537 147.644  1.00  0.00    -0.034 A 
HETATM   11  C26 UNL     1      95.130  90.235 147.081  1.00  0.00     0.009 A 
HETATM   12  C27 UNL     1      96.323  90.511 147.759  1.00  0.00     0.001 A 
HETATM   13  C28 UNL     1      96.279  91.090 149.001  1.00  0.00     0.000 A 
HETATM   14  C29 UNL     1      95.070  91.393 149.567  1.00  0.00     0.001 A 
HETATM   15  C30 UNL     1      93.905  91.114 148.886  1.00  0.00     0.009 A 
ENDBRANCH   9  10
ENDBRANCH   8   9
ENDBRANCH   5   8
ENDBRANCH   3   4
BRANCH   3  16
HETATM   16  C18 UNL     1      90.684  93.813 149.788  1.00  0.00    -0.026 A 
HETATM   17  C19 UNL     1      91.371  94.992 149.977  1.00  0.00     0.010 A 
HETATM   18  C20 UNL     1      92.099  95.198 151.135  1.00  0.00     0.001 A 
HETATM   19  C21 UNL     1      92.142  94.227 152.108  1.00  0.00     0.000 A 
HETATM   20  C22 UNL     1      91.441  93.041 151.896  1.00  0.00     0.001 A 
HETATM   21  C23 UNL     1      90.718  92.832 150.751  1.00  0.00     0.010 A 
ENDBRANCH   3  16
ENDBRANCH   1   3
BRANCH   1  22
HETATM   22  O3  UNL     1      87.900  92.390 149.284  1.00  0.00    -0.320 OA
BRANCH  22  23
HETATM   23  C4  UNL     1      86.662  91.876 148.943  1.00  0.00     0.178 C 
BRANCH  23  24
HETATM   24  C5  UNL     1      86.589  91.359 147.529  1.00  0.00     0.028 C 
BRANCH  24  25
HETATM   25  C6  UNL     1      85.364  90.497 147.315  1.00  0.00     0.022 C 
BRANCH  25  26
HETATM   26  C7  UNL     1      84.678  90.126 148.595  1.00  0.00     0.130 C 
BRANCH  26  27
HETATM   27  N2  UNL     1      83.312  90.671 148.621  1.00  0.00    -0.344 N 
HETATM   28  C8  UNL     1      82.874  91.719 147.908  1.00  0.00     0.109 A 
HETATM   29  C9  UNL     1      81.543  91.942 148.187  1.00  0.00     0.106 A 
HETATM   30  N3  UNL     1      81.187  91.011 149.081  1.00  0.00    -0.352 N 
HETATM   31  C10 UNL     1      82.281  90.235 149.341  1.00  0.00     0.107 A 
ATOM     32  H3  UNL     1      80.262  90.900 149.495  1.00  0.00     0.166 HD
BRANCH  31  33
HETATM   33  C11 UNL     1      82.292  89.101 150.274  1.00  0.00     0.252 C 
BRANCH  33  34
HETATM   34  O4  UNL     1      82.456  87.859 149.615  1.00  0.00    -0.344 OA
BRANCH  34  35
HETATM   35  C12 UNL     1      83.025  86.799 150.285  1.00  0.00     0.069 A 
HETATM   36  C13 UNL     1      82.509  85.520 150.194  1.00  0.00     0.037 A 
HETATM   37  C14 UNL     1      83.098  84.476 150.876  1.00  0.00     0.003 A 
HETATM   38  C15 UNL     1      84.220  84.691 151.667  1.00  0.00     0.000 A 
HETATM   39  C16 UNL     1      84.724  85.970 151.751  1.00  0.00     0.003 A 
HETATM   40  C17 UNL     1      84.131  87.009 151.065  1.00  0.00     0.037 A 
ENDBRANCH  34  35
ENDBRANCH  33  34
ENDBRANCH  31  33
ENDBRANCH  26  27
ENDBRANCH  25  26
ENDBRANCH  24  25
ENDBRANCH  23  24
ENDBRANCH  22  23
ENDBRANCH   1  22
TORSDOF 15
ENDMDL
MODEL 2
REMARK VINA RESULT: -10.087345403      0.880      1.594
REMARK  15 active torsions:
REMARK  status: ('A' for Active; 'I' for Inactive)
REMARK       I    between atoms: C1_2  and  N1_3 
REMARK    1  A    between atoms: C1_2  and  O5_33 
REMARK    2  A    between atoms: N1_3  and  C2_5 
REMARK    3  A    between atoms: C2_5  and  C3_6 
REMARK    4  A    between atoms: C2_5  and  C18_27 
REMARK    5  A    between atoms: C3_6  and  O3_8 
REMARK    6  A    between atoms: O3_8  and  C4_9 
REMARK    7  A    between atoms: C4_9  and  C5_10 
REMARK    8  A    between atoms: C5_10  and  C6_11 
REMARK    9  A    between atoms: C6_11  and  C7_12 
REMARK   10  A    between atoms: C7_12  and  N2_13 
REMARK   11  A    between atoms: C10_18  and  C11_19 
REMARK   12  A    between atoms: C11_19  and  O4_20 
REMARK   13  A    between atoms: O4_20  and  C12_21 
REMARK   14  A    between atoms: O5_33  and  C24_34 
REMARK   15  A    between atoms: C24_34  and  C25_35 
ROOT
HETATM    1  C3  UNL     1      88.427  93.366 148.971  1.00  0.00     0.286 C 
HETATM    2  O2  UNL     1      87.937  92.319 149.438  1.00  0.00    -0.263 OA
ENDROOT
BRANCH   1   3
HETATM    3  C2  UNL     1      89.882  93.505 148.620  1.00  0.00     0.220 C 
BRANCH   3   4
HETATM    4  N1  UNL     1      90.359  92.356 147.898  1.00  0.00    -0.319 N 
HETATM    5  C1  UNL     1      91.536  92.459 147.122  1.00  0.00     0.361 C 
HETATM    6  O1  UNL     1      92.142  93.555 147.080  1.00  0.00    -0.238 OA
ATOM      7  H1  UNL     1      89.852  91.473 147.945  1.00  0.00     0.166 HD
BRANCH   5   8
HETATM    8  O5  UNL     1      92.070  91.408 146.396  1.00  0.00    -0.299 OA
BRANCH   8   9
HETATM    9  C24 UNL     1      92.755  90.309 146.913  1.00  0.00     0.219 C 
BRANCH   9  10
HETATM   10  C25 UNL     1      93.967  90.630 147.691  1.00  0.00    -0.034 A 
HETATM   11  C26 UNL     1      95.210  90.284 147.215  1.00  0.00     0.009 A 
HETATM   12  C27 UNL     1      96.366  90.579 147.947  1.00  0.00     0.001 A 
HETATM   13  C28 UNL     1      96.261  91.221 149.154  1.00  0.00     0.000 A 
HETATM   14  C29 UNL     1      95.026  91.568 149.632  1.00  0.00     0.001 A 
HETATM   15  C30 UNL     1      93.897  91.270 148.900  1.00  0.00     0.009 A 
ENDBRANCH   9  10
ENDBRANCH   8   9
ENDBRANCH   5   8
ENDBRANCH   3   4
BRANCH   3  16
HETATM   16  C18 UNL     1      90.689  93.777 149.838  1.00  0.00    -0.026 A 
HETATM   17  C19 UNL     1      90.776  92.826 150.831  1.00  0.00     0.010 A 
HETATM   18  C20 UNL     1      91.525  93.070 151.968  1.00  0.00     0.001 A 
HETATM   19  C21 UNL     1      92.190  94.266 152.115  1.00  0.00     0.000 A 
HETATM   20  C22 UNL     1      92.088  95.214 151.099  1.00  0.00     0.001 A 
HETATM   21  C23 UNL     1      91.348  94.976 149.971  1.00  0.00     0.010 A 
ENDBRANCH   3  16
ENDBRANCH   1   3
BRANCH   1  22
HETATM   22  O3  UNL     1      87.622  94.457 148.761  1.00  0.00    -0.320 OA
BRANCH  22  23
HETATM   23  C4  UNL     1      87.022  94.804 147.564  1.00  0.00     0.178 C 
BRANCH  23  24
HETATM   24  C5  UNL     1      86.357  93.648 146.862  1.00  0.00     0.028 C 
BRANCH  24  25
HETATM   25  C6  UNL     1      85.081  93.232 147.561  1.00  0.00     0.022 C 
BRANCH  25  26
HETATM   26  C7  UNL     1      84.810  91.761 147.459  1.00  0.00     0.130 C 
BRANCH  26  27
HETATM   27  N2  UNL     1      83.500  91.440 148.046  1.00  0.00    -0.344 N 
HETATM   28  C8  UNL     1      82.380  92.164 147.906  1.00  0.00     0.109 A 
HETATM   29  C9  UNL     1      81.351  91.558 148.593  1.00  0.00     0.106 A 
HETATM   30  N3  UNL     1      81.870  90.457 149.151  1.00  0.00    -0.352 N 
HETATM   31  C10 UNL     1      83.191  90.393 148.808  1.00  0.00     0.107 A 
ATOM     32  H3  UNL     1      81.367  89.784 149.729  1.00  0.00     0.166 HD
BRANCH  31  33
HETATM   33  C11 UNL     1      84.107  89.325 149.229  1.00  0.00     0.252 C 
BRANCH  33  34
HETATM   34  O4  UNL     1      83.687  88.693 150.425  1.00  0.00    -0.344 OA
BRANCH  34  35
HETATM   35  C12 UNL     1      83.534  87.325 150.456  1.00  0.00     0.069 A 
HETATM   36  C13 UNL     1      84.158  86.545 151.412  1.00  0.00     0.037 A 
HETATM   37  C14 UNL     1      83.988  85.176 151.421  1.00  0.00     0.003 A 
HETATM   38  C15 UNL     1      83.185  84.557 150.471  1.00  0.00     0.000 A 
HETATM   39  C16 UNL     1      82.569  85.344 149.524  1.00  0.00     0.003 A 
HETATM   40  C17 UNL     1      82.743  86.712 149.521  1.00  0.00     0.037 A 
ENDBRANCH  34  35
ENDBRANCH  33  34
ENDBRANCH  31  33
ENDBRANCH  26  27
ENDBRANCH  25  26
ENDBRANCH  24  25
ENDBRANCH  23  24
ENDBRANCH  22  23
ENDBRANCH   1  22
TORSDOF 15
ENDMDL
MODEL 3
REMARK VINA RESULT: -9.851007447      1.782      3.997
REMARK  15 active torsions:
REMARK  status: ('A' for Active; 'I' for Inactive)
REMARK       I    between atoms: C1_2  and  N1_3 
REMARK    1  A    between atoms: C1_2  and  O5_33 
REMARK    2  A    between atoms: N1_3  and  C2_5 
REMARK    3  A    between atoms: C2_5  and  C3_6 
REMARK    4  A    between atoms: C2_5  and  C18_27 
REMARK    5  A    between atoms: C3_6  and  O3_8 
REMARK    6  A    between atoms: O3_8  and  C4_9 
REMARK    7  A    between atoms: C4_9  and  C5_10 
REMARK    8  A    between atoms: C5_10  and  C6_11 
REMARK    9  A    between atoms: C6_11  and  C7_12 
REMARK   10  A    between atoms: C7_12  and  N2_13 
REMARK   11  A    between atoms: C10_18  and  C11_19 
REMARK   12  A    between atoms: C11_19  and  O4_20 
REMARK   13  A    between atoms: O4_20  and  C12_21 
REMARK   14  A    between atoms: O5_33  and  C24_34 
REMARK   15  A    between atoms: C24_34  and  C25_35 
ROOT
HETATM    1  C3  UNL     1      85.823  94.919 148.852  1.00  0.00     0.286 C 
HETATM    2  O2  UNL     1      86.059  96.015 148.309  1.00  0.00    -0.263 OA
ENDROOT
BRANCH   1   3
HETATM    3  C2  UNL     1      86.842  93.818 148.957  1.00  0.00     0.220 C 
BRANCH   3   4
HETATM    4  N1  UNL     1      87.996  94.093 148.144  1.00  0.00    -0.319 N 
HETATM    5  C1  UNL     1      89.287  93.820 148.652  1.00  0.00     0.361 C 
HETATM    6  O1  UNL     1      89.398  93.341 149.804  1.00  0.00    -0.238 OA
ATOM      7  H1  UNL     1      87.885  94.483 147.208  1.00  0.00     0.166 HD
BRANCH   5   8
HETATM    8  O5  UNL     1      90.454  94.051 147.943  1.00  0.00    -0.299 OA
BRANCH   8   9
HETATM    9  C24 UNL     1      91.754  93.978 148.443  1.00  0.00     0.219 C 
BRANCH   9  10
HETATM   10  C25 UNL     1      92.440  92.689 148.228  1.00  0.00    -0.034 A 
HETATM   11  C26 UNL     1      92.089  91.884 147.170  1.00  0.00     0.009 A 
HETATM   12  C27 UNL     1      92.729  90.657 146.959  1.00  0.00     0.001 A 
HETATM   13  C28 UNL     1      93.718  90.250 147.818  1.00  0.00     0.000 A 
HETATM   14  C29 UNL     1      94.071  91.048 148.872  1.00  0.00     0.001 A 
HETATM   15  C30 UNL     1      93.431  92.253 149.067  1.00  0.00     0.009 A 
ENDBRANCH   9  10
ENDBRANCH   8   9
ENDBRANCH   5   8
ENDBRANCH   3   4
BRANCH   3  16
HETATM   16  C18 UNL     1      86.226  92.506 148.630  1.00  0.00    -0.026 A 
HETATM   17  C19 UNL     1      85.995  92.162 147.316  1.00  0.00     0.010 A 
HETATM   18  C20 UNL     1      85.423  90.943 147.002  1.00  0.00     0.001 A 
HETATM   19  C21 UNL     1      85.080  90.062 148.002  1.00  0.00     0.000 A 
HETATM   20  C22 UNL     1      85.322  90.428 149.324  1.00  0.00     0.001 A 
HETATM   21  C23 UNL     1      85.889  91.635 149.640  1.00  0.00     0.010 A 
ENDBRANCH   3  16
ENDBRANCH   1   3
BRANCH   1  22
HETATM   22  O3  UNL     1      84.582  94.680 149.387  1.00  0.00    -0.320 OA
BRANCH  22  23
HETATM   23  C4  UNL     1      83.378  94.757 148.711  1.00  0.00     0.178 C 
BRANCH  23  24
HETATM   24  C5  UNL     1      82.829  93.416 148.297  1.00  0.00     0.028 C 
BRANCH  24  25
HETATM   25  C6  UNL     1      82.372  92.609 149.494  1.00  0.00     0.022 C 
BRANCH  25  26
HETATM   26  C7  UNL     1      81.668  91.343 149.112  1.00  0.00     0.130 C 
BRANCH  26  27
HETATM   27  N2  UNL     1      80.947  90.789 150.268  1.00  0.00    -0.344 N 
HETATM   28  C8  UNL     1      80.337  91.503 151.226  1.00  0.00     0.109 A 
HETATM   29  C9  UNL     1      79.768  90.648 152.145  1.00  0.00     0.106 A 
HETATM   30  N3  UNL     1      80.046  89.407 151.725  1.00  0.00    -0.352 N 
HETATM   31  C10 UNL     1      80.770  89.505 150.571  1.00  0.00     0.107 A 
ATOM     32  H3  UNL     1      79.765  88.542 152.186  1.00  0.00     0.166 HD
BRANCH  31  33
HETATM   33  C11 UNL     1      81.266  88.355 149.803  1.00  0.00     0.252 C 
BRANCH  33  34
HETATM   34  O4  UNL     1      82.666  88.186 149.926  1.00  0.00    -0.344 OA
BRANCH  34  35
HETATM   35  C12 UNL     1      83.169  87.035 150.489  1.00  0.00     0.069 A 
HETATM   36  C13 UNL     1      84.315  87.044 151.263  1.00  0.00     0.037 A 
HETATM   37  C14 UNL     1      84.797  85.876 151.815  1.00  0.00     0.003 A 
HETATM   38  C15 UNL     1      84.139  84.670 151.606  1.00  0.00     0.000 A 
HETATM   39  C16 UNL     1      82.999  84.673 150.834  1.00  0.00     0.003 A 
HETATM   40  C17 UNL     1      82.522  85.845 150.285  1.00  0.00     0.037 A 
ENDBRANCH  34  35
ENDBRANCH  33  34
ENDBRANCH  31  33
ENDBRANCH  26  27
ENDBRANCH  25  26
ENDBRANCH  24  25
ENDBRANCH  23  24
ENDBRANCH  22  23
ENDBRANCH   1  22
TORSDOF 15
ENDMDL
MODEL 4
REMARK VINA RESULT: -9.755604840      2.131      4.577
REMARK  15 active torsions:
REMARK  status: ('A' for Active; 'I' for Inactive)
REMARK       I    between atoms: C1_2  and  N1_3 
REMARK    1  A    between atoms: C1_2  and  O5_33 
REMARK    2  A    between atoms: N1_3  and  C2_5 
REMARK    3  A    between atoms: C2_5  and  C3_6 
REMARK    4  A    between atoms: C2_5  and  C18_27 
REMARK    5  A    between atoms: C3_6  and  O3_8 
REMARK    6  A    between atoms: O3_8  and  C4_9 
REMARK    7  A    between atoms: C4_9  and  C5_10 
REMARK    8  A    between atoms: C5_10  and  C6_11 
REMARK    9  A    between atoms: C6_11  and  C7_12 
REMARK   10  A    between atoms: C7_12  and  N2_13 
REMARK   11  A    between atoms: C10_18  and  C11_19 
REMARK   12  A    between atoms: C11_19  and  O4_20 
REMARK   13  A    between atoms: O4_20  and  C12_21 
REMARK   14  A    between atoms: O5_33  and  C24_34 
REMARK   15  A    between atoms: C24_34  and  C25_35 
ROOT
HETATM    1  C3  UNL     1      85.150  93.693 148.953  1.00  0.00     0.286 C 
HETATM    2  O2  UNL     1      85.305  94.811 149.481  1.00  0.00    -0.263 OA
ENDROOT
BRANCH   1   3
HETATM    3  C2  UNL     1      86.087  92.541 149.183  1.00  0.00     0.220 C 
BRANCH   3   4
HETATM    4  N1  UNL     1      87.105  92.482 148.169  1.00  0.00    -0.319 N 
HETATM    5  C1  UNL     1      88.404  92.957 148.457  1.00  0.00     0.361 C 
HETATM    6  O1  UNL     1      88.643  93.421 149.596  1.00  0.00    -0.238 OA
ATOM      7  H1  UNL     1      86.890  92.100 147.248  1.00  0.00     0.166 HD
BRANCH   5   8
HETATM    8  O5  UNL     1      89.447  92.940 147.546  1.00  0.00    -0.299 OA
BRANCH   8   9
HETATM    9  C24 UNL     1      90.680  93.576 147.686  1.00  0.00     0.219 C 
BRANCH   9  10
HETATM   10  C25 UNL     1      91.825  92.681 147.944  1.00  0.00    -0.034 A 
HETATM   11  C26 UNL     1      92.661  92.914 149.010  1.00  0.00     0.009 A 
HETATM   12  C27 UNL     1      93.754  92.075 149.261  1.00  0.00     0.001 A 
HETATM   13  C28 UNL     1      93.995  91.008 148.434  1.00  0.00     0.000 A 
HETATM   14  C29 UNL     1      93.165  90.772 147.371  1.00  0.00     0.001 A 
HETATM   15  C30 UNL     1      92.094  91.608 147.137  1.00  0.00     0.009 A 
ENDBRANCH   9  10
ENDBRANCH   8   9
ENDBRANCH   5   8
ENDBRANCH   3   4
BRANCH   3  16
HETATM   16  C18 UNL     1      85.329  91.267 149.292  1.00  0.00    -0.026 A 
HETATM   17  C19 UNL     1      85.134  90.485 148.174  1.00  0.00     0.010 A 
HETATM   18  C20 UNL     1      84.431  89.298 148.265  1.00  0.00     0.001 A 
HETATM   19  C21 UNL     1      83.920  88.888 149.475  1.00  0.00     0.000 A 
HETATM   20  C22 UNL     1      84.128  89.693 150.593  1.00  0.00     0.001 A 
HETATM   21  C23 UNL     1      84.825  90.870 150.508  1.00  0.00     0.010 A 
ENDBRANCH   3  16
ENDBRANCH   1   3
BRANCH   1  22
HETATM   22  O3  UNL     1      84.081  93.479 148.119  1.00  0.00    -0.320 OA
BRANCH  22  23
HETATM   23  C4  UNL     1      82.752  93.702 148.428  1.00  0.00     0.178 C 
BRANCH  23  24
HETATM   24  C5  UNL     1      82.181  92.702 149.400  1.00  0.00     0.028 C 
BRANCH  24  25
HETATM   25  C6  UNL     1      81.405  91.615 148.687  1.00  0.00     0.022 C 
BRANCH  25  26
HETATM   26  C7  UNL     1      80.660  90.715 149.626  1.00  0.00     0.130 C 
BRANCH  26  27
HETATM   27  N2  UNL     1      79.377  90.306 149.034  1.00  0.00    -0.344 N 
HETATM   28  C8  UNL     1      78.624  91.048 148.209  1.00  0.00     0.109 A 
HETATM   29  C9  UNL     1      77.496  90.341 147.856  1.00  0.00     0.106 A 
HETATM   30  N3  UNL     1      77.581  89.161 148.483  1.00  0.00    -0.352 N 
HETATM   31  C10 UNL     1      78.741  89.150 149.204  1.00  0.00     0.107 A 
ATOM     32  H3  UNL     1      76.900  88.404 148.430  1.00  0.00     0.166 HD
BRANCH  31  33
HETATM   33  C11 UNL     1      79.193  88.023 150.031  1.00  0.00     0.252 C 
BRANCH  33  34
HETATM   34  O4  UNL     1      80.040  87.137 149.322  1.00  0.00    -0.344 OA
BRANCH  34  35
HETATM   35  C12 UNL     1      81.128  86.578 149.955  1.00  0.00     0.069 A 
HETATM   36  C13 UNL     1      81.441  86.882 151.267  1.00  0.00     0.037 A 
HETATM   37  C14 UNL     1      82.536  86.308 151.877  1.00  0.00     0.003 A 
HETATM   38  C15 UNL     1      83.345  85.414 151.185  1.00  0.00     0.000 A 
HETATM   39  C16 UNL     1      83.023  85.120 149.879  1.00  0.00     0.003 A 
HETATM   40  C17 UNL     1      81.926  85.697 149.275  1.00  0.00     0.037 A 
ENDBRANCH  34  35
ENDBRANCH  33  34
ENDBRANCH  31  33
ENDBRANCH  26  27
ENDBRANCH  25  26
ENDBRANCH  24  25
ENDBRANCH  23  24
ENDBRANCH  22  23
ENDBRANCH   1  22
TORSDOF 15
ENDMDL
MODEL 5
REMARK VINA RESULT: -9.688336238      1.775      3.232
REMARK  15 active torsions:
REMARK  status: ('A' for Active; 'I' for Inactive)
REMARK       I    between atoms: C1_2  and  N1_3 
REMARK    1  A    between atoms: C1_2  and  O5_33 
REMARK    2  A    between atoms: N1_3  and  C2_5 
REMARK    3  A    between atoms: C2_5  and  C3_6 
REMARK    4  A    between atoms: C2_5  and  C18_27 
REMARK    5  A    between atoms: C3_6  and  O3_8 
REMARK    6  A    between atoms: O3_8  and  C4_9 
REMARK    7  A    between atoms: C4_9  and  C5_10 
REMARK    8  A    between atoms: C5_10  and  C6_11 
REMARK    9  A    between atoms: C6_11  and  C7_12 
REMARK   10  A    between atoms: C7_12  and  N2_13 
REMARK   11  A    between atoms: C10_18  and  C11_19 
REMARK   12  A    between atoms: C11_19  and  O4_20 
REMARK   13  A    between atoms: O4_20  and  C12_21 
REMARK   14  A    between atoms: O5_33  and  C24_34 
REMARK   15  A    between atoms: C24_34  and  C25_35 
ROOT
HETATM    1  C3  UNL     1      86.833  91.644 148.654  1.00  0.00     0.286 C 
HETATM    2  O2  UNL     1      86.525  91.369 149.830  1.00  0.00    -0.263 OA
ENDROOT
BRANCH   1   3
HETATM    3  C2  UNL     1      87.840  92.700 148.294  1.00  0.00     0.220 C 
BRANCH   3   4
HETATM    4  N1  UNL     1      88.914  92.748 149.249  1.00  0.00    -0.319 N 
HETATM    5  C1  UNL     1      90.246  92.867 148.794  1.00  0.00     0.361 C 
HETATM    6  O1  UNL     1      90.464  92.930 147.562  1.00  0.00    -0.238 OA
ATOM      7  H1  UNL     1      88.715  92.696 150.249  1.00  0.00     0.166 HD
BRANCH   5   8
HETATM    8  O5  UNL     1      91.343  92.922 149.639  1.00  0.00    -0.299 OA
BRANCH   8   9
HETATM    9  C24 UNL     1      92.645  93.270 149.282  1.00  0.00     0.219 C 
BRANCH   9  10
HETATM   10  C25 UNL     1      93.574  92.137 149.104  1.00  0.00    -0.034 A 
HETATM   11  C26 UNL     1      94.756  92.093 149.805  1.00  0.00     0.009 A 
HETATM   12  C27 UNL     1      95.648  91.026 149.640  1.00  0.00     0.001 A 
HETATM   13  C28 UNL     1      95.341  90.012 148.770  1.00  0.00     0.000 A 
HETATM   14  C29 UNL     1      94.165  90.051 148.070  1.00  0.00     0.001 A 
HETATM   15  C30 UNL     1      93.299  91.109 148.243  1.00  0.00     0.009 A 
ENDBRANCH   9  10
ENDBRANCH   8   9
ENDBRANCH   5   8
ENDBRANCH   3   4
BRANCH   3  16
HETATM   16  C18 UNL     1      87.175  94.019 148.132  1.00  0.00    -0.026 A 
HETATM   17  C19 UNL     1      86.225  94.428 149.042  1.00  0.00     0.010 A 
HETATM   18  C20 UNL     1      85.601  95.653 148.899  1.00  0.00     0.001 A 
HETATM   19  C21 UNL     1      85.926  96.477 147.845  1.00  0.00     0.000 A 
HETATM   20  C22 UNL     1      86.889  96.045 146.936  1.00  0.00     0.001 A 
HETATM   21  C23 UNL     1      87.510  94.831 147.073  1.00  0.00     0.010 A 
ENDBRANCH   3  16
ENDBRANCH   1   3
BRANCH   1  22
HETATM   22  O3  UNL     1      86.238  90.964 147.621  1.00  0.00    -0.320 OA
BRANCH  22  23
HETATM   23  C4  UNL     1      84.881  90.908 147.360  1.00  0.00     0.178 C 
BRANCH  23  24
HETATM   24  C5  UNL     1      84.232  92.263 147.236  1.00  0.00     0.028 C 
BRANCH  24  25
HETATM   25  C6  UNL     1      82.943  92.336 148.027  1.00  0.00     0.022 C 
BRANCH  25  26
HETATM   26  C7  UNL     1      83.140  92.092 149.492  1.00  0.00     0.130 C 
BRANCH  26  27
HETATM   27  N2  UNL     1      82.033  91.288 150.031  1.00  0.00    -0.344 N 
HETATM   28  C8  UNL     1      80.886  91.770 150.531  1.00  0.00     0.109 A 
HETATM   29  C9  UNL     1      80.086  90.725 150.940  1.00  0.00     0.106 A 
HETATM   30  N3  UNL     1      80.771  89.604 150.677  1.00  0.00    -0.352 N 
HETATM   31  C10 UNL     1      81.965  89.961 150.119  1.00  0.00     0.107 A 
ATOM     32  H3  UNL     1      80.456  88.652 150.862  1.00  0.00     0.166 HD
BRANCH  31  33
HETATM   33  C11 UNL     1      82.999  89.009 149.691  1.00  0.00     0.252 C 
BRANCH  33  34
HETATM   34  O4  UNL     1      82.490  87.699 149.517  1.00  0.00    -0.344 OA
BRANCH  34  35
HETATM   35  C12 UNL     1      83.024  86.657 150.240  1.00  0.00     0.069 A 
HETATM   36  C13 UNL     1      82.497  85.380 150.174  1.00  0.00     0.037 A 
HETATM   37  C14 UNL     1      83.052  84.354 150.909  1.00  0.00     0.003 A 
HETATM   38  C15 UNL     1      84.151  84.583 151.728  1.00  0.00     0.000 A 
HETATM   39  C16 UNL     1      84.667  85.859 151.786  1.00  0.00     0.003 A 
HETATM   40  C17 UNL     1      84.107  86.881 151.047  1.00  0.00     0.037 A 
ENDBRANCH  34  35
ENDBRANCH  33  34
ENDBRANCH  31  33
ENDBRANCH  26  27
ENDBRANCH  25  26
ENDBRANCH  24  25
ENDBRANCH  23  24
ENDBRANCH  22  23
ENDBRANCH   1  22
TORSDOF 15
ENDMDL
