MODEL 1
REMARK VINA RESULT: -9.800961112      0.000      0.000
REMARK  13 active torsions:
REMARK  status: ('A' for Active; 'I' for Inactive)
REMARK    1  A    between atoms: N2_5  and  C4_6 
REMARK    2  A    between atoms: C7_9  and  N3_10 
REMARK    3  A    between atoms: N4_12  and  C8_14 
REMARK    4  A    between atoms: C11_17  and  O1_18 
REMARK    5  A    between atoms: O1_18  and  C12_19 
REMARK    6  A    between atoms: C12_19  and  C13_20 
REMARK       I    between atoms: C13_20  and  N5_22 
REMARK    7  A    between atoms: N5_22  and  C14_24 
REMARK    8  A    between atoms: C14_24  and  C15_25 
REMARK    9  A    between atoms: C15_25  and  C16_26 
REMARK   10  A    between atoms: C16_26  and  C17_27 
REMARK   11  A    between atoms: C17_27  and  C18_28 
REMARK   12  A    between atoms: C18_28  and  C19_29 
REMARK   13  A    between atoms: C19_29  and  C20_30 
ROOT
HETATM    1  C8  UNL     1      87.939  93.694 148.289  1.00  0.00     0.048 A 
HETATM    2  C9  UNL     1      87.596  93.094 149.477  1.00  0.00     0.034 A 
HETATM    3  C10 UNL     1      86.822  91.960 149.591  1.00  0.00     0.039 A 
HETATM    4  C11 UNL     1      86.336  91.355 148.421  1.00  0.00     0.069 A 
HETATM    5  C25 UNL     1      86.667  91.936 147.225  1.00  0.00     0.039 A 
HETATM    6  C26 UNL     1      87.440  93.065 147.140  1.00  0.00     0.034 A 
ENDROOT
BRANCH   1   7
HETATM    7  N4  UNL     1      88.705  94.854 148.130  1.00  0.00    -0.300 N 
HETATM    8  N3  UNL     1      89.900  94.964 148.203  1.00  0.00    -0.300 N 
ATOM      9  H3  UNL     1      90.208  95.923 148.046  1.00  0.00     0.187 HD
ATOM     10  H4  UNL     1      88.188  95.710 147.927  1.00  0.00     0.187 HD
BRANCH   8  11
HETATM   11  C7  UNL     1      90.970  94.098 148.452  1.00  0.00     0.048 A 
HETATM   12  C6  UNL     1      91.704  94.142 149.640  1.00  0.00     0.033 A 
HETATM   13  C5  UNL     1      92.769  93.304 149.873  1.00  0.00     0.031 A 
HETATM   14  C4  UNL     1      93.184  92.354 148.933  1.00  0.00     0.030 A 
HETATM   15  C28 UNL     1      92.446  92.317 147.753  1.00  0.00     0.031 A 
HETATM   16  C27 UNL     1      91.374  93.166 147.527  1.00  0.00     0.033 A 
BRANCH  14  17
HETATM   17  N2  UNL     1      94.294  91.526 149.177  1.00  0.00    -0.378 N 
HETATM   18  C3  UNL     1      95.064  91.641 150.388  1.00  0.00     0.142 C 
HETATM   19  C2  UNL     1      96.509  91.410 150.032  1.00  0.00     0.136 C 
HETATM   20  N1  UNL     1      96.852  91.606 148.673  1.00  0.00    -0.414 N 
HETATM   21  C1  UNL     1      98.180  91.941 148.357  1.00  0.00     0.143 C 
HETATM   22  C30 UNL     1      96.119  90.817 147.730  1.00  0.00     0.136 C 
HETATM   23  C29 UNL     1      94.716  90.521 148.232  1.00  0.00     0.142 C 
ENDBRANCH  14  17
ENDBRANCH   8  11
ENDBRANCH   1   7
BRANCH   4  24
HETATM   24  O1  UNL     1      85.574  90.235 148.506  1.00  0.00    -0.342 OA
BRANCH  24  25
HETATM   25  C12 UNL     1      84.318  89.996 148.008  1.00  0.00     0.278 C 
BRANCH  25  26
HETATM   26  C13 UNL     1      83.204  90.777 148.562  1.00  0.00     0.241 C 
HETATM   27  O2  UNL     1      82.568  91.527 147.731  1.00  0.00    -0.271 OA
HETATM   28  N5  UNL     1      82.824  90.724 149.916  1.00  0.00    -0.359 N 
ATOM     29  H5  UNL     1      83.349  90.127 150.555  1.00  0.00     0.162 HD
BRANCH  28  30
HETATM   30  C14 UNL     1      81.721  91.486 150.422  1.00  0.00     0.122 C 
BRANCH  30  31
HETATM   31  C15 UNL     1      80.586  90.742 151.010  1.00  0.00     0.020 C 
BRANCH  31  32
HETATM   32  C16 UNL     1      80.450  89.371 150.438  1.00  0.00     0.002 C 
BRANCH  32  33
HETATM   33  C17 UNL     1      80.444  88.268 151.484  1.00  0.00     0.000 C 
BRANCH  33  34
HETATM   34  C18 UNL     1      80.930  86.949 150.930  1.00  0.00     0.000 C 
BRANCH  34  35
HETATM   35  C19 UNL     1      81.921  87.150 149.809  1.00  0.00     0.004 C 
BRANCH  35  36
HETATM   36  C20 UNL     1      83.223  86.427 150.058  1.00  0.00    -0.014 C 
HETATM   37  C21 UNL     1      83.996  87.040 151.205  1.00  0.00     0.004 C 
HETATM   38  C22 UNL     1      84.946  85.935 151.591  1.00  0.00     0.000 C 
HETATM   39  C23 UNL     1      84.014  84.723 151.598  1.00  0.00     0.000 C 
HETATM   40  C24 UNL     1      82.936  85.033 150.572  1.00  0.00     0.004 C 
ENDBRANCH  35  36
ENDBRANCH  34  35
ENDBRANCH  33  34
ENDBRANCH  32  33
ENDBRANCH  31  32
ENDBRANCH  30  31
ENDBRANCH  28  30
ENDBRANCH  25  26
ENDBRANCH  24  25
ENDBRANCH   4  24
TORSDOF 13
ENDMDL
MODEL 2
REMARK VINA RESULT: -9.765704081      1.188      1.758
REMARK  13 active torsions:
REMARK  status: ('A' for Active; 'I' for Inactive)
REMARK    1  A    between atoms: N2_5  and  C4_6 
REMARK    2  A    between atoms: C7_9  and  N3_10 
REMARK    3  A    between atoms: N4_12  and  C8_14 
REMARK    4  A    between atoms: C11_17  and  O1_18 
REMARK    5  A    between atoms: O1_18  and  C12_19 
REMARK    6  A    between atoms: C12_19  and  C13_20 
REMARK       I    between atoms: C13_20  and  N5_22 
REMARK    7  A    between atoms: N5_22  and  C14_24 
REMARK    8  A    between atoms: C14_24  and  C15_25 
REMARK    9  A    between atoms: C15_25  and  C16_26 
REMARK   10  A    between atoms: C16_26  and  C17_27 
REMARK   11  A    between atoms: C17_27  and  C18_28 
REMARK   12  A    between atoms: C18_28  and  C19_29 
REMARK   13  A    between atoms: C19_29  and  C20_30 
ROOT
HETATM    1  C8  UNL     1      87.574  94.349 147.587  1.00  0.00     0.048 A 
HETATM    2  C9  UNL     1      87.983  93.036 147.595  1.00  0.00     0.034 A 
HETATM    3  C10 UNL     1      87.143  91.950 147.482  1.00  0.00     0.039 A 
HETATM    4  C11 UNL     1      85.764  92.175 147.348  1.00  0.00     0.069 A 
HETATM    5  C25 UNL     1      85.335  93.476 147.336  1.00  0.00     0.039 A 
HETATM    6  C26 UNL     1      86.192  94.539 147.450  1.00  0.00     0.034 A 
ENDROOT
BRANCH   1   7
HETATM    7  N4  UNL     1      88.389  95.478 147.718  1.00  0.00    -0.300 N 
HETATM    8  N3  UNL     1      89.561  95.515 147.984  1.00  0.00    -0.300 N 
ATOM      9  H3  UNL     1      89.918  96.470 148.018  1.00  0.00     0.187 HD
ATOM     10  H4  UNL     1      87.935  96.380 147.569  1.00  0.00     0.187 HD
BRANCH   8  11
HETATM   11  C7  UNL     1      90.554  94.569 148.258  1.00  0.00     0.048 A 
HETATM   12  C6  UNL     1      91.119  93.770 147.260  1.00  0.00     0.033 A 
HETATM   13  C5  UNL     1      92.080  92.826 147.536  1.00  0.00     0.031 A 
HETATM   14  C4  UNL     1      92.554  92.607 148.834  1.00  0.00     0.030 A 
HETATM   15  C28 UNL     1      91.986  93.409 149.822  1.00  0.00     0.031 A 
HETATM   16  C27 UNL     1      91.018  94.357 149.534  1.00  0.00     0.033 A 
BRANCH  14  17
HETATM   17  N2  UNL     1      93.516  91.617 149.101  1.00  0.00    -0.378 N 
HETATM   18  C3  UNL     1      94.816  91.956 149.617  1.00  0.00     0.142 C 
HETATM   19  C2  UNL     1      95.815  91.028 148.976  1.00  0.00     0.136 C 
HETATM   20  N1  UNL     1      95.409  90.420 147.764  1.00  0.00    -0.414 N 
HETATM   21  C1  UNL     1      96.397  90.006 146.855  1.00  0.00     0.143 C 
HETATM   22  C30 UNL     1      94.200  89.657 147.830  1.00  0.00     0.136 C 
HETATM   23  C29 UNL     1      93.250  90.218 148.875  1.00  0.00     0.142 C 
ENDBRANCH  14  17
ENDBRANCH   8  11
ENDBRANCH   1   7
BRANCH   4  24
HETATM   24  O1  UNL     1      84.916  91.122 147.232  1.00  0.00    -0.342 OA
BRANCH  24  25
HETATM   25  C12 UNL     1      84.727  90.058 148.077  1.00  0.00     0.278 C 
BRANCH  25  26
HETATM   26  C13 UNL     1      83.949  90.289 149.302  1.00  0.00     0.241 C 
HETATM   27  O2  UNL     1      84.628  90.503 150.374  1.00  0.00    -0.271 OA
HETATM   28  N5  UNL     1      82.542  90.289 149.332  1.00  0.00    -0.359 N 
ATOM     29  H5  UNL     1      82.027  90.109 148.470  1.00  0.00     0.162 HD
BRANCH  28  30
HETATM   30  C14 UNL     1      81.812  90.535 150.541  1.00  0.00     0.122 C 
BRANCH  30  31
HETATM   31  C15 UNL     1      80.680  89.637 150.853  1.00  0.00     0.020 C 
BRANCH  31  32
HETATM   32  C16 UNL     1      80.267  88.816 149.678  1.00  0.00     0.002 C 
BRANCH  32  33
HETATM   33  C17 UNL     1      80.150  87.330 149.980  1.00  0.00     0.000 C 
BRANCH  33  34
HETATM   34  C18 UNL     1      80.898  86.481 148.978  1.00  0.00     0.000 C 
BRANCH  34  35
HETATM   35  C19 UNL     1      82.391  86.568 149.181  1.00  0.00     0.004 C 
BRANCH  35  36
HETATM   36  C20 UNL     1      82.810  86.105 150.557  1.00  0.00    -0.014 C 
HETATM   37  C21 UNL     1      83.396  84.710 150.527  1.00  0.00     0.004 C 
HETATM   38  C22 UNL     1      84.165  84.647 151.822  1.00  0.00     0.000 C 
HETATM   39  C23 UNL     1      84.887  85.994 151.811  1.00  0.00     0.000 C 
HETATM   40  C24 UNL     1      83.981  86.935 151.034  1.00  0.00     0.004 C 
ENDBRANCH  35  36
ENDBRANCH  34  35
ENDBRANCH  33  34
ENDBRANCH  32  33
ENDBRANCH  31  32
ENDBRANCH  30  31
ENDBRANCH  28  30
ENDBRANCH  25  26
ENDBRANCH  24  25
ENDBRANCH   4  24
TORSDOF 13
ENDMDL
MODEL 3
REMARK VINA RESULT: -9.681932182      1.661      3.011
REMARK  13 active torsions:
REMARK  status: ('A' for Active; 'I' for Inactive)
REMARK    1  A    between atoms: N2_5  and  C4_6 
REMARK    2  A    between atoms: C7_9  and  N3_10 
REMARK    3  A    between atoms: N4_12  and  C8_14 
REMARK    4  A    between atoms: C11_17  and  O1_18 
REMARK    5  A    between atoms: O1_18  and  C12_19 
REMARK    6  A    between atoms: C12_19  and  C13_20 
REMARK       I    between atoms: C13_20  and  N5_22 
REMARK    7  A    between atoms: N5_22  and  C14_24 
REMARK    8  A    between atoms: C14_24  and  C15_25 
REMARK    9  A    between atoms: C15_25  and  C16_26 
REMARK   10  A    between atoms: C16_26  and  C17_27 
REMARK   11  A    between atoms: C17_27  and  C18_28 
REMARK   12  A    between atoms: C18_28  and  C19_29 
REMARK   13  A    between atoms: C19_29  and  C20_30 
ROOT
HETATM    1  C8  UNL     1      87.784  93.739 148.160  1.00  0.00     0.048 A 
HETATM    2  C9  UNL     1      87.695  93.054 149.348  1.00  0.00     0.034 A 
HETATM    3  C10 UNL     1      86.890  91.957 149.565  1.00  0.00     0.039 A 
HETATM    4  C11 UNL     1      86.094  91.486 148.508  1.00  0.00     0.069 A 
HETATM    5  C25 UNL     1      86.169  92.153 147.314  1.00  0.00     0.039 A 
HETATM    6  C26 UNL     1      86.979  93.243 147.126  1.00  0.00     0.034 A 
ENDROOT
BRANCH   1   7
HETATM    7  N4  UNL     1      88.572  94.867 147.903  1.00  0.00    -0.300 N 
HETATM    8  N3  UNL     1      89.770  94.953 147.945  1.00  0.00    -0.300 N 
ATOM      9  H3  UNL     1      90.096  95.892 147.714  1.00  0.00     0.187 HD
ATOM     10  H4  UNL     1      88.070  95.718 147.650  1.00  0.00     0.187 HD
BRANCH   8  11
HETATM   11  C7  UNL     1      90.827  94.083 148.234  1.00  0.00     0.048 A 
HETATM   12  C6  UNL     1      91.613  94.220 149.381  1.00  0.00     0.033 A 
HETATM   13  C5  UNL     1      92.664  93.375 149.651  1.00  0.00     0.031 A 
HETATM   14  C4  UNL     1      93.011  92.325 148.794  1.00  0.00     0.030 A 
HETATM   15  C28 UNL     1      92.220  92.195 147.655  1.00  0.00     0.031 A 
HETATM   16  C27 UNL     1      91.163  93.051 147.391  1.00  0.00     0.033 A 
BRANCH  14  17
HETATM   17  N2  UNL     1      94.107  91.490 149.072  1.00  0.00    -0.378 N 
HETATM   18  C3  UNL     1      94.845  91.607 150.303  1.00  0.00     0.142 C 
HETATM   19  C2  UNL     1      96.297  91.362 149.987  1.00  0.00     0.136 C 
HETATM   20  N1  UNL     1      96.678  91.547 148.637  1.00  0.00    -0.414 N 
HETATM   21  C1  UNL     1      98.016  91.869 148.354  1.00  0.00     0.143 C 
HETATM   22  C30 UNL     1      95.965  90.758 147.679  1.00  0.00     0.136 C 
HETATM   23  C29 UNL     1      94.547  90.475 148.146  1.00  0.00     0.142 C 
ENDBRANCH  14  17
ENDBRANCH   8  11
ENDBRANCH   1   7
BRANCH   4  24
HETATM   24  O1  UNL     1      85.295  90.404 148.695  1.00  0.00    -0.342 OA
BRANCH  24  25
HETATM   25  C12 UNL     1      83.933  90.295 148.566  1.00  0.00     0.278 C 
BRANCH  25  26
HETATM   26  C13 UNL     1      83.257  89.244 149.339  1.00  0.00     0.241 C 
HETATM   27  O2  UNL     1      81.985  89.376 149.483  1.00  0.00    -0.271 OA
HETATM   28  N5  UNL     1      83.932  88.142 149.895  1.00  0.00    -0.359 N 
ATOM     29  H5  UNL     1      84.942  88.065 149.773  1.00  0.00     0.162 HD
BRANCH  28  30
HETATM   30  C14 UNL     1      83.240  87.124 150.630  1.00  0.00     0.122 C 
BRANCH  30  31
HETATM   31  C15 UNL     1      84.042  86.249 151.511  1.00  0.00     0.020 C 
BRANCH  31  32
HETATM   32  C16 UNL     1      83.880  84.805 151.175  1.00  0.00     0.002 C 
BRANCH  32  33
HETATM   33  C17 UNL     1      83.034  84.554 149.936  1.00  0.00     0.000 C 
BRANCH  33  34
HETATM   34  C18 UNL     1      81.862  83.643 150.216  1.00  0.00     0.000 C 
BRANCH  34  35
HETATM   35  C19 UNL     1      80.579  84.422 150.378  1.00  0.00     0.004 C 
BRANCH  35  36
HETATM   36  C20 UNL     1      79.856  84.615 149.066  1.00  0.00    -0.014 C 
HETATM   37  C21 UNL     1      78.373  84.349 149.197  1.00  0.00     0.004 C 
HETATM   38  C22 UNL     1      77.804  85.046 147.987  1.00  0.00     0.000 C 
HETATM   39  C23 UNL     1      78.550  86.380 148.029  1.00  0.00     0.000 C 
HETATM   40  C24 UNL     1      79.888  86.078 148.682  1.00  0.00     0.004 C 
ENDBRANCH  35  36
ENDBRANCH  34  35
ENDBRANCH  33  34
ENDBRANCH  32  33
ENDBRANCH  31  32
ENDBRANCH  30  31
ENDBRANCH  28  30
ENDBRANCH  25  26
ENDBRANCH  24  25
ENDBRANCH   4  24
TORSDOF 13
ENDMDL
MODEL 4
REMARK VINA RESULT: -9.627843045      1.505      2.777
REMARK  13 active torsions:
REMARK  status: ('A' for Active; 'I' for Inactive)
REMARK    1  A    between atoms: N2_5  and  C4_6 
REMARK    2  A    between atoms: C7_9  and  N3_10 
REMARK    3  A    between atoms: N4_12  and  C8_14 
REMARK    4  A    between atoms: C11_17  and  O1_18 
REMARK    5  A    between atoms: O1_18  and  C12_19 
REMARK    6  A    between atoms: C12_19  and  C13_20 
REMARK       I    between atoms: C13_20  and  N5_22 
REMARK    7  A    between atoms: N5_22  and  C14_24 
REMARK    8  A    between atoms: C14_24  and  C15_25 
REMARK    9  A    between atoms: C15_25  and  C16_26 
REMARK   10  A    between atoms: C16_26  and  C17_27 
REMARK   11  A    between atoms: C17_27  and  C18_28 
REMARK   12  A    between atoms: C18_28  and  C19_29 
REMARK   13  A    between atoms: C19_29  and  C20_30 
ROOT
HETATM    1  C8  UNL     1      87.813  94.443 148.054  1.00  0.00     0.048 A 
HETATM    2  C9  UNL     1      87.830  93.358 148.899  1.00  0.00     0.034 A 
HETATM    3  C10 UNL     1      86.947  92.303 148.842  1.00  0.00     0.039 A 
HETATM    4  C11 UNL     1      85.946  92.314 147.857  1.00  0.00     0.069 A 
HETATM    5  C25 UNL     1      85.911  93.385 147.003  1.00  0.00     0.039 A 
HETATM    6  C26 UNL     1      86.803  94.423 147.082  1.00  0.00     0.034 A 
ENDROOT
BRANCH   1   7
HETATM    7  N4  UNL     1      88.678  95.542 148.089  1.00  0.00    -0.300 N 
HETATM    8  N3  UNL     1      89.870  95.537 148.235  1.00  0.00    -0.300 N 
ATOM      9  H3  UNL     1      90.263  96.479 148.223  1.00  0.00     0.187 HD
ATOM     10  H4  UNL     1      88.243  96.459 147.977  1.00  0.00     0.187 HD
BRANCH   8  11
HETATM   11  C7  UNL     1      90.851  94.557 148.418  1.00  0.00     0.048 A 
HETATM   12  C6  UNL     1      91.200  93.655 147.410  1.00  0.00     0.033 A 
HETATM   13  C5  UNL     1      92.150  92.679 147.600  1.00  0.00     0.031 A 
HETATM   14  C4  UNL     1      92.828  92.529 148.816  1.00  0.00     0.030 A 
HETATM   15  C28 UNL     1      92.474  93.434 149.813  1.00  0.00     0.031 A 
HETATM   16  C27 UNL     1      91.515  94.414 149.613  1.00  0.00     0.033 A 
BRANCH  14  17
HETATM   17  N2  UNL     1      93.775  91.507 149.001  1.00  0.00    -0.378 N 
HETATM   18  C3  UNL     1      95.139  91.803 149.352  1.00  0.00     0.142 C 
HETATM   19  C2  UNL     1      96.019  90.816 148.629  1.00  0.00     0.136 C 
HETATM   20  N1  UNL     1      95.450  90.195 147.492  1.00  0.00    -0.414 N 
HETATM   21  C1  UNL     1      96.309  89.715 146.488  1.00  0.00     0.143 C 
HETATM   22  C30 UNL     1      94.228  89.486 147.721  1.00  0.00     0.136 C 
HETATM   23  C29 UNL     1      93.430  90.114 148.851  1.00  0.00     0.142 C 
ENDBRANCH  14  17
ENDBRANCH   8  11
ENDBRANCH   1   7
BRANCH   4  24
HETATM   24  O1  UNL     1      85.065  91.284 147.777  1.00  0.00    -0.342 OA
BRANCH  24  25
HETATM   25  C12 UNL     1      83.730  91.253 148.095  1.00  0.00     0.278 C 
BRANCH  25  26
HETATM   26  C13 UNL     1      83.309  90.361 149.183  1.00  0.00     0.241 C 
HETATM   27  O2  UNL     1      82.762  90.927 150.202  1.00  0.00    -0.271 OA
HETATM   28  N5  UNL     1      83.472  88.963 149.141  1.00  0.00    -0.359 N 
ATOM     29  H5  UNL     1      83.915  88.540 148.325  1.00  0.00     0.162 HD
BRANCH  28  30
HETATM   30  C14 UNL     1      83.034  88.118 150.212  1.00  0.00     0.122 C 
BRANCH  30  31
HETATM   31  C15 UNL     1      84.007  87.155 150.768  1.00  0.00     0.020 C 
BRANCH  31  32
HETATM   32  C16 UNL     1      83.361  86.144 151.654  1.00  0.00     0.002 C 
BRANCH  32  33
HETATM   33  C17 UNL     1      83.590  84.706 151.214  1.00  0.00     0.000 C 
BRANCH  33  34
HETATM   34  C18 UNL     1      82.878  84.382 149.921  1.00  0.00     0.000 C 
BRANCH  34  35
HETATM   35  C19 UNL     1      81.659  83.524 150.158  1.00  0.00     0.004 C 
BRANCH  35  36
HETATM   36  C20 UNL     1      80.372  84.290 149.959  1.00  0.00    -0.014 C 
HETATM   37  C21 UNL     1      79.931  84.989 151.226  1.00  0.00     0.004 C 
HETATM   38  C22 UNL     1      78.976  86.035 150.711  1.00  0.00     0.000 C 
HETATM   39  C23 UNL     1      79.757  86.598 149.524  1.00  0.00     0.000 C 
HETATM   40  C24 UNL     1      80.616  85.450 149.020  1.00  0.00     0.004 C 
ENDBRANCH  35  36
ENDBRANCH  34  35
ENDBRANCH  33  34
ENDBRANCH  32  33
ENDBRANCH  31  32
ENDBRANCH  30  31
ENDBRANCH  28  30
ENDBRANCH  25  26
ENDBRANCH  24  25
ENDBRANCH   4  24
TORSDOF 13
ENDMDL
MODEL 5
REMARK VINA RESULT: -9.511872576      1.896      3.248
REMARK  13 active torsions:
REMARK  status: ('A' for Active; 'I' for Inactive)
REMARK    1  A    between atoms: N2_5  and  C4_6 
REMARK    2  A    between atoms: C7_9  and  N3_10 
REMARK    3  A    between atoms: N4_12  and  C8_14 
REMARK    4  A    between atoms: C11_17  and  O1_18 
REMARK    5  A    between atoms: O1_18  and  C12_19 
REMARK    6  A    between atoms: C12_19  and  C13_20 
REMARK       I    between atoms: C13_20  and  N5_22 
REMARK    7  A    between atoms: N5_22  and  C14_24 
REMARK    8  A    between atoms: C14_24  and  C15_25 
REMARK    9  A    between atoms: C15_25  and  C16_26 
REMARK   10  A    between atoms: C16_26  and  C17_27 
REMARK   11  A    between atoms: C17_27  and  C18_28 
REMARK   12  A    between atoms: C18_28  and  C19_29 
REMARK   13  A    between atoms: C19_29  and  C20_30 
ROOT
HETATM    1  C8  UNL     1      87.213  93.816 148.258  1.00  0.00     0.048 A 
HETATM    2  C9  UNL     1      86.963  93.141 149.429  1.00  0.00     0.034 A 
HETATM    3  C10 UNL     1      86.198  92.000 149.531  1.00  0.00     0.039 A 
HETATM    4  C11 UNL     1      85.622  91.469 148.366  1.00  0.00     0.069 A 
HETATM    5  C25 UNL     1      85.860  92.125 147.187  1.00  0.00     0.039 A 
HETATM    6  C26 UNL     1      86.626  93.260 147.114  1.00  0.00     0.034 A 
ENDROOT
BRANCH   1   7
HETATM    7  N4  UNL     1      87.967  94.986 148.114  1.00  0.00    -0.300 N 
HETATM    8  N3  UNL     1      89.161  95.107 148.180  1.00  0.00    -0.300 N 
ATOM      9  H3  UNL     1      89.459  96.072 148.038  1.00  0.00     0.187 HD
ATOM     10  H4  UNL     1      87.440  95.840 147.931  1.00  0.00     0.187 HD
BRANCH   8  11
HETATM   11  C7  UNL     1      90.242  94.247 148.404  1.00  0.00     0.048 A 
HETATM   12  C6  UNL     1      90.588  93.235 147.505  1.00  0.00     0.033 A 
HETATM   13  C5  UNL     1      91.639  92.379 147.739  1.00  0.00     0.031 A 
HETATM   14  C4  UNL     1      92.427  92.468 148.892  1.00  0.00     0.030 A 
HETATM   15  C28 UNL     1      92.075  93.481 149.780  1.00  0.00     0.031 A 
HETATM   16  C27 UNL     1      91.015  94.339 149.537  1.00  0.00     0.033 A 
BRANCH  14  17
HETATM   17  N2  UNL     1      93.478  91.565 149.127  1.00  0.00    -0.378 N 
HETATM   18  C3  UNL     1      94.779  92.020 149.541  1.00  0.00     0.142 C 
HETATM   19  C2  UNL     1      95.803  91.145 148.867  1.00  0.00     0.136 C 
HETATM   20  N1  UNL     1      95.367  90.461 147.707  1.00  0.00    -0.414 N 
HETATM   21  C1  UNL     1      96.324  90.086 146.748  1.00  0.00     0.143 C 
HETATM   22  C30 UNL     1      94.228  89.612 147.880  1.00  0.00     0.136 C 
HETATM   23  C29 UNL     1      93.308  90.141 148.968  1.00  0.00     0.142 C 
ENDBRANCH  14  17
ENDBRANCH   8  11
ENDBRANCH   1   7
BRANCH   4  24
HETATM   24  O1  UNL     1      84.866  90.343 148.438  1.00  0.00    -0.342 OA
BRANCH  24  25
HETATM   25  C12 UNL     1      83.504  90.213 148.543  1.00  0.00     0.278 C 
BRANCH  25  26
HETATM   26  C13 UNL     1      82.984  89.196 149.466  1.00  0.00     0.241 C 
HETATM   27  O2  UNL     1      81.720  89.239 149.704  1.00  0.00    -0.271 OA
HETATM   28  N5  UNL     1      83.795  88.214 150.065  1.00  0.00    -0.359 N 
ATOM     29  H5  UNL     1      84.795  88.206 149.866  1.00  0.00     0.162 HD
BRANCH  28  30
HETATM   30  C14 UNL     1      83.253  87.223 150.949  1.00  0.00     0.122 C 
BRANCH  30  31
HETATM   31  C15 UNL     1      84.168  86.174 151.446  1.00  0.00     0.020 C 
BRANCH  31  32
HETATM   32  C16 UNL     1      83.643  84.800 151.198  1.00  0.00     0.002 C 
BRANCH  32  33
HETATM   33  C17 UNL     1      82.957  84.640 149.851  1.00  0.00     0.000 C 
BRANCH  33  34
HETATM   34  C18 UNL     1      81.754  83.728 149.925  1.00  0.00     0.000 C 
BRANCH  34  35
HETATM   35  C19 UNL     1      80.682  84.295 150.824  1.00  0.00     0.004 C 
BRANCH  35  36
HETATM   36  C20 UNL     1      79.526  84.874 150.043  1.00  0.00    -0.014 C 
HETATM   37  C21 UNL     1      79.560  84.451 148.591  1.00  0.00     0.004 C 
HETATM   38  C22 UNL     1      78.142  84.698 148.142  1.00  0.00     0.000 C 
HETATM   39  C23 UNL     1      77.349  84.095 149.300  1.00  0.00     0.000 C 
HETATM   40  C24 UNL     1      78.231  84.258 150.527  1.00  0.00     0.004 C 
ENDBRANCH  35  36
ENDBRANCH  34  35
ENDBRANCH  33  34
ENDBRANCH  32  33
ENDBRANCH  31  32
ENDBRANCH  30  31
ENDBRANCH  28  30
ENDBRANCH  25  26
ENDBRANCH  24  25
ENDBRANCH   4  24
TORSDOF 13
ENDMDL
