MODEL 1
REMARK VINA RESULT: -8.956674809      0.000      0.000
REMARK  14 active torsions:
REMARK  status: ('A' for Active; 'I' for Inactive)
REMARK    1  A    between atoms: C2_2  and  C3_3 
REMARK    2  A    between atoms: C3_3  and  C4_4 
REMARK    3  A    between atoms: C4_4  and  N1_5 
REMARK    4  A    between atoms: C5_7  and  N2_8 
REMARK    5  A    between atoms: C5_7  and  C7_12 
REMARK    6  A    between atoms: C10_15  and  C11_16 
REMARK    7  A    between atoms: C11_16  and  N4_17 
REMARK    8  A    between atoms: N4_17  and  C12_18 
REMARK    9  A    between atoms: N4_17  and  C21_28 
REMARK   10  A    between atoms: C12_18  and  C13_19 
REMARK   11  A    between atoms: C13_19  and  C14_20 
REMARK   12  A    between atoms: C14_20  and  O1_21 
REMARK   13  A    between atoms: O1_21  and  C15_22 
REMARK   14  A    between atoms: C22_31  and  C23_32 
ROOT
HETATM    1  N2  UNL     1      82.060  88.470 150.552  1.00  0.00    -0.279 N 
ATOM      2  H2  UNL     1      81.688  89.171 151.194  1.00  0.00     0.179 HD
HETATM    3  C6  UNL     1      81.195  87.683 149.810  1.00  0.00     0.183 C 
HETATM    4  N3  UNL     1      80.450  87.029 149.181  1.00  0.00    -0.172 NA
ENDROOT
BRANCH   1   5
HETATM    5  C5  UNL     1      83.458  88.305 150.420  1.00  0.00     0.120 C 
HETATM    6  N1  UNL     1      83.975  87.248 150.908  1.00  0.00    -0.375 N 
ATOM      7  H1  UNL     1      84.984  87.133 150.811  1.00  0.00     0.161 HD
BRANCH   6   8
HETATM    8  C4  UNL     1      83.258  86.213 151.578  1.00  0.00     0.121 C 
BRANCH   8   9
HETATM    9  C3  UNL     1      83.661  84.836 151.183  1.00  0.00     0.019 C 
BRANCH   9  10
HETATM   10  C2  UNL     1      82.959  84.438 149.918  1.00  0.00    -0.003 C 
HETATM   11  C1  UNL     1      81.682  83.684 150.107  1.00  0.00     0.005 C 
ENDBRANCH   9  10
ENDBRANCH   8   9
ENDBRANCH   6   8
BRANCH   5  12
HETATM   12  C7  UNL     1      84.240  89.337 149.731  1.00  0.00     0.008 A 
HETATM   13  C8  UNL     1      84.241  89.372 148.343  1.00  0.00     0.016 A 
HETATM   14  C9  UNL     1      84.957  90.322 147.657  1.00  0.00     0.014 A 
HETATM   15  C10 UNL     1      85.723  91.303 148.314  1.00  0.00    -0.021 A 
HETATM   16  C29 UNL     1      85.718  91.262 149.681  1.00  0.00     0.014 A 
HETATM   17  C30 UNL     1      84.987  90.294 150.373  1.00  0.00     0.016 A 
BRANCH  15  18
HETATM   18  C11 UNL     1      86.496  92.282 147.519  1.00  0.00     0.104 C 
BRANCH  18  19
HETATM   19  N4  UNL     1      87.022  93.404 148.179  1.00  0.00    -0.337 N 
BRANCH  19  20
HETATM   20  C12 UNL     1      86.321  94.333 148.982  1.00  0.00     0.132 C 
BRANCH  20  21
HETATM   21  C13 UNL     1      85.192  95.100 148.341  1.00  0.00     0.047 C 
BRANCH  21  22
HETATM   22  C14 UNL     1      83.918  94.512 148.958  1.00  0.00     0.177 C 
BRANCH  22  23
HETATM   23  O1  UNL     1      83.383  93.517 148.143  1.00  0.00    -0.351 OA
BRANCH  23  24
HETATM   24  C15 UNL     1      82.356  92.730 148.666  1.00  0.00     0.068 A 
HETATM   25  C16 UNL     1      81.538  91.993 147.844  1.00  0.00     0.037 A 
HETATM   26  C17 UNL     1      80.530  91.217 148.351  1.00  0.00     0.003 A 
HETATM   27  C18 UNL     1      80.366  91.203 149.744  1.00  0.00     0.000 A 
HETATM   28  C19 UNL     1      81.192  91.946 150.568  1.00  0.00     0.003 A 
HETATM   29  C20 UNL     1      82.208  92.726 150.036  1.00  0.00     0.037 A 
ENDBRANCH  23  24
ENDBRANCH  22  23
ENDBRANCH  21  22
ENDBRANCH  20  21
ENDBRANCH  19  20
BRANCH  19  30
HETATM   30  C21 UNL     1      88.441  93.668 147.992  1.00  0.00     0.151 A 
HETATM   31  N5  UNL     1      89.468  92.865 148.071  1.00  0.00    -0.334 N 
HETATM   32  C22 UNL     1      90.671  93.314 147.881  1.00  0.00     0.067 A 
ATOM     33  H5  UNL     1      89.323  91.878 148.283  1.00  0.00     0.168 HD
HETATM   34  C28 UNL     1      90.807  94.650 147.599  1.00  0.00     0.085 A 
HETATM   35  S1  UNL     1      89.186  95.182 147.623  1.00  0.00    -0.063 SA
BRANCH  32  36
HETATM   36  C23 UNL     1      91.858  92.414 147.959  1.00  0.00     0.059 A 
HETATM   37  C24 UNL     1      92.755  92.516 148.971  1.00  0.00     0.032 A 
HETATM   38  C25 UNL     1      93.875  91.683 149.069  1.00  0.00     0.004 A 
HETATM   39  C26 UNL     1      94.036  90.741 148.082  1.00  0.00     0.017 A 
HETATM   40  C27 UNL     1      93.128  90.637 147.057  1.00  0.00     0.088 A 
HETATM   41  N6  UNL     1      92.081  91.462 147.023  1.00  0.00    -0.364 N 
ATOM     42  H6  UNL     1      91.417  91.373 146.254  1.00  0.00     0.165 HD
ENDBRANCH  32  36
ENDBRANCH  19  30
ENDBRANCH  18  19
ENDBRANCH  15  18
ENDBRANCH   5  12
ENDBRANCH   1   5
TORSDOF 14
ENDMDL
MODEL 2
REMARK VINA RESULT: -8.702180332      0.963      1.849
REMARK  14 active torsions:
REMARK  status: ('A' for Active; 'I' for Inactive)
REMARK    1  A    between atoms: C2_2  and  C3_3 
REMARK    2  A    between atoms: C3_3  and  C4_4 
REMARK    3  A    between atoms: C4_4  and  N1_5 
REMARK    4  A    between atoms: C5_7  and  N2_8 
REMARK    5  A    between atoms: C5_7  and  C7_12 
REMARK    6  A    between atoms: C10_15  and  C11_16 
REMARK    7  A    between atoms: C11_16  and  N4_17 
REMARK    8  A    between atoms: N4_17  and  C12_18 
REMARK    9  A    between atoms: N4_17  and  C21_28 
REMARK   10  A    between atoms: C12_18  and  C13_19 
REMARK   11  A    between atoms: C13_19  and  C14_20 
REMARK   12  A    between atoms: C14_20  and  O1_21 
REMARK   13  A    between atoms: O1_21  and  C15_22 
REMARK   14  A    between atoms: C22_31  and  C23_32 
ROOT
HETATM    1  N2  UNL     1      83.541  87.931 150.979  1.00  0.00    -0.279 N 
ATOM      2  H2  UNL     1      83.078  88.474 151.708  1.00  0.00     0.179 HD
HETATM    3  C6  UNL     1      84.304  86.826 151.319  1.00  0.00     0.183 C 
HETATM    4  N3  UNL     1      84.939  85.886 151.622  1.00  0.00    -0.172 NA
ENDROOT
BRANCH   1   5
HETATM    5  C5  UNL     1      83.403  88.306 149.623  1.00  0.00     0.120 C 
HETATM    6  N1  UNL     1      82.518  87.706 148.932  1.00  0.00    -0.375 N 
ATOM      7  H1  UNL     1      82.422  87.979 147.954  1.00  0.00     0.161 HD
BRANCH   6   8
HETATM    8  C4  UNL     1      81.648  86.683 149.415  1.00  0.00     0.121 C 
BRANCH   8   9
HETATM    9  C3  UNL     1      80.209  87.058 149.423  1.00  0.00     0.019 C 
BRANCH   9  10
HETATM   10  C2  UNL     1      79.459  86.246 148.408  1.00  0.00    -0.003 C 
HETATM   11  C1  UNL     1      79.477  84.769 148.632  1.00  0.00     0.005 C 
ENDBRANCH   9  10
ENDBRANCH   8   9
ENDBRANCH   6   8
BRANCH   5  12
HETATM   12  C7  UNL     1      84.267  89.360 149.079  1.00  0.00     0.008 A 
HETATM   13  C8  UNL     1      84.254  89.609 147.713  1.00  0.00     0.016 A 
HETATM   14  C9  UNL     1      85.044  90.587 147.162  1.00  0.00     0.014 A 
HETATM   15  C10 UNL     1      85.904  91.384 147.941  1.00  0.00    -0.021 A 
HETATM   16  C29 UNL     1      85.912  91.133 149.285  1.00  0.00     0.014 A 
HETATM   17  C30 UNL     1      85.106  90.137 149.840  1.00  0.00     0.016 A 
BRANCH  15  18
HETATM   18  C11 UNL     1      86.753  92.402 147.285  1.00  0.00     0.104 C 
BRANCH  18  19
HETATM   19  N4  UNL     1      87.259  93.450 148.070  1.00  0.00    -0.337 N 
BRANCH  19  20
HETATM   20  C12 UNL     1      86.529  94.316 148.916  1.00  0.00     0.132 C 
BRANCH  20  21
HETATM   21  C13 UNL     1      85.350  95.044 148.323  1.00  0.00     0.047 C 
BRANCH  21  22
HETATM   22  C14 UNL     1      84.126  94.452 149.031  1.00  0.00     0.177 C 
BRANCH  22  23
HETATM   23  O1  UNL     1      83.396  93.638 148.169  1.00  0.00    -0.351 OA
BRANCH  23  24
HETATM   24  C15 UNL     1      82.515  92.715 148.736  1.00  0.00     0.068 A 
HETATM   25  C16 UNL     1      82.540  92.446 150.083  1.00  0.00     0.037 A 
HETATM   26  C17 UNL     1      81.678  91.544 150.646  1.00  0.00     0.003 A 
HETATM   27  C18 UNL     1      80.767  90.904 149.792  1.00  0.00     0.000 A 
HETATM   28  C19 UNL     1      80.745  91.177 148.437  1.00  0.00     0.003 A 
HETATM   29  C20 UNL     1      81.627  92.095 147.885  1.00  0.00     0.037 A 
ENDBRANCH  23  24
ENDBRANCH  22  23
ENDBRANCH  21  22
ENDBRANCH  20  21
ENDBRANCH  19  20
BRANCH  19  30
HETATM   30  C21 UNL     1      88.690  93.702 147.984  1.00  0.00     0.151 A 
HETATM   31  N5  UNL     1      89.699  92.876 148.052  1.00  0.00    -0.334 N 
HETATM   32  C22 UNL     1      90.917  93.316 147.966  1.00  0.00     0.067 A 
ATOM     33  H5  UNL     1      89.529  91.878 148.175  1.00  0.00     0.168 HD
HETATM   34  C28 UNL     1      91.087  94.668 147.802  1.00  0.00     0.085 A 
HETATM   35  S1  UNL     1      89.475  95.226 147.781  1.00  0.00    -0.063 SA
BRANCH  32  36
HETATM   36  C23 UNL     1      92.085  92.391 148.035  1.00  0.00     0.059 A 
HETATM   37  C24 UNL     1      93.006  92.491 149.025  1.00  0.00     0.032 A 
HETATM   38  C25 UNL     1      94.109  91.635 149.113  1.00  0.00     0.004 A 
HETATM   39  C26 UNL     1      94.227  90.671 148.141  1.00  0.00     0.017 A 
HETATM   40  C27 UNL     1      93.294  90.570 147.138  1.00  0.00     0.088 A 
HETATM   41  N6  UNL     1      92.266  91.418 147.112  1.00  0.00    -0.364 N 
ATOM     42  H6  UNL     1      91.583  91.330 146.359  1.00  0.00     0.165 HD
ENDBRANCH  32  36
ENDBRANCH  19  30
ENDBRANCH  18  19
ENDBRANCH  15  18
ENDBRANCH   5  12
ENDBRANCH   1   5
TORSDOF 14
ENDMDL
MODEL 3
REMARK VINA RESULT: -8.625541778      2.850      9.933
REMARK  14 active torsions:
REMARK  status: ('A' for Active; 'I' for Inactive)
REMARK    1  A    between atoms: C2_2  and  C3_3 
REMARK    2  A    between atoms: C3_3  and  C4_4 
REMARK    3  A    between atoms: C4_4  and  N1_5 
REMARK    4  A    between atoms: C5_7  and  N2_8 
REMARK    5  A    between atoms: C5_7  and  C7_12 
REMARK    6  A    between atoms: C10_15  and  C11_16 
REMARK    7  A    between atoms: C11_16  and  N4_17 
REMARK    8  A    between atoms: N4_17  and  C12_18 
REMARK    9  A    between atoms: N4_17  and  C21_28 
REMARK   10  A    between atoms: C12_18  and  C13_19 
REMARK   11  A    between atoms: C13_19  and  C14_20 
REMARK   12  A    between atoms: C14_20  and  O1_21 
REMARK   13  A    between atoms: O1_21  and  C15_22 
REMARK   14  A    between atoms: C22_31  and  C23_32 
ROOT
HETATM    1  N2  UNL     1      90.378  94.293 149.311  1.00  0.00    -0.279 N 
ATOM      2  H2  UNL     1      90.545  95.266 149.055  1.00  0.00     0.179 HD
HETATM    3  C6  UNL     1      90.813  93.815 150.536  1.00  0.00     0.183 C 
HETATM    4  N3  UNL     1      91.178  93.428 151.583  1.00  0.00    -0.172 NA
ENDROOT
BRANCH   1   5
HETATM    5  C5  UNL     1      89.703  93.432 148.415  1.00  0.00     0.120 C 
HETATM    6  N1  UNL     1      90.408  92.793 147.568  1.00  0.00    -0.375 N 
ATOM      7  H1  UNL     1      89.918  92.173 146.923  1.00  0.00     0.161 HD
BRANCH   6   8
HETATM    8  C4  UNL     1      91.828  92.872 147.449  1.00  0.00     0.121 C 
BRANCH   8   9
HETATM    9  C3  UNL     1      92.524  91.561 147.542  1.00  0.00     0.019 C 
BRANCH   9  10
HETATM   10  C2  UNL     1      92.965  91.311 148.954  1.00  0.00    -0.003 C 
HETATM   11  C1  UNL     1      94.038  92.221 149.458  1.00  0.00     0.005 C 
ENDBRANCH   9  10
ENDBRANCH   8   9
ENDBRANCH   6   8
BRANCH   5  12
HETATM   12  C7  UNL     1      88.245  93.307 148.502  1.00  0.00     0.008 A 
HETATM   13  C8  UNL     1      87.475  93.548 147.371  1.00  0.00     0.016 A 
HETATM   14  C9  UNL     1      86.107  93.440 147.407  1.00  0.00     0.014 A 
HETATM   15  C10 UNL     1      85.413  93.084 148.578  1.00  0.00    -0.021 A 
HETATM   16  C29 UNL     1      86.177  92.848 149.688  1.00  0.00     0.014 A 
HETATM   17  C30 UNL     1      87.569  92.959 149.645  1.00  0.00     0.016 A 
BRANCH  15  18
HETATM   18  C11 UNL     1      83.936  93.013 148.561  1.00  0.00     0.104 C 
BRANCH  18  19
HETATM   19  N4  UNL     1      83.335  91.751 148.436  1.00  0.00    -0.337 N 
BRANCH  19  20
HETATM   20  C12 UNL     1      83.846  90.620 147.758  1.00  0.00     0.132 C 
BRANCH  20  21
HETATM   21  C13 UNL     1      84.561  89.576 148.578  1.00  0.00     0.047 C 
BRANCH  21  22
HETATM   22  C14 UNL     1      83.459  88.613 149.033  1.00  0.00     0.177 C 
BRANCH  22  23
HETATM   23  O1  UNL     1      83.676  88.189 150.342  1.00  0.00    -0.351 OA
BRANCH  23  24
HETATM   24  C15 UNL     1      83.523  86.830 150.620  1.00  0.00     0.068 A 
HETATM   25  C16 UNL     1      84.394  86.174 151.456  1.00  0.00     0.037 A 
HETATM   26  C17 UNL     1      84.248  84.841 151.734  1.00  0.00     0.003 A 
HETATM   27  C18 UNL     1      83.173  84.172 151.132  1.00  0.00     0.000 A 
HETATM   28  C19 UNL     1      82.298  84.835 150.292  1.00  0.00     0.003 A 
HETATM   29  C20 UNL     1      82.462  86.186 150.022  1.00  0.00     0.037 A 
ENDBRANCH  23  24
ENDBRANCH  22  23
ENDBRANCH  21  22
ENDBRANCH  20  21
ENDBRANCH  19  20
BRANCH  19  30
HETATM   30  C21 UNL     1      82.020  91.589 149.040  1.00  0.00     0.151 A 
HETATM   31  N5  UNL     1      80.844  91.466 148.485  1.00  0.00    -0.334 N 
HETATM   32  C22 UNL     1      79.780  91.346 149.218  1.00  0.00     0.067 A 
ATOM     33  H5  UNL     1      80.762  91.464 147.468  1.00  0.00     0.168 HD
HETATM   34  C28 UNL     1      79.949  91.355 150.580  1.00  0.00     0.085 A 
HETATM   35  S1  UNL     1      81.639  91.535 150.724  1.00  0.00    -0.063 SA
BRANCH  32  36
HETATM   36  C23 UNL     1      78.427  91.198 148.607  1.00  0.00     0.059 A 
HETATM   37  C24 UNL     1      78.186  90.276 147.642  1.00  0.00     0.032 A 
HETATM   38  C25 UNL     1      76.927  90.115 147.054  1.00  0.00     0.004 A 
HETATM   39  C26 UNL     1      75.924  90.942 147.499  1.00  0.00     0.017 A 
HETATM   40  C27 UNL     1      76.167  91.876 148.476  1.00  0.00     0.088 A 
HETATM   41  N6  UNL     1      77.392  91.977 148.995  1.00  0.00    -0.364 N 
ATOM     42  H6  UNL     1      77.556  92.677 149.719  1.00  0.00     0.165 HD
ENDBRANCH  32  36
ENDBRANCH  19  30
ENDBRANCH  18  19
ENDBRANCH  15  18
ENDBRANCH   5  12
ENDBRANCH   1   5
TORSDOF 14
ENDMDL
MODEL 4
REMARK VINA RESULT: -8.624927285      1.460      2.225
REMARK  14 active torsions:
REMARK  status: ('A' for Active; 'I' for Inactive)
REMARK    1  A    between atoms: C2_2  and  C3_3 
REMARK    2  A    between atoms: C3_3  and  C4_4 
REMARK    3  A    between atoms: C4_4  and  N1_5 
REMARK    4  A    between atoms: C5_7  and  N2_8 
REMARK    5  A    between atoms: C5_7  and  C7_12 
REMARK    6  A    between atoms: C10_15  and  C11_16 
REMARK    7  A    between atoms: C11_16  and  N4_17 
REMARK    8  A    between atoms: N4_17  and  C12_18 
REMARK    9  A    between atoms: N4_17  and  C21_28 
REMARK   10  A    between atoms: C12_18  and  C13_19 
REMARK   11  A    between atoms: C13_19  and  C14_20 
REMARK   12  A    between atoms: C14_20  and  O1_21 
REMARK   13  A    between atoms: O1_21  and  C15_22 
REMARK   14  A    between atoms: C22_31  and  C23_32 
ROOT
HETATM    1  N2  UNL     1      82.858  86.905 150.912  1.00  0.00    -0.279 N 
ATOM      2  H2  UNL     1      82.024  87.077 151.474  1.00  0.00     0.179 HD
HETATM    3  C6  UNL     1      83.805  85.991 151.341  1.00  0.00     0.183 C 
HETATM    4  N3  UNL     1      84.595  85.206 151.713  1.00  0.00    -0.172 NA
ENDROOT
BRANCH   1   5
HETATM    5  C5  UNL     1      83.044  87.599 149.694  1.00  0.00     0.120 C 
HETATM    6  N1  UNL     1      82.527  87.096 148.644  1.00  0.00    -0.375 N 
ATOM      7  H1  UNL     1      82.664  87.599 147.767  1.00  0.00     0.161 HD
BRANCH   6   8
HETATM    8  C4  UNL     1      81.770  85.887 148.594  1.00  0.00     0.121 C 
BRANCH   8   9
HETATM    9  C3  UNL     1      80.297  86.090 148.537  1.00  0.00     0.019 C 
BRANCH   9  10
HETATM   10  C2  UNL     1      79.590  84.776 148.694  1.00  0.00    -0.003 C 
HETATM   11  C1  UNL     1      78.387  84.590 147.828  1.00  0.00     0.005 C 
ENDBRANCH   9  10
ENDBRANCH   8   9
ENDBRANCH   6   8
BRANCH   5  12
HETATM   12  C7  UNL     1      83.807  88.851 149.692  1.00  0.00     0.008 A 
HETATM   13  C8  UNL     1      83.983  89.539 150.885  1.00  0.00     0.016 A 
HETATM   14  C9  UNL     1      84.692  90.714 150.929  1.00  0.00     0.014 A 
HETATM   15  C10 UNL     1      85.274  91.283 149.781  1.00  0.00    -0.021 A 
HETATM   16  C29 UNL     1      85.097  90.600 148.609  1.00  0.00     0.014 A 
HETATM   17  C30 UNL     1      84.375  89.405 148.570  1.00  0.00     0.016 A 
BRANCH  15  18
HETATM   18  C11 UNL     1      86.002  92.566 149.888  1.00  0.00     0.104 C 
BRANCH  18  19
HETATM   19  N4  UNL     1      86.116  93.361 148.737  1.00  0.00    -0.337 N 
BRANCH  19  20
HETATM   20  C12 UNL     1      85.071  93.805 147.894  1.00  0.00     0.132 C 
BRANCH  20  21
HETATM   21  C13 UNL     1      83.874  94.450 148.543  1.00  0.00     0.047 C 
BRANCH  21  22
HETATM   22  C14 UNL     1      82.773  93.384 148.483  1.00  0.00     0.177 C 
BRANCH  22  23
HETATM   23  O1  UNL     1      82.189  93.199 149.733  1.00  0.00    -0.351 OA
BRANCH  23  24
HETATM   24  C15 UNL     1      81.451  92.032 149.940  1.00  0.00     0.068 A 
HETATM   25  C16 UNL     1      81.079  91.232 148.886  1.00  0.00     0.037 A 
HETATM   26  C17 UNL     1      80.357  90.086 149.082  1.00  0.00     0.003 A 
HETATM   27  C18 UNL     1      80.011  89.760 150.401  1.00  0.00     0.000 A 
HETATM   28  C19 UNL     1      80.385  90.567 151.459  1.00  0.00     0.003 A 
HETATM   29  C20 UNL     1      81.118  91.725 151.241  1.00  0.00     0.037 A 
ENDBRANCH  23  24
ENDBRANCH  22  23
ENDBRANCH  21  22
ENDBRANCH  20  21
ENDBRANCH  19  20
BRANCH  19  30
HETATM   30  C21 UNL     1      87.462  93.748 148.339  1.00  0.00     0.151 A 
HETATM   31  N5  UNL     1      88.604  93.143 148.522  1.00  0.00    -0.334 N 
HETATM   32  C22 UNL     1      89.708  93.676 148.094  1.00  0.00     0.067 A 
ATOM     33  H5  UNL     1      88.630  92.244 149.004  1.00  0.00     0.168 HD
HETATM   34  C28 UNL     1      89.615  94.885 147.452  1.00  0.00     0.085 A 
HETATM   35  S1  UNL     1      87.936  95.183 147.503  1.00  0.00    -0.063 SA
BRANCH  32  36
HETATM   36  C23 UNL     1      91.023  93.000 148.285  1.00  0.00     0.059 A 
HETATM   37  C24 UNL     1      91.807  93.272 149.358  1.00  0.00     0.032 A 
HETATM   38  C25 UNL     1      93.044  92.650 149.562  1.00  0.00     0.004 A 
HETATM   39  C26 UNL     1      93.443  91.737 148.616  1.00  0.00     0.017 A 
HETATM   40  C27 UNL     1      92.650  91.460 147.529  1.00  0.00     0.088 A 
HETATM   41  N6  UNL     1      91.481  92.089 147.395  1.00  0.00    -0.364 N 
ATOM     42  H6  UNL     1      90.904  91.873 146.582  1.00  0.00     0.165 HD
ENDBRANCH  32  36
ENDBRANCH  19  30
ENDBRANCH  18  19
ENDBRANCH  15  18
ENDBRANCH   5  12
ENDBRANCH   1   5
TORSDOF 14
ENDMDL
MODEL 5
REMARK VINA RESULT: -8.606511254      1.751      2.829
REMARK  14 active torsions:
REMARK  status: ('A' for Active; 'I' for Inactive)
REMARK    1  A    between atoms: C2_2  and  C3_3 
REMARK    2  A    between atoms: C3_3  and  C4_4 
REMARK    3  A    between atoms: C4_4  and  N1_5 
REMARK    4  A    between atoms: C5_7  and  N2_8 
REMARK    5  A    between atoms: C5_7  and  C7_12 
REMARK    6  A    between atoms: C10_15  and  C11_16 
REMARK    7  A    between atoms: C11_16  and  N4_17 
REMARK    8  A    between atoms: N4_17  and  C12_18 
REMARK    9  A    between atoms: N4_17  and  C21_28 
REMARK   10  A    between atoms: C12_18  and  C13_19 
REMARK   11  A    between atoms: C13_19  and  C14_20 
REMARK   12  A    between atoms: C14_20  and  O1_21 
REMARK   13  A    between atoms: O1_21  and  C15_22 
REMARK   14  A    between atoms: C22_31  and  C23_32 
ROOT
HETATM    1  N2  UNL     1      82.842  90.668 150.596  1.00  0.00    -0.279 N 
ATOM      2  H2  UNL     1      82.980  91.074 151.522  1.00  0.00     0.179 HD
HETATM    3  C6  UNL     1      81.662  90.898 149.909  1.00  0.00     0.183 C 
HETATM    4  N3  UNL     1      80.660  91.111 149.335  1.00  0.00    -0.172 NA
ENDROOT
BRANCH   1   5
HETATM    5  C5  UNL     1      83.855  89.870 150.015  1.00  0.00     0.120 C 
HETATM    6  N1  UNL     1      83.684  88.608 150.015  1.00  0.00    -0.375 N 
ATOM      7  H1  UNL     1      84.418  88.036 149.596  1.00  0.00     0.161 HD
BRANCH   6   8
HETATM    8  C4  UNL     1      82.551  87.929 150.553  1.00  0.00     0.121 C 
BRANCH   8   9
HETATM    9  C3  UNL     1      82.782  86.488 150.841  1.00  0.00     0.019 C 
BRANCH   9  10
HETATM   10  C2  UNL     1      84.163  86.288 151.391  1.00  0.00    -0.003 C 
HETATM   11  C1  UNL     1      84.530  84.873 151.700  1.00  0.00     0.005 C 
ENDBRANCH   9  10
ENDBRANCH   8   9
ENDBRANCH   6   8
BRANCH   5  12
HETATM   12  C7  UNL     1      85.038  90.520 149.440  1.00  0.00     0.008 A 
HETATM   13  C8  UNL     1      85.447  90.171 148.160  1.00  0.00     0.016 A 
HETATM   14  C9  UNL     1      86.547  90.756 147.582  1.00  0.00     0.014 A 
HETATM   15  C10 UNL     1      87.313  91.732 148.246  1.00  0.00    -0.021 A 
HETATM   16  C29 UNL     1      86.904  92.071 149.506  1.00  0.00     0.014 A 
HETATM   17  C30 UNL     1      85.784  91.473 150.089  1.00  0.00     0.016 A 
BRANCH  15  18
HETATM   18  C11 UNL     1      88.504  92.304 147.582  1.00  0.00     0.104 C 
BRANCH  18  19
HETATM   19  N4  UNL     1      89.183  93.351 148.224  1.00  0.00    -0.337 N 
BRANCH  19  20
HETATM   20  C12 UNL     1      88.764  94.696 148.348  1.00  0.00     0.132 C 
BRANCH  20  21
HETATM   21  C13 UNL     1      88.735  95.538 147.097  1.00  0.00     0.047 C 
BRANCH  21  22
HETATM   22  C14 UNL     1      87.246  95.757 146.806  1.00  0.00     0.177 C 
BRANCH  22  23
HETATM   23  O1  UNL     1      86.523  95.900 147.988  1.00  0.00    -0.351 OA
BRANCH  23  24
HETATM   24  C15 UNL     1      85.376  95.120 148.147  1.00  0.00     0.068 A 
HETATM   25  C16 UNL     1      85.143  94.030 147.342  1.00  0.00     0.037 A 
HETATM   26  C17 UNL     1      84.021  93.259 147.494  1.00  0.00     0.003 A 
HETATM   27  C18 UNL     1      83.119  93.626 148.504  1.00  0.00     0.000 A 
HETATM   28  C19 UNL     1      83.357  94.723 149.311  1.00  0.00     0.003 A 
HETATM   29  C20 UNL     1      84.500  95.492 149.142  1.00  0.00     0.037 A 
ENDBRANCH  23  24
ENDBRANCH  22  23
ENDBRANCH  21  22
ENDBRANCH  20  21
ENDBRANCH  19  20
BRANCH  19  30
HETATM   30  C21 UNL     1      90.481  93.034 148.801  1.00  0.00     0.151 A 
HETATM   31  N5  UNL     1      91.475  92.340 148.316  1.00  0.00    -0.334 N 
HETATM   32  C22 UNL     1      92.555  92.161 149.013  1.00  0.00     0.067 A 
ATOM     33  H5  UNL     1      91.401  91.934 147.383  1.00  0.00     0.168 HD
HETATM   34  C28 UNL     1      92.600  92.729 150.261  1.00  0.00     0.085 A 
HETATM   35  S1  UNL     1      91.076  93.490 150.357  1.00  0.00    -0.063 SA
BRANCH  32  36
HETATM   36  C23 UNL     1      93.706  91.378 148.477  1.00  0.00     0.059 A 
HETATM   37  C24 UNL     1      94.893  91.330 149.130  1.00  0.00     0.032 A 
HETATM   38  C25 UNL     1      95.986  90.601 148.651  1.00  0.00     0.004 A 
HETATM   39  C26 UNL     1      95.809  89.922 147.470  1.00  0.00     0.017 A 
HETATM   40  C27 UNL     1      94.607  89.969 146.806  1.00  0.00     0.088 A 
HETATM   41  N6  UNL     1      93.604  90.684 147.319  1.00  0.00    -0.364 N 
ATOM     42  H6  UNL     1      92.719  90.709 146.814  1.00  0.00     0.165 HD
ENDBRANCH  32  36
ENDBRANCH  19  30
ENDBRANCH  18  19
ENDBRANCH  15  18
ENDBRANCH   5  12
ENDBRANCH   1   5
TORSDOF 14
ENDMDL
