MODEL 1
REMARK VINA RESULT: -5.285850324      0.000      0.000
REMARK  5 active torsions:
REMARK  status: ('A' for Active; 'I' for Inactive)
REMARK    1  A    between atoms: C2_2  and  N1_4 
REMARK    2  A    between atoms: N1_4  and  C4_6 
REMARK    3  A    between atoms: C4_6  and  C5_7 
REMARK    4  A    between atoms: C5_7  and  C6_8 
REMARK    5  A    between atoms: C6_8  and  C7_9 
ROOT
HETATM    1  C7  UNL     1      18.700   0.864  59.552  1.00  0.00     0.192 C 
HETATM    2  N2  UNL     1      20.093   0.618  59.683  1.00  0.00    -0.399 N 
ATOM      3  H2  UNL     1      20.484   0.284  60.564  1.00  0.00     0.155 HD
HETATM    4  C8  UNL     1      20.923   0.849  58.561  1.00  0.00     0.137 C 
HETATM    5  C9  UNL     1      20.248   0.759  57.241  1.00  0.00     0.158 C 
HETATM    6  N3  UNL     1      18.993   1.444  57.239  1.00  0.00    -0.337 N 
ATOM      7  H3  UNL     1      18.715   2.042  56.461  1.00  0.00     0.179 HD
HETATM    8  N4  UNL     1      18.191   1.267  58.310  1.00  0.00    -0.318 N 
ATOM      9  H4  UNL     1      17.189   1.432  58.214  1.00  0.00     0.182 HD
ENDROOT
BRANCH   1  10
HETATM   10  C6  UNL     1      17.960  -0.327  60.153  1.00  0.00     0.052 C 
BRANCH  10  11
HETATM   11  C5  UNL     1      16.481   0.006  60.368  1.00  0.00     0.048 C 
BRANCH  11  12
HETATM   12  C4  UNL     1      15.926  -0.856  61.480  1.00  0.00     0.056 C 
BRANCH  12  13
HETATM   13  N1  UNL     1      16.378  -0.579  62.766  1.00  0.00    -0.398 N 
ATOM     14  H1  UNL     1      16.405   0.392  63.078  1.00  0.00     0.159 HD
BRANCH  13  15
HETATM   15  C2  UNL     1      16.793  -1.577  63.643  1.00  0.00     0.072 C 
HETATM   16  C1  UNL     1      18.059  -1.220  64.414  1.00  0.00     0.031 C 
HETATM   17  C3  UNL     1      17.118  -2.834  62.830  1.00  0.00     0.031 C 
ENDBRANCH  13  15
ENDBRANCH  12  13
ENDBRANCH  11  12
ENDBRANCH  10  11
ENDBRANCH   1  10
TORSDOF 5
ENDMDL
MODEL 2
REMARK VINA RESULT: -5.137653261      2.791      5.260
REMARK  5 active torsions:
REMARK  status: ('A' for Active; 'I' for Inactive)
REMARK    1  A    between atoms: C2_2  and  N1_4 
REMARK    2  A    between atoms: N1_4  and  C4_6 
REMARK    3  A    between atoms: C4_6  and  C5_7 
REMARK    4  A    between atoms: C5_7  and  C6_8 
REMARK    5  A    between atoms: C6_8  and  C7_9 
ROOT
HETATM    1  C7  UNL     1      16.818  -1.633  63.175  1.00  0.00     0.192 C 
HETATM    2  N2  UNL     1      16.284  -0.465  62.568  1.00  0.00    -0.399 N 
ATOM      3  H2  UNL     1      16.243   0.418  63.077  1.00  0.00     0.155 HD
HETATM    4  C8  UNL     1      15.811  -0.559  61.238  1.00  0.00     0.137 C 
HETATM    5  C9  UNL     1      16.415  -1.642  60.421  1.00  0.00     0.158 C 
HETATM    6  N3  UNL     1      16.490  -2.873  61.144  1.00  0.00    -0.337 N 
ATOM      7  H3  UNL     1      16.236  -3.760  60.710  1.00  0.00     0.179 HD
HETATM    8  N4  UNL     1      16.911  -2.812  62.425  1.00  0.00    -0.318 N 
ATOM      9  H4  UNL     1      17.306  -3.647  62.859  1.00  0.00     0.182 HD
ENDROOT
BRANCH   1  10
HETATM   10  C6  UNL     1      18.126  -1.243  63.859  1.00  0.00     0.052 C 
BRANCH  10  11
HETATM   11  C5  UNL     1      19.329  -1.748  63.056  1.00  0.00     0.048 C 
BRANCH  11  12
HETATM   12  C4  UNL     1      19.874  -0.624  62.205  1.00  0.00     0.056 C 
BRANCH  12  13
HETATM   13  N1  UNL     1      21.143  -0.156  62.529  1.00  0.00    -0.398 N 
ATOM     14  H1  UNL     1      21.638  -0.584  63.312  1.00  0.00     0.159 HD
BRANCH  13  15
HETATM   15  C2  UNL     1      21.762   0.872  61.826  1.00  0.00     0.072 C 
HETATM   16  C1  UNL     1      22.035   2.110  62.674  1.00  0.00     0.031 C 
HETATM   17  C3  UNL     1      20.830   1.317  60.694  1.00  0.00     0.031 C 
ENDBRANCH  13  15
ENDBRANCH  12  13
ENDBRANCH  11  12
ENDBRANCH  10  11
ENDBRANCH   1  10
TORSDOF 5
ENDMDL
MODEL 3
REMARK VINA RESULT: -5.093425967      2.588      5.011
REMARK  5 active torsions:
REMARK  status: ('A' for Active; 'I' for Inactive)
REMARK    1  A    between atoms: C2_2  and  N1_4 
REMARK    2  A    between atoms: N1_4  and  C4_6 
REMARK    3  A    between atoms: C4_6  and  C5_7 
REMARK    4  A    between atoms: C5_7  and  C6_8 
REMARK    5  A    between atoms: C6_8  and  C7_9 
ROOT
HETATM    1  C7  UNL     1      16.633  -0.883  61.727  1.00  0.00     0.192 C 
HETATM    2  N2  UNL     1      17.196  -1.904  60.915  1.00  0.00    -0.399 N 
ATOM      3  H2  UNL     1      18.207  -2.027  60.854  1.00  0.00     0.155 HD
HETATM    4  C8  UNL     1      16.317  -2.747  60.194  1.00  0.00     0.137 C 
HETATM    5  C9  UNL     1      14.953  -2.883  60.765  1.00  0.00     0.158 C 
HETATM    6  N3  UNL     1      14.417  -1.620  61.166  1.00  0.00    -0.337 N 
ATOM      7  H3  UNL     1      13.452  -1.362  60.958  1.00  0.00     0.179 HD
HETATM    8  N4  UNL     1      15.240  -0.782  61.830  1.00  0.00    -0.318 N 
ATOM      9  H4  UNL     1      14.837  -0.055  62.424  1.00  0.00     0.182 HD
ENDROOT
BRANCH   1  10
HETATM   10  C6  UNL     1      17.342  -0.921  63.078  1.00  0.00     0.052 C 
BRANCH  10  11
HETATM   11  C5  UNL     1      18.591  -1.805  63.011  1.00  0.00     0.048 C 
BRANCH  11  12
HETATM   12  C4  UNL     1      19.826  -0.932  63.019  1.00  0.00     0.056 C 
BRANCH  12  13
HETATM   13  N1  UNL     1      20.634  -0.986  61.889  1.00  0.00    -0.398 N 
ATOM     14  H1  UNL     1      20.949  -1.897  61.553  1.00  0.00     0.159 HD
BRANCH  13  15
HETATM   15  C2  UNL     1      21.031   0.156  61.199  1.00  0.00     0.072 C 
HETATM   16  C1  UNL     1      21.482   1.291  62.112  1.00  0.00     0.031 C 
HETATM   17  C3  UNL     1      19.832   0.685  60.406  1.00  0.00     0.031 C 
ENDBRANCH  13  15
ENDBRANCH  12  13
ENDBRANCH  11  12
ENDBRANCH  10  11
ENDBRANCH   1  10
TORSDOF 5
ENDMDL
MODEL 4
REMARK VINA RESULT: -5.082566653      1.818      5.329
REMARK  5 active torsions:
REMARK  status: ('A' for Active; 'I' for Inactive)
REMARK    1  A    between atoms: C2_2  and  N1_4 
REMARK    2  A    between atoms: N1_4  and  C4_6 
REMARK    3  A    between atoms: C4_6  and  C5_7 
REMARK    4  A    between atoms: C5_7  and  C6_8 
REMARK    5  A    between atoms: C6_8  and  C7_9 
ROOT
HETATM    1  C7  UNL     1      17.729  -3.050  62.170  1.00  0.00     0.192 C 
HETATM    2  N2  UNL     1      18.884  -2.226  62.236  1.00  0.00    -0.399 N 
ATOM      3  H2  UNL     1      19.471  -2.082  61.414  1.00  0.00     0.155 HD
HETATM    4  C8  UNL     1      19.198  -1.609  63.470  1.00  0.00     0.137 C 
HETATM    5  C9  UNL     1      18.048  -1.395  64.386  1.00  0.00     0.158 C 
HETATM    6  N3  UNL     1      17.209  -2.550  64.461  1.00  0.00    -0.337 N 
ATOM      7  H3  UNL     1      16.847  -2.886  65.354  1.00  0.00     0.179 HD
HETATM    8  N4  UNL     1      16.915  -3.178  63.303  1.00  0.00    -0.318 N 
ATOM      9  H4  UNL     1      16.079  -3.761  63.252  1.00  0.00     0.182 HD
ENDROOT
BRANCH   1  10
HETATM   10  C6  UNL     1      16.959  -2.671  60.909  1.00  0.00     0.052 C 
BRANCH  10  11
HETATM   11  C5  UNL     1      16.019  -1.493  61.181  1.00  0.00     0.048 C 
BRANCH  11  12
HETATM   12  C4  UNL     1      16.451  -0.303  60.354  1.00  0.00     0.056 C 
BRANCH  12  13
HETATM   13  N1  UNL     1      17.712  -0.373  59.772  1.00  0.00    -0.398 N 
ATOM     14  H1  UNL     1      18.079  -1.287  59.505  1.00  0.00     0.159 HD
BRANCH  13  15
HETATM   15  C2  UNL     1      18.492   0.755  59.541  1.00  0.00     0.072 C 
HETATM   16  C1  UNL     1      18.880   0.937  58.078  1.00  0.00     0.031 C 
HETATM   17  C3  UNL     1      19.802   0.609  60.324  1.00  0.00     0.031 C 
ENDBRANCH  13  15
ENDBRANCH  12  13
ENDBRANCH  11  12
ENDBRANCH  10  11
ENDBRANCH   1  10
TORSDOF 5
ENDMDL
MODEL 5
REMARK VINA RESULT: -5.076062019      0.484      1.024
REMARK  5 active torsions:
REMARK  status: ('A' for Active; 'I' for Inactive)
REMARK    1  A    between atoms: C2_2  and  N1_4 
REMARK    2  A    between atoms: N1_4  and  C4_6 
REMARK    3  A    between atoms: C4_6  and  C5_7 
REMARK    4  A    between atoms: C5_7  and  C6_8 
REMARK    5  A    between atoms: C6_8  and  C7_9 
ROOT
HETATM    1  C7  UNL     1      18.864   0.781  59.323  1.00  0.00     0.192 C 
HETATM    2  N2  UNL     1      20.210   0.328  59.343  1.00  0.00    -0.399 N 
ATOM      3  H2  UNL     1      20.596  -0.128  60.170  1.00  0.00     0.155 HD
HETATM    4  C8  UNL     1      21.000   0.524  58.186  1.00  0.00     0.137 C 
HETATM    5  C9  UNL     1      20.246   0.638  56.911  1.00  0.00     0.158 C 
HETATM    6  N3  UNL     1      19.108   1.494  57.043  1.00  0.00    -0.337 N 
ATOM      7  H3  UNL     1      18.878   2.185  56.328  1.00  0.00     0.179 HD
HETATM    8  N4  UNL     1      18.351   1.350  58.150  1.00  0.00    -0.318 N 
ATOM      9  H4  UNL     1      17.380   1.664  58.134  1.00  0.00     0.182 HD
ENDROOT
BRANCH   1  10
HETATM   10  C6  UNL     1      17.990  -0.335  59.889  1.00  0.00     0.052 C 
BRANCH  10  11
HETATM   11  C5  UNL     1      16.606   0.199  60.267  1.00  0.00     0.048 C 
BRANCH  11  12
HETATM   12  C4  UNL     1      15.898  -0.812  61.142  1.00  0.00     0.056 C 
BRANCH  12  13
HETATM   13  N1  UNL     1      16.203  -0.784  62.498  1.00  0.00    -0.398 N 
ATOM     14  H1  UNL     1      15.668  -0.166  63.109  1.00  0.00     0.159 HD
BRANCH  13  15
HETATM   15  C2  UNL     1      17.210  -1.567  63.054  1.00  0.00     0.072 C 
HETATM   16  C1  UNL     1      17.178  -3.018  62.588  1.00  0.00     0.031 C 
HETATM   17  C3  UNL     1      17.021  -1.594  64.574  1.00  0.00     0.031 C 
ENDBRANCH  13  15
ENDBRANCH  12  13
ENDBRANCH  11  12
ENDBRANCH  10  11
ENDBRANCH   1  10
TORSDOF 5
ENDMDL
