MODEL 1
REMARK VINA RESULT: -5.669188524      0.000      0.000
REMARK  8 active torsions:
REMARK  status: ('A' for Active; 'I' for Inactive)
REMARK    1  A    between atoms: S1_2  and  C2_3 
REMARK    2  A    between atoms: C3_4  and  O1_5 
REMARK    3  A    between atoms: N1_9  and  C5_10 
REMARK    4  A    between atoms: N4_17  and  C7_18 
REMARK    5  A    between atoms: C7_18  and  C8_19 
REMARK    6  A    between atoms: C10_22  and  N5_23 
REMARK    7  A    between atoms: N5_23  and  N6_25 
REMARK    8  A    between atoms: N7_30  and  O5_31 
ROOT
HETATM    1  C5  UNL     1      30.902   2.937   7.316  1.00  0.00     0.181 A 
HETATM    2  N2  UNL     1      31.965   3.327   6.593  1.00  0.00    -0.172 N 
ATOM      3  H2  UNL     1      31.964   3.456   5.581  1.00  0.00     0.186 HD
HETATM    4  C6  UNL     1      33.027   3.523   7.387  1.00  0.00     0.681 A 
HETATM    5  N3  UNL     1      34.212   3.896   7.051  1.00  0.00    -0.234 N 
ATOM      6  H31 UNL     1      35.020   4.045   7.655  1.00  0.00     0.174 HD
ATOM      7  H32 UNL     1      34.537   4.107   6.107  1.00  0.00     0.174 HD
HETATM    8  N4  UNL     1      32.592   3.240   8.648  1.00  0.00    -0.156 N 
HETATM    9  C10 UNL     1      31.308   2.881   8.643  1.00  0.00     0.183 A 
ENDROOT
BRANCH   1  10
HETATM   10  N1  UNL     1      29.614   2.644   6.793  1.00  0.00    -0.206 N 
HETATM   11  C4  UNL     1      29.375   1.542   6.044  1.00  0.00     0.293 A 
HETATM   12  C3  UNL     1      28.097   1.304   5.557  1.00  0.00     0.171 A 
HETATM   13  O2  UNL     1      30.313   0.766   5.810  1.00  0.00    -0.264 OA
HETATM   14  C2  UNL     1      27.059   2.168   5.817  1.00  0.00     0.142 A 
HETATM   15  N7  UNL     1      27.332   3.253   6.565  1.00  0.00    -0.163 N 
HETATM   16  C11 UNL     1      28.586   3.473   7.035  1.00  0.00     0.362 A 
HETATM   17  O4  UNL     1      28.789   4.503   7.729  1.00  0.00    -0.243 OA
BRANCH  12  18
HETATM   18  O1  UNL     1      27.839   0.175   4.786  1.00  0.00    -0.354 OA
ATOM     19  H1  UNL     1      28.542  -0.451   4.654  1.00  0.00     0.218 HD
ENDBRANCH  12  18
BRANCH  14  20
HETATM   20  S1  UNL     1      25.440   1.807   5.163  1.00  0.00    -0.111 SA
HETATM   21  C1  UNL     1      24.393   0.991   6.383  1.00  0.00     0.097 C 
ENDBRANCH  14  20
BRANCH  15  22
HETATM   22  O5  UNL     1      26.300   4.123   6.831  1.00  0.00    -0.278 OA
ATOM     23  H5  UNL     1      26.385   4.691   7.588  1.00  0.00     0.245 HD
ENDBRANCH  15  22
ENDBRANCH   1  10
BRANCH   9  24
HETATM   24  N5  UNL     1      30.423   2.496   9.686  1.00  0.00    -0.288 N 
ATOM     25  H5  UNL     1      30.361   1.500   9.900  1.00  0.00     0.188 HD
BRANCH  24  26
HETATM   26  N6  UNL     1      29.638   3.357  10.438  1.00  0.00    -0.344 N 
ATOM     27  H62 UNL     1      30.136   4.080  10.958  1.00  0.00     0.176 HD
ATOM     28  H61 UNL     1      28.621   3.324  10.509  1.00  0.00     0.176 HD
ENDBRANCH  24  26
ENDBRANCH   9  24
BRANCH   8  29
HETATM   29  C7  UNL     1      33.440   3.326   9.814  1.00  0.00     0.227 C 
BRANCH  29  30
HETATM   30  C8  UNL     1      34.252   2.103  10.008  1.00  0.00     0.141 C 
HETATM   31  C9  UNL     1      33.855   1.095  11.026  1.00  0.00     0.092 C 
HETATM   32  O3  UNL     1      35.251   1.895   9.345  1.00  0.00    -0.297 OA
ENDBRANCH  29  30
ENDBRANCH   8  29
TORSDOF 8
ENDMDL
MODEL 2
REMARK VINA RESULT: -5.636147089      0.600      2.113
REMARK  8 active torsions:
REMARK  status: ('A' for Active; 'I' for Inactive)
REMARK    1  A    between atoms: S1_2  and  C2_3 
REMARK    2  A    between atoms: C3_4  and  O1_5 
REMARK    3  A    between atoms: N1_9  and  C5_10 
REMARK    4  A    between atoms: N4_17  and  C7_18 
REMARK    5  A    between atoms: C7_18  and  C8_19 
REMARK    6  A    between atoms: C10_22  and  N5_23 
REMARK    7  A    between atoms: N5_23  and  N6_25 
REMARK    8  A    between atoms: N7_30  and  O5_31 
ROOT
HETATM    1  C5  UNL     1      30.994   2.822   7.353  1.00  0.00     0.181 A 
HETATM    2  N2  UNL     1      32.075   3.154   6.629  1.00  0.00    -0.172 N 
ATOM      3  H2  UNL     1      32.077   3.300   5.620  1.00  0.00     0.186 HD
HETATM    4  C6  UNL     1      33.153   3.267   7.419  1.00  0.00     0.681 A 
HETATM    5  N3  UNL     1      34.357   3.569   7.080  1.00  0.00    -0.234 N 
ATOM      6  H31 UNL     1      35.176   3.655   7.681  1.00  0.00     0.174 HD
ATOM      7  H32 UNL     1      34.690   3.775   6.138  1.00  0.00     0.174 HD
HETATM    8  N4  UNL     1      32.708   2.992   8.678  1.00  0.00    -0.156 N 
HETATM    9  C10 UNL     1      31.403   2.717   8.676  1.00  0.00     0.183 A 
ENDROOT
BRANCH   1  10
HETATM   10  N1  UNL     1      29.686   2.622   6.834  1.00  0.00    -0.206 N 
HETATM   11  C4  UNL     1      28.673   3.483   7.087  1.00  0.00     0.293 A 
HETATM   12  C3  UNL     1      27.413   3.239   6.556  1.00  0.00     0.171 A 
HETATM   13  O2  UNL     1      28.897   4.477   7.793  1.00  0.00    -0.264 OA
HETATM   14  C2  UNL     1      27.167   2.135   5.774  1.00  0.00     0.142 A 
HETATM   15  N7  UNL     1      28.198   1.301   5.543  1.00  0.00    -0.163 N 
HETATM   16  C11 UNL     1      29.423   1.551   6.068  1.00  0.00     0.362 A 
HETATM   17  O4  UNL     1      30.353   0.739   5.823  1.00  0.00    -0.243 OA
BRANCH  12  18
HETATM   18  O1  UNL     1      26.364   4.117   6.809  1.00  0.00    -0.354 OA
ATOM     19  H1  UNL     1      26.568   4.973   7.166  1.00  0.00     0.218 HD
ENDBRANCH  12  18
BRANCH  14  20
HETATM   20  S1  UNL     1      25.528   1.878   5.121  1.00  0.00    -0.111 SA
HETATM   21  C1  UNL     1      24.459   1.045   6.311  1.00  0.00     0.097 C 
ENDBRANCH  14  20
BRANCH  15  22
HETATM   22  O5  UNL     1      27.961   0.194   4.761  1.00  0.00    -0.278 OA
ATOM     23  H5  UNL     1      28.050   0.290   3.821  1.00  0.00     0.245 HD
ENDBRANCH  15  22
ENDBRANCH   1  10
BRANCH   9  24
HETATM   24  N5  UNL     1      30.502   2.372   9.719  1.00  0.00    -0.288 N 
ATOM     25  H5  UNL     1      30.405   1.382   9.942  1.00  0.00     0.188 HD
BRANCH  24  26
HETATM   26  N6  UNL     1      29.742   3.266  10.459  1.00  0.00    -0.344 N 
ATOM     27  H62 UNL     1      30.245   4.060  10.856  1.00  0.00     0.176 HD
ATOM     28  H61 UNL     1      28.740   3.193  10.632  1.00  0.00     0.176 HD
ENDBRANCH  24  26
ENDBRANCH   9  24
BRANCH   8  29
HETATM   29  C7  UNL     1      33.566   3.002   9.839  1.00  0.00     0.227 C 
BRANCH  29  30
HETATM   30  C8  UNL     1      34.261   1.710  10.034  1.00  0.00     0.141 C 
HETATM   31  C9  UNL     1      34.048   0.926  11.280  1.00  0.00     0.092 C 
HETATM   32  O3  UNL     1      35.014   1.261   9.189  1.00  0.00    -0.297 OA
ENDBRANCH  29  30
ENDBRANCH   8  29
TORSDOF 8
ENDMDL
MODEL 3
REMARK VINA RESULT: -5.471372093      3.032      6.777
REMARK  8 active torsions:
REMARK  status: ('A' for Active; 'I' for Inactive)
REMARK    1  A    between atoms: S1_2  and  C2_3 
REMARK    2  A    between atoms: C3_4  and  O1_5 
REMARK    3  A    between atoms: N1_9  and  C5_10 
REMARK    4  A    between atoms: N4_17  and  C7_18 
REMARK    5  A    between atoms: C7_18  and  C8_19 
REMARK    6  A    between atoms: C10_22  and  N5_23 
REMARK    7  A    between atoms: N5_23  and  N6_25 
REMARK    8  A    between atoms: N7_30  and  O5_31 
ROOT
HETATM    1  C5  UNL     1      29.305   2.369   7.640  1.00  0.00     0.181 A 
HETATM    2  N2  UNL     1      28.727   1.221   8.028  1.00  0.00    -0.172 N 
ATOM      3  H2  UNL     1      29.191   0.488   8.565  1.00  0.00     0.186 HD
HETATM    4  C6  UNL     1      27.454   1.171   7.611  1.00  0.00     0.681 A 
HETATM    5  N3  UNL     1      26.594   0.231   7.794  1.00  0.00    -0.234 N 
ATOM      6  H31 UNL     1      25.626   0.193   7.478  1.00  0.00     0.174 HD
ATOM      7  H32 UNL     1      26.749  -0.644   8.297  1.00  0.00     0.174 HD
HETATM    8  N4  UNL     1      27.247   2.340   6.941  1.00  0.00    -0.156 N 
HETATM    9  C10 UNL     1      28.349   3.092   6.937  1.00  0.00     0.183 A 
ENDROOT
BRANCH   1  10
HETATM   10  N1  UNL     1      30.647   2.748   7.912  1.00  0.00    -0.206 N 
HETATM   11  C4  UNL     1      31.605   2.740   6.956  1.00  0.00     0.293 A 
HETATM   12  C3  UNL     1      32.901   3.119   7.276  1.00  0.00     0.171 A 
HETATM   13  O2  UNL     1      31.297   2.391   5.807  1.00  0.00    -0.264 OA
HETATM   14  C2  UNL     1      33.240   3.505   8.552  1.00  0.00     0.142 A 
HETATM   15  N7  UNL     1      32.262   3.501   9.477  1.00  0.00    -0.163 N 
HETATM   16  C11 UNL     1      31.000   3.129   9.150  1.00  0.00     0.362 A 
HETATM   17  O4  UNL     1      30.123   3.142  10.052  1.00  0.00    -0.243 OA
BRANCH  12  18
HETATM   18  O1  UNL     1      33.895   3.115   6.302  1.00  0.00    -0.354 OA
ATOM     19  H1  UNL     1      33.681   2.773   5.442  1.00  0.00     0.218 HD
ENDBRANCH  12  18
BRANCH  14  20
HETATM   20  S1  UNL     1      34.923   3.981   8.901  1.00  0.00    -0.111 SA
HETATM   21  C1  UNL     1      35.075   5.759   9.156  1.00  0.00     0.097 C 
ENDBRANCH  14  20
BRANCH  15  22
HETATM   22  O5  UNL     1      32.592   3.886  10.757  1.00  0.00    -0.278 OA
ATOM     23  H5  UNL     1      31.908   3.859  11.416  1.00  0.00     0.245 HD
ENDBRANCH  15  22
ENDBRANCH   1  10
BRANCH   9  24
HETATM   24  N5  UNL     1      28.630   4.366   6.376  1.00  0.00    -0.288 N 
ATOM     25  H5  UNL     1      28.455   5.183   6.962  1.00  0.00     0.188 HD
BRANCH  24  26
HETATM   26  N6  UNL     1      29.122   4.595   5.099  1.00  0.00    -0.344 N 
ATOM     27  H62 UNL     1      28.832   3.931   4.381  1.00  0.00     0.176 HD
ATOM     28  H61 UNL     1      29.738   5.362   4.829  1.00  0.00     0.176 HD
ENDBRANCH  24  26
ENDBRANCH   9  24
BRANCH   8  29
HETATM   29  C7  UNL     1      25.988   2.686   6.323  1.00  0.00     0.227 C 
BRANCH  29  30
HETATM   30  C8  UNL     1      26.077   2.708   4.845  1.00  0.00     0.141 C 
HETATM   31  C9  UNL     1      25.928   1.449   4.068  1.00  0.00     0.092 C 
HETATM   32  O3  UNL     1      26.269   3.745   4.238  1.00  0.00    -0.297 OA
ENDBRANCH  29  30
ENDBRANCH   8  29
TORSDOF 8
ENDMDL
MODEL 4
REMARK VINA RESULT: -5.404649091      2.968      6.967
REMARK  8 active torsions:
REMARK  status: ('A' for Active; 'I' for Inactive)
REMARK    1  A    between atoms: S1_2  and  C2_3 
REMARK    2  A    between atoms: C3_4  and  O1_5 
REMARK    3  A    between atoms: N1_9  and  C5_10 
REMARK    4  A    between atoms: N4_17  and  C7_18 
REMARK    5  A    between atoms: C7_18  and  C8_19 
REMARK    6  A    between atoms: C10_22  and  N5_23 
REMARK    7  A    between atoms: N5_23  and  N6_25 
REMARK    8  A    between atoms: N7_30  and  O5_31 
ROOT
HETATM    1  C5  UNL     1      29.234   2.280   7.689  1.00  0.00     0.181 A 
HETATM    2  N2  UNL     1      28.675   1.107   8.032  1.00  0.00    -0.172 N 
ATOM      3  H2  UNL     1      29.146   0.369   8.554  1.00  0.00     0.186 HD
HETATM    4  C6  UNL     1      27.410   1.043   7.592  1.00  0.00     0.681 A 
HETATM    5  N3  UNL     1      26.569   0.079   7.730  1.00  0.00    -0.234 N 
ATOM      6  H31 UNL     1      25.607   0.030   7.395  1.00  0.00     0.174 HD
ATOM      7  H32 UNL     1      26.734  -0.807   8.208  1.00  0.00     0.174 HD
HETATM    8  N4  UNL     1      27.189   2.227   6.954  1.00  0.00    -0.156 N 
HETATM    9  C10 UNL     1      28.273   3.003   6.993  1.00  0.00     0.183 A 
ENDROOT
BRANCH   1  10
HETATM   10  N1  UNL     1      30.562   2.679   7.997  1.00  0.00    -0.206 N 
HETATM   11  C4  UNL     1      30.924   3.077   9.239  1.00  0.00     0.293 A 
HETATM   12  C3  UNL     1      32.236   3.458   9.485  1.00  0.00     0.171 A 
HETATM   13  O2  UNL     1      30.066   3.091  10.134  1.00  0.00    -0.264 OA
HETATM   14  C2  UNL     1      33.185   3.442   8.490  1.00  0.00     0.142 A 
HETATM   15  N7  UNL     1      32.790   3.041   7.267  1.00  0.00    -0.163 N 
HETATM   16  C11 UNL     1      31.504   2.671   7.041  1.00  0.00     0.362 A 
HETATM   17  O4  UNL     1      31.186   2.304   5.880  1.00  0.00    -0.243 OA
BRANCH  12  18
HETATM   18  O1  UNL     1      32.620   3.869  10.757  1.00  0.00    -0.354 OA
ATOM     19  H1  UNL     1      33.541   3.824  10.987  1.00  0.00     0.218 HD
ENDBRANCH  12  18
BRANCH  14  20
HETATM   20  S1  UNL     1      34.854   3.944   8.869  1.00  0.00    -0.111 SA
HETATM   21  C1  UNL     1      34.993   5.734   9.026  1.00  0.00     0.097 C 
ENDBRANCH  14  20
BRANCH  15  22
HETATM   22  O5  UNL     1      33.733   3.021   6.265  1.00  0.00    -0.278 OA
ATOM     23  H5  UNL     1      34.577   2.631   6.460  1.00  0.00     0.245 HD
ENDBRANCH  15  22
ENDBRANCH   1  10
BRANCH   9  24
HETATM   24  N5  UNL     1      28.536   4.299   6.476  1.00  0.00    -0.288 N 
ATOM     25  H5  UNL     1      28.333   5.093   7.083  1.00  0.00     0.188 HD
BRANCH  24  26
HETATM   26  N6  UNL     1      29.044   4.579   5.216  1.00  0.00    -0.344 N 
ATOM     27  H62 UNL     1      28.355   4.741   4.480  1.00  0.00     0.176 HD
ATOM     28  H61 UNL     1      30.033   4.635   4.973  1.00  0.00     0.176 HD
ENDBRANCH  24  26
ENDBRANCH   9  24
BRANCH   8  29
HETATM   29  C7  UNL     1      25.934   2.565   6.325  1.00  0.00     0.227 C 
BRANCH  29  30
HETATM   30  C8  UNL     1      26.049   2.643   4.851  1.00  0.00     0.141 C 
HETATM   31  C9  UNL     1      25.957   1.409   4.027  1.00  0.00     0.092 C 
HETATM   32  O3  UNL     1      26.217   3.708   4.285  1.00  0.00    -0.297 OA
ENDBRANCH  29  30
ENDBRANCH   8  29
TORSDOF 8
ENDMDL
MODEL 5
REMARK VINA RESULT: -5.381103783      5.173      8.065
REMARK  8 active torsions:
REMARK  status: ('A' for Active; 'I' for Inactive)
REMARK    1  A    between atoms: S1_2  and  C2_3 
REMARK    2  A    between atoms: C3_4  and  O1_5 
REMARK    3  A    between atoms: N1_9  and  C5_10 
REMARK    4  A    between atoms: N4_17  and  C7_18 
REMARK    5  A    between atoms: C7_18  and  C8_19 
REMARK    6  A    between atoms: C10_22  and  N5_23 
REMARK    7  A    between atoms: N5_23  and  N6_25 
REMARK    8  A    between atoms: N7_30  and  O5_31 
ROOT
HETATM    1  C5  UNL     1      33.868   1.390  10.393  1.00  0.00     0.181 A 
HETATM    2  N2  UNL     1      32.575   1.676  10.619  1.00  0.00    -0.172 N 
ATOM      3  H2  UNL     1      31.926   1.074  11.126  1.00  0.00     0.186 HD
HETATM    4  C6  UNL     1      32.256   2.864  10.086  1.00  0.00     0.681 A 
HETATM    5  N3  UNL     1      31.117   3.461  10.102  1.00  0.00    -0.234 N 
ATOM      6  H31 UNL     1      30.874   4.365   9.697  1.00  0.00     0.174 HD
ATOM      7  H32 UNL     1      30.258   3.119  10.533  1.00  0.00     0.174 HD
HETATM    8  N4  UNL     1      33.404   3.321   9.510  1.00  0.00    -0.156 N 
HETATM    9  C10 UNL     1      34.403   2.453   9.676  1.00  0.00     0.183 A 
ENDROOT
BRANCH   1  10
HETATM   10  N1  UNL     1      34.537   0.211  10.820  1.00  0.00    -0.206 N 
HETATM   11  C4  UNL     1      35.009  -0.706   9.943  1.00  0.00     0.293 A 
HETATM   12  C3  UNL     1      35.655  -1.840  10.414  1.00  0.00     0.171 A 
HETATM   13  O2  UNL     1      34.851  -0.506   8.730  1.00  0.00    -0.264 OA
HETATM   14  C2  UNL     1      35.828  -2.059  11.761  1.00  0.00     0.142 A 
HETATM   15  N7  UNL     1      35.346  -1.126  12.604  1.00  0.00    -0.163 N 
HETATM   16  C11 UNL     1      34.717  -0.022  12.130  1.00  0.00     0.362 A 
HETATM   17  O4  UNL     1      34.284   0.819  12.959  1.00  0.00    -0.243 OA
BRANCH  12  18
HETATM   18  O1  UNL     1      36.144  -2.790   9.523  1.00  0.00    -0.354 OA
ATOM     19  H1  UNL     1      35.750  -2.845   8.660  1.00  0.00     0.218 HD
ENDBRANCH  12  18
BRANCH  14  20
HETATM   20  S1  UNL     1      36.665  -3.537  12.304  1.00  0.00    -0.111 SA
HETATM   21  C1  UNL     1      38.455  -3.317  12.332  1.00  0.00     0.097 C 
ENDBRANCH  14  20
BRANCH  15  22
HETATM   22  O5  UNL     1      35.514  -1.336  13.953  1.00  0.00    -0.278 OA
ATOM     23  H5  UNL     1      36.029  -0.702  14.438  1.00  0.00     0.245 HD
ENDBRANCH  15  22
ENDBRANCH   1  10
BRANCH   9  24
HETATM   24  N5  UNL     1      35.762   2.475   9.263  1.00  0.00    -0.288 N 
ATOM     25  H5  UNL     1      36.460   2.706   9.970  1.00  0.00     0.188 HD
BRANCH  24  26
HETATM   26  N6  UNL     1      36.221   2.209   7.982  1.00  0.00    -0.344 N 
ATOM     27  H62 UNL     1      35.512   2.182   7.248  1.00  0.00     0.176 HD
ATOM     28  H61 UNL     1      37.193   2.041   7.722  1.00  0.00     0.176 HD
ENDBRANCH  24  26
ENDBRANCH   9  24
BRANCH   8  29
HETATM   29  C7  UNL     1      33.492   4.584   8.816  1.00  0.00     0.227 C 
BRANCH  29  30
HETATM   30  C8  UNL     1      33.437   4.420   7.345  1.00  0.00     0.141 C 
HETATM   31  C9  UNL     1      32.139   4.532   6.628  1.00  0.00     0.092 C 
HETATM   32  O3  UNL     1      34.441   4.194   6.695  1.00  0.00    -0.297 OA
ENDBRANCH  29  30
ENDBRANCH   8  29
TORSDOF 8
ENDMDL
