MODEL 1
REMARK VINA RESULT: -3.907612713      0.000      0.000
REMARK  4 active torsions:
REMARK  status: ('A' for Active; 'I' for Inactive)
REMARK    1  A    between atoms: N1_1  and  C1_4 
REMARK    2  A    between atoms: N4_11  and  C4_12 
REMARK    3  A    between atoms: C4_12  and  C5_13 
REMARK    4  A    between atoms: C5_13  and  N5_14 
ROOT
HETATM    1  C1  UNL     1      38.435  50.480  10.964  1.00  0.00     0.679 A 
HETATM    2  N2  UNL     1      38.678  51.474  10.076  1.00  0.00    -0.188 N 
ATOM      3  H2  UNL     1      38.404  51.329   9.104  1.00  0.00     0.185 HD
HETATM    4  C2  UNL     1      39.259  52.638  10.405  1.00  0.00     0.199 A 
HETATM    5  N3  UNL     1      39.614  52.811  11.689  1.00  0.00    -0.347 N 
ATOM      6  H3  UNL     1      40.058  53.682  11.976  1.00  0.00     0.167 HD
HETATM    7  C3  UNL     1      39.389  51.848  12.598  1.00  0.00     0.201 A 
HETATM    8  N4  UNL     1      38.795  50.669  12.244  1.00  0.00    -0.178 N 
ENDROOT
BRANCH   8   9
HETATM    9  C4  UNL     1      38.547  49.621  13.176  1.00  0.00     0.175 C 
BRANCH   9  10
HETATM   10  C5  UNL     1      39.249  49.707  14.480  1.00  0.00     0.250 C 
BRANCH  10  11
HETATM   11  N5  UNL     1      38.716  48.856  15.496  1.00  0.00    -0.078 N 
ATOM     12  H53 UNL     1      37.979  48.265  15.114  1.00  0.00     0.274 HD
ATOM     13  H52 UNL     1      39.397  48.141  15.754  1.00  0.00     0.274 HD
ATOM     14  H51 UNL     1      38.384  49.347  16.326  1.00  0.00     0.274 HD
ENDBRANCH  10  11
ENDBRANCH   9  10
ENDBRANCH   8   9
BRANCH   1  15
HETATM   15  N1  UNL     1      37.859  49.403  10.527  1.00  0.00    -0.234 N 
ATOM     16  H12 UNL     1      37.614  49.246   9.549  1.00  0.00     0.174 HD
ATOM     17  H11 UNL     1      37.646  48.668  11.201  1.00  0.00     0.174 HD
ENDBRANCH   1  15
TORSDOF 4
ENDMDL
MODEL 2
REMARK VINA RESULT: -3.851085880      1.704      3.994
REMARK  4 active torsions:
REMARK  status: ('A' for Active; 'I' for Inactive)
REMARK    1  A    between atoms: N1_1  and  C1_4 
REMARK    2  A    between atoms: N4_11  and  C4_12 
REMARK    3  A    between atoms: C4_12  and  C5_13 
REMARK    4  A    between atoms: C5_13  and  N5_14 
ROOT
HETATM    1  C1  UNL     1      39.047  50.274  13.579  1.00  0.00     0.679 A 
HETATM    2  N2  UNL     1      39.812  49.911  14.636  1.00  0.00    -0.188 N 
ATOM      3  H2  UNL     1      39.543  49.080  15.163  1.00  0.00     0.185 HD
HETATM    4  C2  UNL     1      40.905  50.584  15.028  1.00  0.00     0.199 A 
HETATM    5  N3  UNL     1      41.244  51.676  14.324  1.00  0.00    -0.347 N 
ATOM      6  H3  UNL     1      42.068  52.214  14.592  1.00  0.00     0.167 HD
HETATM    7  C3  UNL     1      40.509  52.067  13.269  1.00  0.00     0.201 A 
HETATM    8  N4  UNL     1      39.400  51.368  12.885  1.00  0.00    -0.178 N 
ENDROOT
BRANCH   8   9
HETATM    9  C4  UNL     1      38.591  51.755  11.778  1.00  0.00     0.175 C 
BRANCH   9  10
HETATM   10  C5  UNL     1      39.299  52.097  10.520  1.00  0.00     0.250 C 
BRANCH  10  11
HETATM   11  N5  UNL     1      39.282  53.488  10.191  1.00  0.00    -0.078 N 
ATOM     12  H53 UNL     1      39.414  54.052  11.030  1.00  0.00     0.274 HD
ATOM     13  H52 UNL     1      40.125  53.741   9.675  1.00  0.00     0.274 HD
ATOM     14  H51 UNL     1      38.450  53.791   9.685  1.00  0.00     0.274 HD
ENDBRANCH  10  11
ENDBRANCH   9  10
ENDBRANCH   8   9
BRANCH   1  15
HETATM   15  N1  UNL     1      38.018  49.537  13.292  1.00  0.00    -0.234 N 
ATOM     16  H12 UNL     1      37.866  48.602  13.671  1.00  0.00     0.174 HD
ATOM     17  H11 UNL     1      37.319  49.920  12.656  1.00  0.00     0.174 HD
ENDBRANCH   1  15
TORSDOF 4
ENDMDL
MODEL 3
REMARK VINA RESULT: -3.841562160     12.881     14.136
REMARK  4 active torsions:
REMARK  status: ('A' for Active; 'I' for Inactive)
REMARK    1  A    between atoms: N1_1  and  C1_4 
REMARK    2  A    between atoms: N4_11  and  C4_12 
REMARK    3  A    between atoms: C4_12  and  C5_13 
REMARK    4  A    between atoms: C5_13  and  N5_14 
ROOT
HETATM    1  C1  UNL     1      40.168  56.291  24.246  1.00  0.00     0.679 A 
HETATM    2  N2  UNL     1      39.489  57.428  24.531  1.00  0.00    -0.188 N 
ATOM      3  H2  UNL     1      38.915  57.844  23.797  1.00  0.00     0.185 HD
HETATM    4  C2  UNL     1      39.529  58.038  25.726  1.00  0.00     0.199 A 
HETATM    5  N3  UNL     1      40.290  57.477  26.681  1.00  0.00    -0.347 N 
ATOM      6  H3  UNL     1      40.345  57.911  27.602  1.00  0.00     0.167 HD
HETATM    7  C3  UNL     1      40.977  56.349  26.435  1.00  0.00     0.201 A 
HETATM    8  N4  UNL     1      40.923  55.743  25.212  1.00  0.00    -0.178 N 
ENDROOT
BRANCH   8   9
HETATM    9  C4  UNL     1      41.644  54.551  24.910  1.00  0.00     0.175 C 
BRANCH   9  10
HETATM   10  C5  UNL     1      41.196  53.310  25.587  1.00  0.00     0.250 C 
BRANCH  10  11
HETATM   11  N5  UNL     1      40.358  52.471  24.791  1.00  0.00    -0.078 N 
ATOM     12  H53 UNL     1      39.793  53.034  24.155  1.00  0.00     0.274 HD
ATOM     13  H52 UNL     1      40.916  51.950  24.114  1.00  0.00     0.274 HD
ATOM     14  H51 UNL     1      39.765  51.837  25.326  1.00  0.00     0.274 HD
ENDBRANCH  10  11
ENDBRANCH   9  10
ENDBRANCH   8   9
BRANCH   1  15
HETATM   15  N1  UNL     1      40.042  55.791  23.055  1.00  0.00    -0.234 N 
ATOM     16  H12 UNL     1      40.439  56.214  22.216  1.00  0.00     0.174 HD
ATOM     17  H11 UNL     1      39.522  54.919  22.956  1.00  0.00     0.174 HD
ENDBRANCH   1  15
TORSDOF 4
ENDMDL
MODEL 4
REMARK VINA RESULT: -3.812852751      9.790     10.320
REMARK  4 active torsions:
REMARK  status: ('A' for Active; 'I' for Inactive)
REMARK    1  A    between atoms: N1_1  and  C1_4 
REMARK    2  A    between atoms: N4_11  and  C4_12 
REMARK    3  A    between atoms: C4_12  and  C5_13 
REMARK    4  A    between atoms: C5_13  and  N5_14 
ROOT
HETATM    1  C1  UNL     1      39.485  54.080  22.198  1.00  0.00     0.679 A 
HETATM    2  N2  UNL     1      38.942  55.130  21.536  1.00  0.00    -0.188 N 
ATOM      3  H2  UNL     1      37.990  55.410  21.773  1.00  0.00     0.185 HD
HETATM    4  C2  UNL     1      39.588  55.823  20.584  1.00  0.00     0.199 A 
HETATM    5  N3  UNL     1      40.840  55.440  20.284  1.00  0.00    -0.347 N 
ATOM      6  H3  UNL     1      41.363  55.942  19.566  1.00  0.00     0.167 HD
HETATM    7  C3  UNL     1      41.411  54.404  20.920  1.00  0.00     0.201 A 
HETATM    8  N4  UNL     1      40.738  53.712  21.887  1.00  0.00    -0.178 N 
ENDROOT
BRANCH   8   9
HETATM    9  C4  UNL     1      41.306  52.602  22.577  1.00  0.00     0.175 C 
BRANCH   9  10
HETATM   10  C5  UNL     1      41.198  51.278  21.916  1.00  0.00     0.250 C 
BRANCH  10  11
HETATM   11  N5  UNL     1      40.393  50.331  22.620  1.00  0.00    -0.078 N 
ATOM     12  H53 UNL     1      39.404  50.508  22.448  1.00  0.00     0.274 HD
ATOM     13  H52 UNL     1      40.481  49.406  22.197  1.00  0.00     0.274 HD
ATOM     14  H51 UNL     1      40.577  50.282  23.622  1.00  0.00     0.274 HD
ENDBRANCH  10  11
ENDBRANCH   9  10
ENDBRANCH   8   9
BRANCH   1  15
HETATM   15  N1  UNL     1      38.763  53.496  23.104  1.00  0.00    -0.234 N 
ATOM     16  H12 UNL     1      37.762  53.651  23.221  1.00  0.00     0.174 HD
ATOM     17  H11 UNL     1      39.226  52.837  23.731  1.00  0.00     0.174 HD
ENDBRANCH   1  15
TORSDOF 4
ENDMDL
MODEL 5
REMARK VINA RESULT: -3.807021925     11.895     13.359
REMARK  4 active torsions:
REMARK  status: ('A' for Active; 'I' for Inactive)
REMARK    1  A    between atoms: N1_1  and  C1_4 
REMARK    2  A    between atoms: N4_11  and  C4_12 
REMARK    3  A    between atoms: C4_12  and  C5_13 
REMARK    4  A    between atoms: C5_13  and  N5_14 
ROOT
HETATM    1  C1  UNL     1      39.986  53.623  23.900  1.00  0.00     0.679 A 
HETATM    2  N2  UNL     1      40.273  52.513  24.623  1.00  0.00    -0.188 N 
ATOM      3  H2  UNL     1      39.675  51.695  24.509  1.00  0.00     0.185 HD
HETATM    4  C2  UNL     1      41.302  52.431  25.481  1.00  0.00     0.199 A 
HETATM    5  N3  UNL     1      42.079  53.518  25.619  1.00  0.00    -0.347 N 
ATOM      6  H3  UNL     1      42.871  53.493  26.263  1.00  0.00     0.167 HD
HETATM    7  C3  UNL     1      41.826  54.636  24.919  1.00  0.00     0.201 A 
HETATM    8  N4  UNL     1      40.774  54.699  24.050  1.00  0.00    -0.178 N 
ENDROOT
BRANCH   8   9
HETATM    9  C4  UNL     1      40.468  55.869  23.296  1.00  0.00     0.175 C 
BRANCH   9  10
HETATM   10  C5  UNL     1      40.539  57.165  24.015  1.00  0.00     0.250 C 
BRANCH  10  11
HETATM   11  N5  UNL     1      39.466  57.394  24.929  1.00  0.00    -0.078 N 
ATOM     12  H53 UNL     1      39.761  57.185  25.883  1.00  0.00     0.274 HD
ATOM     13  H52 UNL     1      39.282  58.393  25.018  1.00  0.00     0.274 HD
ATOM     14  H51 UNL     1      38.607  56.892  24.704  1.00  0.00     0.274 HD
ENDBRANCH  10  11
ENDBRANCH   9  10
ENDBRANCH   8   9
BRANCH   1  15
HETATM   15  N1  UNL     1      38.969  53.577  23.096  1.00  0.00    -0.234 N 
ATOM     16  H12 UNL     1      38.693  54.345  22.485  1.00  0.00     0.174 HD
ATOM     17  H11 UNL     1      38.420  52.718  23.070  1.00  0.00     0.174 HD
ENDBRANCH   1  15
TORSDOF 4
ENDMDL
