MODEL 1
REMARK VINA RESULT: -5.536882029      0.000      0.000
REMARK  3 active torsions:
REMARK  status: ('A' for Active; 'I' for Inactive)
REMARK    1  A    between atoms: C2_2  and  N1_3 
REMARK    2  A    between atoms: C2_2  and  C3_10 
REMARK    3  A    between atoms: N2_5  and  N3_7 
ROOT
HETATM    1  C3  UNL     1      41.184  55.831  19.084  1.00  0.00     0.050 A 
HETATM    2  C4  UNL     1      42.461  56.341  18.981  1.00  0.00     0.034 A 
HETATM    3  C5  UNL     1      43.275  55.961  17.934  1.00  0.00     0.078 A 
HETATM    4  C6  UNL     1      42.843  55.071  16.974  1.00  0.00     0.259 A 
HETATM    5  O1  UNL     1      43.595  54.717  16.004  1.00  0.00    -0.267 OA
HETATM    6  N4  UNL     1      41.591  54.602  17.119  1.00  0.00    -0.266 N 
ATOM      7  H4  UNL     1      41.231  53.941  16.431  1.00  0.00     0.190 HD
HETATM    8  N5  UNL     1      40.809  54.966  18.122  1.00  0.00    -0.300 N 
ATOM      9  H5  UNL     1      39.870  54.571  18.169  1.00  0.00     0.186 HD
ENDROOT
BRANCH   1  10
HETATM   10  C2  UNL     1      40.253  56.204  20.193  1.00  0.00     0.148 C 
HETATM   11  C1  UNL     1      40.927  57.248  21.058  1.00  0.00     0.040 C 
BRANCH  10  12
HETATM   12  N1  UNL     1      40.000  55.050  21.056  1.00  0.00    -0.312 N 
HETATM   13  N2  UNL     1      38.864  54.833  21.568  1.00  0.00    -0.253 N 
ATOM     14  H2  UNL     1      38.078  55.461  21.396  1.00  0.00     0.207 HD
ATOM     15  H1  UNL     1      40.762  54.402  21.250  1.00  0.00     0.182 HD
BRANCH  13  16
HETATM   16  N3  UNL     1      38.724  53.712  22.372  1.00  0.00    -0.331 N 
ATOM     17  H32 UNL     1      39.206  53.660  23.269  1.00  0.00     0.178 HD
ATOM     18  H31 UNL     1      38.129  52.956  22.032  1.00  0.00     0.178 HD
ENDBRANCH  13  16
ENDBRANCH  10  12
ENDBRANCH   1  10
TORSDOF 3
ENDMDL
MODEL 2
REMARK VINA RESULT: -5.535955219      1.026      1.273
REMARK  3 active torsions:
REMARK  status: ('A' for Active; 'I' for Inactive)
REMARK    1  A    between atoms: C2_2  and  N1_3 
REMARK    2  A    between atoms: C2_2  and  C3_10 
REMARK    3  A    between atoms: N2_5  and  N3_7 
ROOT
HETATM    1  C3  UNL     1      40.505  56.349  20.013  1.00  0.00     0.050 A 
HETATM    2  C4  UNL     1      41.698  57.038  19.959  1.00  0.00     0.034 A 
HETATM    3  C5  UNL     1      42.557  56.850  18.896  1.00  0.00     0.078 A 
HETATM    4  C6  UNL     1      42.254  55.979  17.871  1.00  0.00     0.259 A 
HETATM    5  O1  UNL     1      43.047  55.802  16.887  1.00  0.00    -0.267 OA
HETATM    6  N4  UNL     1      41.080  55.332  17.972  1.00  0.00    -0.266 N 
ATOM      7  H4  UNL     1      40.815  54.677  17.235  1.00  0.00     0.190 HD
HETATM    8  N5  UNL     1      40.254  55.511  18.990  1.00  0.00    -0.300 N 
ATOM      9  H5  UNL     1      39.379  54.986  19.000  1.00  0.00     0.186 HD
ENDROOT
BRANCH   1  10
HETATM   10  C2  UNL     1      39.531  56.510  21.137  1.00  0.00     0.148 C 
HETATM   11  C1  UNL     1      40.279  57.009  22.355  1.00  0.00     0.040 C 
BRANCH  10  12
HETATM   12  N1  UNL     1      38.958  55.216  21.502  1.00  0.00    -0.312 N 
HETATM   13  N2  UNL     1      39.318  54.592  22.543  1.00  0.00    -0.253 N 
ATOM     14  H2  UNL     1      40.029  54.974  23.168  1.00  0.00     0.207 HD
ATOM     15  H1  UNL     1      38.245  54.803  20.901  1.00  0.00     0.182 HD
BRANCH  13  16
HETATM   16  N3  UNL     1      38.715  53.372  22.804  1.00  0.00    -0.331 N 
ATOM     17  H32 UNL     1      38.097  53.267  23.609  1.00  0.00     0.178 HD
ATOM     18  H31 UNL     1      38.912  52.600  22.168  1.00  0.00     0.178 HD
ENDBRANCH  13  16
ENDBRANCH  10  12
ENDBRANCH   1  10
TORSDOF 3
ENDMDL
MODEL 3
REMARK VINA RESULT: -5.243418151      1.129      1.213
REMARK  3 active torsions:
REMARK  status: ('A' for Active; 'I' for Inactive)
REMARK    1  A    between atoms: C2_2  and  N1_3 
REMARK    2  A    between atoms: C2_2  and  C3_10 
REMARK    3  A    between atoms: N2_5  and  N3_7 
ROOT
HETATM    1  C3  UNL     1      41.175  56.434  19.603  1.00  0.00     0.050 A 
HETATM    2  C4  UNL     1      42.350  56.818  18.991  1.00  0.00     0.034 A 
HETATM    3  C5  UNL     1      42.738  56.226  17.806  1.00  0.00     0.078 A 
HETATM    4  C6  UNL     1      41.974  55.247  17.208  1.00  0.00     0.259 A 
HETATM    5  O1  UNL     1      42.331  54.697  16.112  1.00  0.00    -0.267 OA
HETATM    6  N4  UNL     1      40.839  54.908  17.844  1.00  0.00    -0.266 N 
ATOM      7  H4  UNL     1      40.244  54.186  17.436  1.00  0.00     0.190 HD
HETATM    8  N5  UNL     1      40.465  55.475  18.980  1.00  0.00    -0.300 N 
ATOM      9  H5  UNL     1      39.591  55.168  19.407  1.00  0.00     0.186 HD
ENDROOT
BRANCH   1  10
HETATM   10  C2  UNL     1      40.700  57.037  20.886  1.00  0.00     0.148 C 
HETATM   11  C1  UNL     1      41.663  58.133  21.290  1.00  0.00     0.040 C 
BRANCH  10  12
HETATM   12  N1  UNL     1      40.729  56.043  21.957  1.00  0.00    -0.312 N 
HETATM   13  N2  UNL     1      39.696  55.747  22.625  1.00  0.00    -0.253 N 
ATOM     14  H2  UNL     1      38.799  56.197  22.438  1.00  0.00     0.207 HD
ATOM     15  H1  UNL     1      41.607  55.574  22.173  1.00  0.00     0.182 HD
BRANCH  13  16
HETATM   16  N3  UNL     1      39.824  54.791  23.621  1.00  0.00    -0.331 N 
ATOM     17  H32 UNL     1      40.327  55.009  24.481  1.00  0.00     0.178 HD
ATOM     18  H31 UNL     1      39.401  53.877  23.458  1.00  0.00     0.178 HD
ENDBRANCH  13  16
ENDBRANCH  10  12
ENDBRANCH   1  10
TORSDOF 3
ENDMDL
MODEL 4
REMARK VINA RESULT: -5.117945689      3.773      5.256
REMARK  3 active torsions:
REMARK  status: ('A' for Active; 'I' for Inactive)
REMARK    1  A    between atoms: C2_2  and  N1_3 
REMARK    2  A    between atoms: C2_2  and  C3_10 
REMARK    3  A    between atoms: N2_5  and  N3_7 
ROOT
HETATM    1  C3  UNL     1      39.683  55.345  21.831  1.00  0.00     0.050 A 
HETATM    2  C4  UNL     1      40.727  55.563  22.704  1.00  0.00     0.034 A 
HETATM    3  C5  UNL     1      40.978  54.664  23.720  1.00  0.00     0.078 A 
HETATM    4  C6  UNL     1      40.202  53.538  23.891  1.00  0.00     0.259 A 
HETATM    5  O1  UNL     1      40.430  52.704  24.832  1.00  0.00    -0.267 OA
HETATM    6  N4  UNL     1      39.196  53.371  23.015  1.00  0.00    -0.266 N 
ATOM      7  H4  UNL     1      38.596  52.550  23.105  1.00  0.00     0.190 HD
HETATM    8  N5  UNL     1      38.955  54.231  22.039  1.00  0.00    -0.300 N 
ATOM      9  H5  UNL     1      38.175  54.040  21.410  1.00  0.00     0.186 HD
ENDROOT
BRANCH   1  10
HETATM   10  C2  UNL     1      39.360  56.279  20.709  1.00  0.00     0.148 C 
HETATM   11  C1  UNL     1      37.859  56.459  20.647  1.00  0.00     0.040 C 
BRANCH  10  12
HETATM   12  N1  UNL     1      39.762  55.697  19.429  1.00  0.00    -0.312 N 
HETATM   13  N2  UNL     1      40.975  55.484  19.140  1.00  0.00    -0.253 N 
ATOM     14  H2  UNL     1      41.722  55.714  19.796  1.00  0.00     0.207 HD
ATOM     15  H1  UNL     1      39.042  55.455  18.749  1.00  0.00     0.182 HD
BRANCH  13  16
HETATM   16  N3  UNL     1      41.254  54.927  17.901  1.00  0.00    -0.331 N 
ATOM     17  H32 UNL     1      40.645  55.115  17.105  1.00  0.00     0.178 HD
ATOM     18  H31 UNL     1      42.080  54.333  17.824  1.00  0.00     0.178 HD
ENDBRANCH  13  16
ENDBRANCH  10  12
ENDBRANCH   1  10
TORSDOF 3
ENDMDL
MODEL 5
REMARK VINA RESULT: -5.088495023      3.213      3.784
REMARK  3 active torsions:
REMARK  status: ('A' for Active; 'I' for Inactive)
REMARK    1  A    between atoms: C2_2  and  N1_3 
REMARK    2  A    between atoms: C2_2  and  C3_10 
REMARK    3  A    between atoms: N2_5  and  N3_7 
ROOT
HETATM    1  C3  UNL     1      40.296  56.564  20.880  1.00  0.00     0.050 A 
HETATM    2  C4  UNL     1      41.272  56.748  19.924  1.00  0.00     0.034 A 
HETATM    3  C5  UNL     1      42.340  57.585  20.179  1.00  0.00     0.078 A 
HETATM    4  C6  UNL     1      42.460  58.252  21.378  1.00  0.00     0.259 A 
HETATM    5  O1  UNL     1      43.447  59.028  21.616  1.00  0.00    -0.267 OA
HETATM    6  N4  UNL     1      41.483  58.040  22.276  1.00  0.00    -0.266 N 
ATOM      7  H4  UNL     1      41.532  58.515  23.178  1.00  0.00     0.190 HD
HETATM    8  N5  UNL     1      40.459  57.238  22.035  1.00  0.00    -0.300 N 
ATOM      9  H5  UNL     1      39.754  57.123  22.763  1.00  0.00     0.186 HD
ENDROOT
BRANCH   1  10
HETATM   10  C2  UNL     1      39.116  55.671  20.666  1.00  0.00     0.148 C 
HETATM   11  C1  UNL     1      37.859  56.512  20.720  1.00  0.00     0.040 C 
BRANCH  10  12
HETATM   12  N1  UNL     1      39.011  54.697  21.752  1.00  0.00    -0.312 N 
HETATM   13  N2  UNL     1      39.765  53.683  21.818  1.00  0.00    -0.253 N 
ATOM     14  H2  UNL     1      40.478  53.507  21.109  1.00  0.00     0.207 HD
ATOM     15  H1  UNL     1      38.310  54.840  22.478  1.00  0.00     0.182 HD
BRANCH  13  16
HETATM   16  N3  UNL     1      39.588  52.817  22.887  1.00  0.00    -0.331 N 
ATOM     17  H32 UNL     1      39.413  53.185  23.822  1.00  0.00     0.178 HD
ATOM     18  H31 UNL     1      39.640  51.816  22.699  1.00  0.00     0.178 HD
ENDBRANCH  13  16
ENDBRANCH  10  12
ENDBRANCH   1  10
TORSDOF 3
ENDMDL
