MODEL 1
REMARK VINA RESULT: -9.818881146      0.000      0.000
REMARK  8 active torsions:
REMARK  status: ('A' for Active; 'I' for Inactive)
REMARK       I    between atoms: C1_2  and  N1_3 
REMARK       I    between atoms: C1_2  and  N5_18 
REMARK    1  A    between atoms: N1_3  and  S1_5 
REMARK    2  A    between atoms: S1_5  and  N2_8 
REMARK    3  A    between atoms: N2_8  and  C2_10 
REMARK    4  A    between atoms: N5_18  and  O4_19 
REMARK    5  A    between atoms: N5_18  and  C6_21 
REMARK    6  A    between atoms: C6_21  and  C7_22 
REMARK    7  A    between atoms: C8_23  and  C9_24 
REMARK    8  A    between atoms: C9_24  and  C10_25 
ROOT
HETATM    1  O1  UNL     1       8.128  48.868 109.730  1.00  0.00    -0.244 OA
HETATM    2  C1  UNL     1       7.367  49.320 110.652  1.00  0.00     0.357 C 
HETATM    3  N1  UNL     1       7.120  48.555 111.823  1.00  0.00    -0.216 N 
ATOM      4  H1  UNL     1       6.517  48.903 112.568  1.00  0.00     0.185 HD
HETATM    5  N5  UNL     1       6.776  50.590 110.487  1.00  0.00    -0.206 N 
ENDROOT
BRANCH   3   6
HETATM    6  S1  UNL     1       7.891  46.995 111.931  1.00  0.00     0.340 S 
HETATM    7  O2  UNL     1       7.242  46.126 112.953  1.00  0.00    -0.182 OA
HETATM    8  O3  UNL     1       9.337  47.161 112.265  1.00  0.00    -0.182 OA
BRANCH   6   9
HETATM    9  N2  UNL     1       7.668  46.257 110.380  1.00  0.00    -0.100 N 
ATOM     10  H2  UNL     1       6.775  46.382 109.904  1.00  0.00     0.199 HD
BRANCH   9  11
HETATM   11  C2  UNL     1       8.673  45.487 109.745  1.00  0.00     0.684 C 
HETATM   12  N3  UNL     1       8.904  45.614 108.504  1.00  0.00    -0.226 N 
HETATM   13  C3  UNL     1       9.919  44.847 107.820  1.00  0.00     0.139 C 
ATOM     14  H3  UNL     1       8.352  46.284 107.969  1.00  0.00     0.177 HD
HETATM   15  C4  UNL     1      11.061  44.460 108.736  1.00  0.00     0.040 C 
HETATM   16  C5  UNL     1      10.442  43.719 109.909  1.00  0.00     0.139 C 
HETATM   17  N4  UNL     1       9.430  44.560 110.511  1.00  0.00    -0.226 N 
ATOM     18  H4  UNL     1       9.255  44.486 111.513  1.00  0.00     0.177 HD
ENDBRANCH   9  11
ENDBRANCH   6   9
ENDBRANCH   3   6
BRANCH   5  19
HETATM   19  O4  UNL     1       7.037  51.300 109.344  1.00  0.00    -0.283 OA
ATOM     20  H4  UNL     1       6.850  52.232 109.329  1.00  0.00     0.245 HD
ENDBRANCH   5  19
BRANCH   5  21
HETATM   21  C6  UNL     1       5.906  51.142 111.497  1.00  0.00     0.188 C 
BRANCH  21  22
HETATM   22  C7  UNL     1       6.308  52.506 111.934  1.00  0.00    -0.009 C 
HETATM   23  C8  UNL     1       7.566  52.900 111.851  1.00  0.00    -0.029 C 
BRANCH  23  24
HETATM   24  C9  UNL     1       8.037  54.248 112.269  1.00  0.00     0.031 C 
BRANCH  24  25
HETATM   25  C10 UNL     1       8.690  54.911 111.112  1.00  0.00    -0.011 C 
HETATM   26  C11 UNL     1       9.959  54.332 110.570  1.00  0.00     0.005 C 
HETATM   27  C12 UNL     1      10.358  55.783 110.232  1.00  0.00     0.001 C 
HETATM   28  C13 UNL     1       9.535  56.146 111.482  1.00  0.00     0.005 C 
ENDBRANCH  24  25
ENDBRANCH  23  24
ENDBRANCH  21  22
ENDBRANCH   5  21
TORSDOF 8
ENDMDL
MODEL 2
REMARK VINA RESULT: -9.506725385      2.160      8.183
REMARK  8 active torsions:
REMARK  status: ('A' for Active; 'I' for Inactive)
REMARK       I    between atoms: C1_2  and  N1_3 
REMARK       I    between atoms: C1_2  and  N5_18 
REMARK    1  A    between atoms: N1_3  and  S1_5 
REMARK    2  A    between atoms: S1_5  and  N2_8 
REMARK    3  A    between atoms: N2_8  and  C2_10 
REMARK    4  A    between atoms: N5_18  and  O4_19 
REMARK    5  A    between atoms: N5_18  and  C6_21 
REMARK    6  A    between atoms: C6_21  and  C7_22 
REMARK    7  A    between atoms: C8_23  and  C9_24 
REMARK    8  A    between atoms: C9_24  and  C10_25 
ROOT
HETATM    1  O1  UNL     1       9.181  49.853 111.934  1.00  0.00    -0.244 OA
HETATM    2  C1  UNL     1       8.344  49.000 111.477  1.00  0.00     0.357 C 
HETATM    3  N1  UNL     1       7.268  49.417 110.650  1.00  0.00    -0.216 N 
ATOM      4  H1  UNL     1       6.595  48.748 110.276  1.00  0.00     0.185 HD
HETATM    5  N5  UNL     1       8.509  47.639 111.807  1.00  0.00    -0.206 N 
ENDROOT
BRANCH   3   6
HETATM    6  S1  UNL     1       7.145  51.121 110.303  1.00  0.00     0.340 S 
HETATM    7  O2  UNL     1       6.209  51.811 111.236  1.00  0.00    -0.182 OA
HETATM    8  O3  UNL     1       6.686  51.325 108.897  1.00  0.00    -0.182 OA
BRANCH   6   9
HETATM    9  N2  UNL     1       8.732  51.764 110.563  1.00  0.00    -0.100 N 
ATOM     10  H2  UNL     1       9.512  51.115 110.660  1.00  0.00     0.199 HD
BRANCH   9  11
HETATM   11  C2  UNL     1       8.993  53.153 110.646  1.00  0.00     0.684 C 
HETATM   12  N3  UNL     1       8.284  53.907 111.382  1.00  0.00    -0.226 N 
HETATM   13  C3  UNL     1       8.517  55.328 111.493  1.00  0.00     0.139 C 
ATOM     14  H3  UNL     1       7.520  53.493 111.914  1.00  0.00     0.177 HD
HETATM   15  C4  UNL     1       9.970  55.690 111.268  1.00  0.00     0.040 C 
HETATM   16  C5  UNL     1      10.352  55.127 109.909  1.00  0.00     0.139 C 
HETATM   17  N4  UNL     1      10.063  53.709 109.895  1.00  0.00    -0.226 N 
ATOM     18  H4  UNL     1      10.643  53.090 109.329  1.00  0.00     0.177 HD
ENDBRANCH   9  11
ENDBRANCH   6   9
ENDBRANCH   3   6
BRANCH   5  19
HETATM   19  O4  UNL     1       9.560  47.272 112.607  1.00  0.00    -0.283 OA
ATOM     20  H4  UNL     1       9.390  46.745 113.378  1.00  0.00     0.245 HD
ENDBRANCH   5  19
BRANCH   5  21
HETATM   21  C6  UNL     1       7.591  46.639 111.319  1.00  0.00     0.188 C 
BRANCH  21  22
HETATM   22  C7  UNL     1       8.260  45.556 110.549  1.00  0.00    -0.009 C 
HETATM   23  C8  UNL     1       8.760  45.789 109.349  1.00  0.00    -0.029 C 
BRANCH  23  24
HETATM   24  C9  UNL     1       9.440  44.753 108.524  1.00  0.00     0.031 C 
BRANCH  24  25
HETATM   25  C10 UNL     1       9.957  45.388 107.286  1.00  0.00    -0.011 C 
HETATM   26  C11 UNL     1       9.197  45.206 106.009  1.00  0.00     0.005 C 
HETATM   27  C12 UNL     1      10.569  45.253 105.304  1.00  0.00     0.001 C 
HETATM   28  C13 UNL     1      11.092  44.603 106.598  1.00  0.00     0.005 C 
ENDBRANCH  24  25
ENDBRANCH  23  24
ENDBRANCH  21  22
ENDBRANCH   5  21
TORSDOF 8
ENDMDL
MODEL 3
REMARK VINA RESULT: -9.454141331      2.203      8.286
REMARK  8 active torsions:
REMARK  status: ('A' for Active; 'I' for Inactive)
REMARK       I    between atoms: C1_2  and  N1_3 
REMARK       I    between atoms: C1_2  and  N5_18 
REMARK    1  A    between atoms: N1_3  and  S1_5 
REMARK    2  A    between atoms: S1_5  and  N2_8 
REMARK    3  A    between atoms: N2_8  and  C2_10 
REMARK    4  A    between atoms: N5_18  and  O4_19 
REMARK    5  A    between atoms: N5_18  and  C6_21 
REMARK    6  A    between atoms: C6_21  and  C7_22 
REMARK    7  A    between atoms: C8_23  and  C9_24 
REMARK    8  A    between atoms: C9_24  and  C10_25 
ROOT
HETATM    1  O1  UNL     1       6.182  49.090 112.302  1.00  0.00    -0.244 OA
HETATM    2  C1  UNL     1       7.228  48.589 111.763  1.00  0.00     0.357 C 
HETATM    3  N1  UNL     1       8.094  49.397 110.981  1.00  0.00    -0.216 N 
ATOM      4  H1  UNL     1       8.933  49.012 110.547  1.00  0.00     0.185 HD
HETATM    5  N5  UNL     1       7.506  47.220 111.958  1.00  0.00    -0.206 N 
ENDROOT
BRANCH   3   6
HETATM    6  S1  UNL     1       7.663  51.075 110.793  1.00  0.00     0.340 S 
HETATM    7  O2  UNL     1       7.079  51.641 112.043  1.00  0.00    -0.182 OA
HETATM    8  O3  UNL     1       6.687  51.231 109.674  1.00  0.00    -0.182 OA
BRANCH   6   9
HETATM    9  N2  UNL     1       9.148  51.906 110.473  1.00  0.00    -0.100 N 
ATOM     10  H2  UNL     1       9.965  51.358 110.201  1.00  0.00     0.199 HD
BRANCH   9  11
HETATM   11  C2  UNL     1       9.279  53.312 110.570  1.00  0.00     0.684 C 
HETATM   12  N3  UNL     1       8.504  53.988 111.314  1.00  0.00    -0.226 N 
HETATM   13  C3  UNL     1       8.604  55.424 111.440  1.00  0.00     0.139 C 
ATOM     14  H3  UNL     1       7.783  53.499 111.843  1.00  0.00     0.177 HD
HETATM   15  C4  UNL     1      10.016  55.922 111.218  1.00  0.00     0.040 C 
HETATM   16  C5  UNL     1      10.446  55.411 109.853  1.00  0.00     0.139 C 
HETATM   17  N4  UNL     1      10.291  53.972 109.824  1.00  0.00    -0.226 N 
ATOM     18  H4  UNL     1      10.926  53.417 109.251  1.00  0.00     0.177 HD
ENDBRANCH   9  11
ENDBRANCH   6   9
ENDBRANCH   3   6
BRANCH   5  19
HETATM   19  O4  UNL     1       6.648  46.469 112.719  1.00  0.00    -0.283 OA
ATOM     20  H4  UNL     1       6.683  45.522 112.654  1.00  0.00     0.245 HD
ENDBRANCH   5  19
BRANCH   5  21
HETATM   21  C6  UNL     1       8.671  46.607 111.368  1.00  0.00     0.188 C 
BRANCH  21  22
HETATM   22  C7  UNL     1       8.494  46.278 109.927  1.00  0.00    -0.009 C 
HETATM   23  C8  UNL     1       9.199  45.315 109.362  1.00  0.00    -0.029 C 
BRANCH  23  24
HETATM   24  C9  UNL     1       9.073  44.935 107.928  1.00  0.00     0.031 C 
BRANCH  24  25
HETATM   25  C10 UNL     1      10.326  45.304 107.222  1.00  0.00    -0.011 C 
HETATM   26  C11 UNL     1      10.524  44.839 105.812  1.00  0.00     0.005 C 
HETATM   27  C12 UNL     1      12.027  44.765 106.155  1.00  0.00     0.001 C 
HETATM   28  C13 UNL     1      11.537  44.416 107.573  1.00  0.00     0.005 C 
ENDBRANCH  24  25
ENDBRANCH  23  24
ENDBRANCH  21  22
ENDBRANCH   5  21
TORSDOF 8
ENDMDL
MODEL 4
REMARK VINA RESULT: -9.236935031      2.634      8.209
REMARK  8 active torsions:
REMARK  status: ('A' for Active; 'I' for Inactive)
REMARK       I    between atoms: C1_2  and  N1_3 
REMARK       I    between atoms: C1_2  and  N5_18 
REMARK    1  A    between atoms: N1_3  and  S1_5 
REMARK    2  A    between atoms: S1_5  and  N2_8 
REMARK    3  A    between atoms: N2_8  and  C2_10 
REMARK    4  A    between atoms: N5_18  and  O4_19 
REMARK    5  A    between atoms: N5_18  and  C6_21 
REMARK    6  A    between atoms: C6_21  and  C7_22 
REMARK    7  A    between atoms: C8_23  and  C9_24 
REMARK    8  A    between atoms: C9_24  and  C10_25 
ROOT
HETATM    1  O1  UNL     1       7.093  50.201 108.103  1.00  0.00    -0.244 OA
HETATM    2  C1  UNL     1       7.603  49.037 108.250  1.00  0.00     0.357 C 
HETATM    3  N1  UNL     1       8.192  48.659 109.485  1.00  0.00    -0.216 N 
ATOM      4  H1  UNL     1       8.600  47.734 109.619  1.00  0.00     0.185 HD
HETATM    5  N5  UNL     1       7.570  48.137 107.165  1.00  0.00    -0.206 N 
ENDROOT
BRANCH   3   6
HETATM    6  S1  UNL     1       8.189  49.844 110.764  1.00  0.00     0.340 S 
HETATM    7  O2  UNL     1       9.110  49.465 111.873  1.00  0.00    -0.182 OA
HETATM    8  O3  UNL     1       6.806  50.014 111.302  1.00  0.00    -0.182 OA
BRANCH   6   9
HETATM    9  N2  UNL     1       8.785  51.304 110.048  1.00  0.00    -0.100 N 
ATOM     10  H2  UNL     1       9.168  51.263 109.103  1.00  0.00     0.199 HD
BRANCH   9  11
HETATM   11  C2  UNL     1       8.763  52.552 110.716  1.00  0.00     0.684 C 
HETATM   12  N3  UNL     1       9.676  53.411 110.522  1.00  0.00    -0.226 N 
HETATM   13  C3  UNL     1       9.690  54.695 111.186  1.00  0.00     0.139 C 
ATOM     14  H3  UNL     1      10.430  53.187 109.873  1.00  0.00     0.177 HD
HETATM   15  C4  UNL     1       8.296  55.179 111.526  1.00  0.00     0.040 C 
HETATM   16  C5  UNL     1       7.648  54.085 112.357  1.00  0.00     0.139 C 
HETATM   17  N4  UNL     1       7.703  52.842 111.616  1.00  0.00    -0.226 N 
ATOM     18  H4  UNL     1       6.959  52.156 111.744  1.00  0.00     0.177 HD
ENDBRANCH   9  11
ENDBRANCH   6   9
ENDBRANCH   3   6
BRANCH   5  19
HETATM   19  O4  UNL     1       6.993  48.535 105.988  1.00  0.00    -0.283 OA
ATOM     20  H4  UNL     1       6.182  48.125 105.711  1.00  0.00     0.245 HD
ENDBRANCH   5  19
BRANCH   5  21
HETATM   21  C6  UNL     1       8.135  46.814 107.281  1.00  0.00     0.188 C 
BRANCH  21  22
HETATM   22  C7  UNL     1       8.995  46.442 106.125  1.00  0.00    -0.009 C 
HETATM   23  C8  UNL     1       9.694  45.321 106.136  1.00  0.00    -0.029 C 
BRANCH  23  24
HETATM   24  C9  UNL     1      10.574  44.888 105.016  1.00  0.00     0.031 C 
BRANCH  24  25
HETATM   25  C10 UNL     1      11.983  44.891 105.484  1.00  0.00    -0.011 C 
HETATM   26  C11 UNL     1      12.256  44.832 106.956  1.00  0.00     0.005 C 
HETATM   27  C12 UNL     1      13.498  45.697 106.657  1.00  0.00     0.001 C 
HETATM   28  C13 UNL     1      12.635  46.287 105.526  1.00  0.00     0.005 C 
ENDBRANCH  24  25
ENDBRANCH  23  24
ENDBRANCH  21  22
ENDBRANCH   5  21
TORSDOF 8
ENDMDL
MODEL 5
REMARK VINA RESULT: -9.233298937      1.422      1.616
REMARK  8 active torsions:
REMARK  status: ('A' for Active; 'I' for Inactive)
REMARK       I    between atoms: C1_2  and  N1_3 
REMARK       I    between atoms: C1_2  and  N5_18 
REMARK    1  A    between atoms: N1_3  and  S1_5 
REMARK    2  A    between atoms: S1_5  and  N2_8 
REMARK    3  A    between atoms: N2_8  and  C2_10 
REMARK    4  A    between atoms: N5_18  and  O4_19 
REMARK    5  A    between atoms: N5_18  and  C6_21 
REMARK    6  A    between atoms: C6_21  and  C7_22 
REMARK    7  A    between atoms: C8_23  and  C9_24 
REMARK    8  A    between atoms: C9_24  and  C10_25 
ROOT
HETATM    1  O1  UNL     1       5.523  48.614 113.133  1.00  0.00    -0.244 OA
HETATM    2  C1  UNL     1       6.017  49.442 112.293  1.00  0.00     0.357 C 
HETATM    3  N1  UNL     1       7.125  49.074 111.485  1.00  0.00    -0.216 N 
ATOM      4  H1  UNL     1       7.528  49.723 110.809  1.00  0.00     0.185 HD
HETATM    5  N5  UNL     1       5.443  50.725 112.182  1.00  0.00    -0.206 N 
ENDROOT
BRANCH   3   6
HETATM    6  S1  UNL     1       7.767  47.468 111.699  1.00  0.00     0.340 S 
HETATM    7  O2  UNL     1       6.965  46.675 112.673  1.00  0.00    -0.182 OA
HETATM    8  O3  UNL     1       9.185  47.541 112.164  1.00  0.00    -0.182 OA
BRANCH   6   9
HETATM    9  N2  UNL     1       7.636  46.704 110.150  1.00  0.00    -0.100 N 
ATOM     10  H2  UNL     1       6.826  46.917 109.567  1.00  0.00     0.199 HD
BRANCH   9  11
HETATM   11  C2  UNL     1       8.605  45.797 109.657  1.00  0.00     0.684 C 
HETATM   12  N3  UNL     1       8.879  45.745 108.419  1.00  0.00    -0.226 N 
HETATM   13  C3  UNL     1       9.860  44.832 107.877  1.00  0.00     0.139 C 
ATOM     14  H3  UNL     1       8.389  46.372 107.782  1.00  0.00     0.177 HD
HETATM   15  C4  UNL     1      10.946  44.498 108.878  1.00  0.00     0.040 C 
HETATM   16  C5  UNL     1      10.246  43.957 110.112  1.00  0.00     0.139 C 
HETATM   17  N4  UNL     1       9.275  44.932 110.563  1.00  0.00    -0.226 N 
ATOM     18  H4  UNL     1       9.067  45.001 111.559  1.00  0.00     0.177 HD
ENDBRANCH   9  11
ENDBRANCH   6   9
ENDBRANCH   3   6
BRANCH   5  19
HETATM   19  O4  UNL     1       4.374  51.046 112.978  1.00  0.00    -0.283 OA
ATOM     20  H4  UNL     1       3.642  50.443 113.029  1.00  0.00     0.245 HD
ENDBRANCH   5  19
BRANCH   5  21
HETATM   21  C6  UNL     1       5.966  51.696 111.252  1.00  0.00     0.188 C 
BRANCH  21  22
HETATM   22  C7  UNL     1       7.136  52.446 111.784  1.00  0.00    -0.009 C 
HETATM   23  C8  UNL     1       8.259  52.526 111.094  1.00  0.00    -0.029 C 
BRANCH  23  24
HETATM   24  C9  UNL     1       9.466  53.258 111.567  1.00  0.00     0.031 C 
BRANCH  24  25
HETATM   25  C10 UNL     1       9.633  54.487 110.750  1.00  0.00    -0.011 C 
HETATM   26  C11 UNL     1      10.925  55.239 110.832  1.00  0.00     0.005 C 
HETATM   27  C12 UNL     1      10.083  56.510 110.599  1.00  0.00     0.001 C 
HETATM   28  C13 UNL     1       8.984  55.745 111.360  1.00  0.00     0.005 C 
ENDBRANCH  24  25
ENDBRANCH  23  24
ENDBRANCH  21  22
ENDBRANCH   5  21
TORSDOF 8
ENDMDL
