MODEL 1
REMARK VINA RESULT: -7.427588640      0.000      0.000
REMARK  4 active torsions:
REMARK  status: ('A' for Active; 'I' for Inactive)
REMARK    1  A    between atoms: C2_2  and  C3_3 
REMARK       I    between atoms: C3_3  and  N1_5 
REMARK    2  A    between atoms: N1_5  and  C4_7 
REMARK    3  A    between atoms: C6_13  and  N4_14 
REMARK    4  A    between atoms: C11_22  and  N6_23 
ROOT
HETATM    1  C4  UNL     1      10.805   0.281   3.526  1.00  0.00     0.701 A 
HETATM    2  N2  UNL     1      11.227   1.093   2.546  1.00  0.00    -0.131 N 
ATOM      3  H2  UNL     1      11.099   2.099   2.656  1.00  0.00     0.205 HD
HETATM    4  N3  UNL     1      11.802   0.644   1.443  1.00  0.00    -0.280 N 
ATOM      5  H3  UNL     1      12.102   1.312   0.732  1.00  0.00     0.188 HD
HETATM    6  C5  UNL     1      12.002  -0.676   1.234  1.00  0.00     0.138 A 
HETATM    7  C6  UNL     1      12.589  -1.191   0.113  1.00  0.00     0.151 A 
HETATM    8  N5  UNL     1      12.772  -2.541  -0.055  1.00  0.00    -0.174 N 
ATOM      9  H5  UNL     1      13.213  -2.911  -0.897  1.00  0.00     0.186 HD
HETATM   10  C11 UNL     1      12.352  -3.363   0.926  1.00  0.00     0.679 A 
HETATM   11  N7  UNL     1      11.774  -2.860   2.026  1.00  0.00    -0.174 N 
ATOM     12  H7  UNL     1      11.466  -3.508   2.751  1.00  0.00     0.186 HD
HETATM   13  C12 UNL     1      11.582  -1.546   2.219  1.00  0.00     0.168 A 
HETATM   14  N8  UNL     1      11.000  -1.055   3.329  1.00  0.00    -0.172 N 
ATOM     15  H8  UNL     1      10.693  -1.707   4.051  1.00  0.00     0.186 HD
ENDROOT
BRANCH   1  16
HETATM   16  N1  UNL     1      10.190   0.743   4.720  1.00  0.00    -0.155 N 
HETATM   17  C3  UNL     1       9.352   1.868   4.771  1.00  0.00     0.258 C 
HETATM   18  O1  UNL     1       9.084   2.556   3.725  1.00  0.00    -0.268 OA
ATOM     19  H1  UNL     1      10.366   0.231   5.584  1.00  0.00     0.187 HD
BRANCH  17  20
HETATM   20  C2  UNL     1       8.747   2.308   6.015  1.00  0.00     0.065 C 
HETATM   21  C1  UNL     1       8.002   1.493   6.756  1.00  0.00     0.017 C 
ENDBRANCH  17  20
ENDBRANCH   1  16
BRANCH   7  22
HETATM   22  N4  UNL     1      13.027  -0.303  -0.889  1.00  0.00    -0.361 N 
HETATM   23  C7  UNL     1      14.435  -0.029  -1.031  1.00  0.00     0.150 C 
HETATM   24  C8  UNL     1      14.639   0.677  -2.382  1.00  0.00     0.187 C 
HETATM   25  O2  UNL     1      13.941   1.868  -2.377  1.00  0.00    -0.388 OA
HETATM   26  C9  UNL     1      12.609   1.759  -2.098  1.00  0.00     0.187 C 
HETATM   27  C10 UNL     1      12.121   0.368  -1.793  1.00  0.00     0.150 C 
ENDBRANCH   7  22
BRANCH  10  28
HETATM   28  N6  UNL     1      12.523  -4.661   0.768  1.00  0.00    -0.234 N 
ATOM     29  H62 UNL     1      12.242  -5.135  -0.091  1.00  0.00     0.174 HD
ATOM     30  H61 UNL     1      12.948  -5.189   1.531  1.00  0.00     0.174 HD
ENDBRANCH  10  28
TORSDOF 4
ENDMDL
MODEL 2
REMARK VINA RESULT: -7.410563117      2.245      2.987
REMARK  4 active torsions:
REMARK  status: ('A' for Active; 'I' for Inactive)
REMARK    1  A    between atoms: C2_2  and  C3_3 
REMARK       I    between atoms: C3_3  and  N1_5 
REMARK    2  A    between atoms: N1_5  and  C4_7 
REMARK    3  A    between atoms: C6_13  and  N4_14 
REMARK    4  A    between atoms: C11_22  and  N6_23 
ROOT
HETATM    1  C4  UNL     1      10.544   0.612   2.878  1.00  0.00     0.701 A 
HETATM    2  N2  UNL     1       9.664   0.611   1.867  1.00  0.00    -0.131 N 
ATOM      3  H2  UNL     1       8.680   0.782   2.074  1.00  0.00     0.205 HD
HETATM    4  N3  UNL     1      10.019   0.397   0.610  1.00  0.00    -0.280 N 
ATOM      5  H3  UNL     1       9.304   0.408  -0.117  1.00  0.00     0.188 HD
HETATM    6  C5  UNL     1      11.306   0.163   0.266  1.00  0.00     0.138 A 
HETATM    7  C6  UNL     1      11.723  -0.065  -1.015  1.00  0.00     0.151 A 
HETATM    8  N5  UNL     1      13.042  -0.296  -1.316  1.00  0.00    -0.174 N 
ATOM      9  H5  UNL     1      13.340  -0.464  -2.276  1.00  0.00     0.186 HD
HETATM   10  C11 UNL     1      13.932  -0.295  -0.305  1.00  0.00     0.679 A 
HETATM   11  N7  UNL     1      13.524  -0.073   0.952  1.00  0.00    -0.174 N 
ATOM     12  H7  UNL     1      14.221  -0.078   1.697  1.00  0.00     0.186 HD
HETATM   13  C12 UNL     1      12.242   0.157   1.279  1.00  0.00     0.168 A 
HETATM   14  N8  UNL     1      11.847   0.378   2.546  1.00  0.00    -0.172 N 
ATOM     15  H8  UNL     1      12.548   0.371   3.287  1.00  0.00     0.186 HD
ENDROOT
BRANCH   1  16
HETATM   16  N1  UNL     1      10.185   0.845   4.232  1.00  0.00    -0.155 N 
HETATM   17  C3  UNL     1       9.364   1.908   4.641  1.00  0.00     0.258 C 
HETATM   18  O1  UNL     1       8.878   2.744   3.803  1.00  0.00    -0.268 OA
ATOM     19  H1  UNL     1      10.541   0.206   4.944  1.00  0.00     0.187 HD
BRANCH  17  20
HETATM   20  C2  UNL     1       9.026   2.111   6.039  1.00  0.00     0.065 C 
HETATM   21  C1  UNL     1       8.006   1.477   6.609  1.00  0.00     0.017 C 
ENDBRANCH  17  20
ENDBRANCH   1  16
BRANCH   7  22
HETATM   22  N4  UNL     1      10.769  -0.048  -2.050  1.00  0.00    -0.361 N 
HETATM   23  C7  UNL     1       9.710  -1.026  -2.057  1.00  0.00     0.150 C 
HETATM   24  C8  UNL     1       8.655  -0.562  -3.075  1.00  0.00     0.187 C 
HETATM   25  O2  UNL     1       9.231  -0.506  -4.328  1.00  0.00    -0.388 OA
HETATM   26  C9  UNL     1      10.348   0.275  -4.418  1.00  0.00     0.187 C 
HETATM   27  C10 UNL     1      10.802   0.910  -3.131  1.00  0.00     0.150 C 
ENDBRANCH   7  22
BRANCH  10  28
HETATM   28  N6  UNL     1      15.200  -0.519  -0.589  1.00  0.00    -0.234 N 
ATOM     29  H62 UNL     1      15.915   0.191  -0.435  1.00  0.00     0.174 HD
ATOM     30  H61 UNL     1      15.456  -1.431  -0.970  1.00  0.00     0.174 HD
ENDBRANCH  10  28
TORSDOF 4
ENDMDL
MODEL 3
REMARK VINA RESULT: -7.066391789      1.979      2.586
REMARK  4 active torsions:
REMARK  status: ('A' for Active; 'I' for Inactive)
REMARK    1  A    between atoms: C2_2  and  C3_3 
REMARK       I    between atoms: C3_3  and  N1_5 
REMARK    2  A    between atoms: N1_5  and  C4_7 
REMARK    3  A    between atoms: C6_13  and  N4_14 
REMARK    4  A    between atoms: C11_22  and  N6_23 
ROOT
HETATM    1  C4  UNL     1      10.702   0.533   2.954  1.00  0.00     0.701 A 
HETATM    2  N2  UNL     1      12.006   0.481   2.651  1.00  0.00    -0.131 N 
ATOM      3  H2  UNL     1      12.688   0.607   3.399  1.00  0.00     0.205 HD
HETATM    4  N3  UNL     1      12.447   0.273   1.421  1.00  0.00    -0.280 N 
ATOM      5  H3  UNL     1      13.452   0.244   1.251  1.00  0.00     0.188 HD
HETATM    6  C5  UNL     1      11.598   0.099   0.383  1.00  0.00     0.138 A 
HETATM    7  C6  UNL     1      12.001  -0.118  -0.904  1.00  0.00     0.151 A 
HETATM    8  N5  UNL     1      11.101  -0.291  -1.926  1.00  0.00    -0.174 N 
ATOM      9  H5  UNL     1      11.416  -0.452  -2.882  1.00  0.00     0.186 HD
HETATM   10  C11 UNL     1       9.788  -0.241  -1.628  1.00  0.00     0.679 A 
HETATM   11  N7  UNL     1       9.391  -0.027  -0.366  1.00  0.00    -0.174 N 
ATOM     12  H7  UNL     1       8.390   0.006  -0.171  1.00  0.00     0.186 HD
HETATM   13  C12 UNL     1      10.246   0.145   0.654  1.00  0.00     0.168 A 
HETATM   14  N8  UNL     1       9.832   0.359   1.917  1.00  0.00    -0.172 N 
ATOM     15  H8  UNL     1       8.830   0.392   2.106  1.00  0.00     0.186 HD
ENDROOT
BRANCH   1  16
HETATM   16  N1  UNL     1      10.208   0.751   4.268  1.00  0.00    -0.155 N 
HETATM   17  C3  UNL     1       9.451   1.875   4.632  1.00  0.00     0.258 C 
HETATM   18  O1  UNL     1       9.151   2.788   3.785  1.00  0.00    -0.268 OA
ATOM     19  H1  UNL     1      10.415   0.054   4.984  1.00  0.00     0.187 HD
BRANCH  17  20
HETATM   20  C2  UNL     1       8.970   2.060   5.990  1.00  0.00     0.065 C 
HETATM   21  C1  UNL     1       7.911   1.403   6.450  1.00  0.00     0.017 C 
ENDBRANCH  17  20
ENDBRANCH   1  16
BRANCH   7  22
HETATM   22  N4  UNL     1      13.381  -0.175  -1.180  1.00  0.00    -0.361 N 
HETATM   23  C7  UNL     1      14.121  -1.369  -0.859  1.00  0.00     0.150 C 
HETATM   24  C8  UNL     1      15.483  -1.278  -1.567  1.00  0.00     0.187 C 
HETATM   25  O2  UNL     1      16.166  -0.177  -1.091  1.00  0.00    -0.388 OA
HETATM   26  C9  UNL     1      15.499   1.010  -1.197  1.00  0.00     0.187 C 
HETATM   27  C10 UNL     1      14.109   0.925  -1.769  1.00  0.00     0.150 C 
ENDBRANCH   7  22
BRANCH  10  28
HETATM   28  N6  UNL     1       8.920  -0.403  -2.607  1.00  0.00    -0.234 N 
ATOM     29  H62 UNL     1       9.086  -1.070  -3.362  1.00  0.00     0.174 HD
ATOM     30  H61 UNL     1       8.066   0.156  -2.594  1.00  0.00     0.174 HD
ENDBRANCH  10  28
TORSDOF 4
ENDMDL
MODEL 4
REMARK VINA RESULT: -6.734924215      3.542      7.704
REMARK  4 active torsions:
REMARK  status: ('A' for Active; 'I' for Inactive)
REMARK    1  A    between atoms: C2_2  and  C3_3 
REMARK       I    between atoms: C3_3  and  N1_5 
REMARK    2  A    between atoms: N1_5  and  C4_7 
REMARK    3  A    between atoms: C6_13  and  N4_14 
REMARK    4  A    between atoms: C11_22  and  N6_23 
ROOT
HETATM    1  C4  UNL     1      10.699   0.397  -4.191  1.00  0.00     0.701 A 
HETATM    2  N2  UNL     1      10.069  -0.131  -3.133  1.00  0.00    -0.131 N 
ATOM      3  H2  UNL     1       9.129  -0.506  -3.260  1.00  0.00     0.205 HD
HETATM    4  N3  UNL     1      10.616  -0.186  -1.929  1.00  0.00    -0.280 N 
ATOM      5  H3  UNL     1      10.087  -0.600  -1.162  1.00  0.00     0.188 HD
HETATM    6  C5  UNL     1      11.858   0.292  -1.691  1.00  0.00     0.138 A 
HETATM    7  C6  UNL     1      12.467   0.260  -0.469  1.00  0.00     0.151 A 
HETATM    8  N5  UNL     1      13.731   0.757  -0.276  1.00  0.00    -0.174 N 
ATOM      9  H5  UNL     1      14.174   0.726   0.643  1.00  0.00     0.186 HD
HETATM   10  C11 UNL     1      14.371   1.289  -1.335  1.00  0.00     0.679 A 
HETATM   11  N7  UNL     1      13.775   1.322  -2.535  1.00  0.00    -0.174 N 
ATOM     12  H7  UNL     1      14.285   1.731  -3.319  1.00  0.00     0.186 HD
HETATM   13  C12 UNL     1      12.541   0.844  -2.756  1.00  0.00     0.168 A 
HETATM   14  N8  UNL     1      11.955   0.884  -3.967  1.00  0.00    -0.172 N 
ATOM     15  H8  UNL     1      12.468   1.295  -4.747  1.00  0.00     0.186 HD
ENDROOT
BRANCH   1  16
HETATM   16  N1  UNL     1      10.132   0.462  -5.492  1.00  0.00    -0.155 N 
HETATM   17  C3  UNL     1      10.788  -0.000  -6.644  1.00  0.00     0.258 C 
HETATM   18  O1  UNL     1      11.956  -0.521  -6.590  1.00  0.00    -0.268 OA
ATOM     19  H1  UNL     1       9.201   0.865  -5.594  1.00  0.00     0.187 HD
BRANCH  17  20
HETATM   20  C2  UNL     1      10.173   0.090  -7.956  1.00  0.00     0.065 C 
HETATM   21  C1  UNL     1       9.717  -0.987  -8.588  1.00  0.00     0.017 C 
ENDBRANCH  17  20
ENDBRANCH   1  16
BRANCH   7  22
HETATM   22  N4  UNL     1      11.774  -0.313   0.616  1.00  0.00    -0.361 N 
HETATM   23  C7  UNL     1      12.343  -1.442   1.306  1.00  0.00     0.150 C 
HETATM   24  C8  UNL     1      11.564  -1.627   2.620  1.00  0.00     0.187 C 
HETATM   25  O2  UNL     1      10.242  -1.892   2.325  1.00  0.00    -0.388 OA
HETATM   26  C9  UNL     1       9.626  -0.962   1.537  1.00  0.00     0.187 C 
HETATM   27  C10 UNL     1      10.495   0.177   1.075  1.00  0.00     0.150 C 
ENDBRANCH   7  22
BRANCH  10  28
HETATM   28  N6  UNL     1      15.585   1.770  -1.154  1.00  0.00    -0.234 N 
ATOM     29  H62 UNL     1      15.854   2.224  -0.280  1.00  0.00     0.174 HD
ATOM     30  H61 UNL     1      16.260   1.679  -1.914  1.00  0.00     0.174 HD
ENDBRANCH  10  28
TORSDOF 4
ENDMDL
MODEL 5
REMARK VINA RESULT: -6.710908688      2.054      3.285
REMARK  4 active torsions:
REMARK  status: ('A' for Active; 'I' for Inactive)
REMARK    1  A    between atoms: C2_2  and  C3_3 
REMARK       I    between atoms: C3_3  and  N1_5 
REMARK    2  A    between atoms: N1_5  and  C4_7 
REMARK    3  A    between atoms: C6_13  and  N4_14 
REMARK    4  A    between atoms: C11_22  and  N6_23 
ROOT
HETATM    1  C4  UNL     1      10.601   0.285   3.568  1.00  0.00     0.701 A 
HETATM    2  N2  UNL     1      11.640  -0.556   3.470  1.00  0.00    -0.131 N 
ATOM      3  H2  UNL     1      12.112  -0.852   4.325  1.00  0.00     0.205 HD
HETATM    4  N3  UNL     1      12.079  -1.019   2.312  1.00  0.00    -0.280 N 
ATOM      5  H3  UNL     1      12.875  -1.657   2.301  1.00  0.00     0.188 HD
HETATM    6  C5  UNL     1      11.500  -0.668   1.142  1.00  0.00     0.138 A 
HETATM    7  C6  UNL     1      11.915  -1.117  -0.080  1.00  0.00     0.151 A 
HETATM    8  N5  UNL     1      11.294  -0.733  -1.242  1.00  0.00    -0.174 N 
ATOM      9  H5  UNL     1      11.614  -1.076  -2.147  1.00  0.00     0.186 HD
HETATM   10  C11 UNL     1      10.248   0.111  -1.152  1.00  0.00     0.679 A 
HETATM   11  N7  UNL     1       9.840   0.554   0.046  1.00  0.00    -0.174 N 
ATOM     12  H7  UNL     1       9.046   1.193   0.082  1.00  0.00     0.186 HD
HETATM   13  C12 UNL     1      10.426   0.196   1.199  1.00  0.00     0.168 A 
HETATM   14  N8  UNL     1      10.006   0.649   2.395  1.00  0.00    -0.172 N 
ATOM     15  H8  UNL     1       9.211   1.288   2.426  1.00  0.00     0.186 HD
ENDROOT
BRANCH   1  16
HETATM   16  N1  UNL     1      10.112   0.790   4.802  1.00  0.00    -0.155 N 
HETATM   17  C3  UNL     1       9.319   1.944   4.903  1.00  0.00     0.258 C 
HETATM   18  O1  UNL     1       8.980   2.621   3.871  1.00  0.00    -0.268 OA
ATOM     19  H1  UNL     1      10.348   0.288   5.658  1.00  0.00     0.187 HD
BRANCH  17  20
HETATM   20  C2  UNL     1       8.843   2.428   6.187  1.00  0.00     0.065 C 
HETATM   21  C1  UNL     1       8.190   1.636   7.032  1.00  0.00     0.017 C 
ENDBRANCH  17  20
ENDBRANCH   1  16
BRANCH   7  22
HETATM   22  N4  UNL     1      13.005  -2.007  -0.139  1.00  0.00    -0.361 N 
HETATM   23  C7  UNL     1      12.806  -3.396   0.189  1.00  0.00     0.150 C 
HETATM   24  C8  UNL     1      14.049  -4.169  -0.285  1.00  0.00     0.187 C 
HETATM   25  O2  UNL     1      15.157  -3.697   0.387  1.00  0.00    -0.388 OA
HETATM   26  C9  UNL     1      15.370  -2.352   0.281  1.00  0.00     0.187 C 
HETATM   27  C10 UNL     1      14.338  -1.591  -0.508  1.00  0.00     0.150 C 
ENDBRANCH   7  22
BRANCH  10  28
HETATM   28  N6  UNL     1       9.650   0.485  -2.266  1.00  0.00    -0.234 N 
ATOM     29  H62 UNL     1      10.137   0.473  -3.163  1.00  0.00     0.174 HD
ATOM     30  H61 UNL     1       8.678   0.790  -2.214  1.00  0.00     0.174 HD
ENDBRANCH  10  28
TORSDOF 4
ENDMDL
