MODEL 1
REMARK VINA RESULT: -7.233851646      0.000      0.000
REMARK  4 active torsions:
REMARK  status: ('A' for Active; 'I' for Inactive)
REMARK    1  A    between atoms: C5_8  and  C6_9 
REMARK       I    between atoms: C6_9  and  N3_11 
REMARK    2  A    between atoms: N3_11  and  N4_13 
REMARK    3  A    between atoms: C7_15  and  C8_16 
REMARK    4  A    between atoms: C9_22  and  N7_23 
ROOT
HETATM    1  C1  UNL     1      12.246   0.297   0.443  1.00  0.00     0.070 C 
HETATM    2  C2  UNL     1      11.778   0.339  -0.986  1.00  0.00     0.028 A 
HETATM    3  N1  UNL     1      10.591  -0.191  -1.331  1.00  0.00    -0.348 N 
ATOM      4  H1  UNL     1      10.004  -0.623  -0.618  1.00  0.00     0.166 HD
HETATM    5  C3  UNL     1      10.163  -0.153  -2.633  1.00  0.00     0.146 A 
HETATM    6  C4  UNL     1       8.895  -0.723  -2.980  1.00  0.00     0.120 C 
HETATM    7  N2  UNL     1       7.847  -1.198  -3.238  1.00  0.00    -0.190 NA
HETATM    8  C5  UNL     1      10.986   0.437  -3.551  1.00  0.00     0.140 A 
HETATM    9  N8  UNL     1      12.192   0.974  -3.194  1.00  0.00    -0.351 N 
ATOM     10  H8  UNL     1      12.784   1.408  -3.903  1.00  0.00     0.166 HD
HETATM   11  C10 UNL     1      12.600   0.931  -1.919  1.00  0.00     0.028 A 
HETATM   12  C11 UNL     1      13.899   1.496  -1.469  1.00  0.00     0.070 C 
ENDROOT
BRANCH   8  13
HETATM   13  C6  UNL     1      10.571   0.498  -4.947  1.00  0.00     0.289 C 
HETATM   14  O1  UNL     1       9.567   1.150  -5.332  1.00  0.00    -0.264 OA
HETATM   15  N3  UNL     1      11.332  -0.210  -5.928  1.00  0.00    -0.265 N 
ATOM     16  H3  UNL     1      12.149  -0.743  -5.631  1.00  0.00     0.190 HD
BRANCH  15  17
HETATM   17  N4  UNL     1      10.991  -0.195  -7.278  1.00  0.00    -0.307 N 
HETATM   18  C7  UNL     1      11.747  -0.725  -8.192  1.00  0.00     0.142 C 
ATOM     19  H4  UNL     1      10.116   0.248  -7.559  1.00  0.00     0.186 HD
BRANCH  18  20
HETATM   20  C8  UNL     1      11.370  -0.698  -9.599  1.00  0.00     0.118 A 
HETATM   21  N5  UNL     1      10.373  -1.364 -10.194  1.00  0.00    -0.237 N 
HETATM   22  O2  UNL     1      10.367  -1.065 -11.476  1.00  0.00    -0.155 OA
ATOM     23  H5  UNL     1       9.725  -2.000  -9.730  1.00  0.00     0.197 HD
HETATM   24  N6  UNL     1      11.328  -0.224 -11.736  1.00  0.00    -0.224 N 
HETATM   25  C9  UNL     1      11.976   0.032 -10.599  1.00  0.00     0.151 A 
ATOM     26  H6  UNL     1      11.547   0.171 -12.651  1.00  0.00     0.198 HD
BRANCH  25  27
HETATM   27  N7  UNL     1      12.996   0.826 -10.462  1.00  0.00    -0.382 N 
ATOM     28  H72 UNL     1      13.329   1.227  -9.586  1.00  0.00     0.157 HD
ATOM     29  H71 UNL     1      13.606   1.160 -11.208  1.00  0.00     0.157 HD
ENDBRANCH  25  27
ENDBRANCH  18  20
ENDBRANCH  15  17
ENDBRANCH   8  13
TORSDOF 4
ENDMDL
MODEL 2
REMARK VINA RESULT: -7.016284606      4.807      8.029
REMARK  4 active torsions:
REMARK  status: ('A' for Active; 'I' for Inactive)
REMARK    1  A    between atoms: C5_8  and  C6_9 
REMARK       I    between atoms: C6_9  and  N3_11 
REMARK    2  A    between atoms: N3_11  and  N4_13 
REMARK    3  A    between atoms: C7_15  and  C8_16 
REMARK    4  A    between atoms: C9_22  and  N7_23 
ROOT
HETATM    1  C1  UNL     1      19.795   1.635   3.576  1.00  0.00     0.070 C 
HETATM    2  C2  UNL     1      18.748   1.464   2.509  1.00  0.00     0.028 A 
HETATM    3  N1  UNL     1      18.769   0.392   1.699  1.00  0.00    -0.348 N 
ATOM      4  H1  UNL     1      19.501  -0.311   1.808  1.00  0.00     0.166 HD
HETATM    5  C3  UNL     1      17.815   0.235   0.726  1.00  0.00     0.146 A 
HETATM    6  C4  UNL     1      17.856  -0.915  -0.127  1.00  0.00     0.120 C 
HETATM    7  N2  UNL     1      17.911  -1.871  -0.816  1.00  0.00    -0.190 NA
HETATM    8  C5  UNL     1      16.857   1.204   0.620  1.00  0.00     0.140 A 
HETATM    9  N8  UNL     1      16.841   2.292   1.447  1.00  0.00    -0.351 N 
ATOM     10  H8  UNL     1      16.112   2.998   1.343  1.00  0.00     0.166 HD
HETATM   11  C10 UNL     1      17.778   2.435   2.394  1.00  0.00     0.028 A 
HETATM   12  C11 UNL     1      17.815   3.595   3.323  1.00  0.00     0.070 C 
ENDROOT
BRANCH   8  13
HETATM   13  C6  UNL     1      15.824   1.076  -0.401  1.00  0.00     0.289 C 
HETATM   14  O1  UNL     1      15.955   1.531  -1.565  1.00  0.00    -0.264 OA
HETATM   15  N3  UNL     1      14.605   0.406  -0.073  1.00  0.00    -0.265 N 
ATOM     16  H3  UNL     1      14.484   0.031   0.868  1.00  0.00     0.190 HD
BRANCH  15  17
HETATM   17  N4  UNL     1      13.577   0.249  -0.998  1.00  0.00    -0.307 N 
HETATM   18  C7  UNL     1      12.582   1.080  -1.080  1.00  0.00     0.142 C 
ATOM     19  H4  UNL     1      13.607  -0.547  -1.635  1.00  0.00     0.186 HD
BRANCH  18  20
HETATM   20  C8  UNL     1      11.518   0.897  -2.057  1.00  0.00     0.118 A 
HETATM   21  N5  UNL     1      11.577   1.088  -3.380  1.00  0.00    -0.237 N 
HETATM   22  O2  UNL     1      10.401   0.811  -3.903  1.00  0.00    -0.155 OA
ATOM     23  H5  UNL     1      12.398   1.398  -3.899  1.00  0.00     0.197 HD
HETATM   24  N6  UNL     1       9.576   0.444  -2.963  1.00  0.00    -0.224 N 
HETATM   25  C9  UNL     1      10.228   0.483  -1.800  1.00  0.00     0.151 A 
ATOM     26  H6  UNL     1       8.601   0.174  -3.094  1.00  0.00     0.198 HD
BRANCH  25  27
HETATM   27  N7  UNL     1       9.733   0.183  -0.636  1.00  0.00    -0.382 N 
ATOM     28  H72 UNL     1      10.134   0.433   0.268  1.00  0.00     0.157 HD
ATOM     29  H71 UNL     1       8.877  -0.342  -0.461  1.00  0.00     0.157 HD
ENDBRANCH  25  27
ENDBRANCH  18  20
ENDBRANCH  15  17
ENDBRANCH   8  13
TORSDOF 4
ENDMDL
MODEL 3
REMARK VINA RESULT: -6.963218407      4.841      9.143
REMARK  4 active torsions:
REMARK  status: ('A' for Active; 'I' for Inactive)
REMARK    1  A    between atoms: C5_8  and  C6_9 
REMARK       I    between atoms: C6_9  and  N3_11 
REMARK    2  A    between atoms: N3_11  and  N4_13 
REMARK    3  A    between atoms: C7_15  and  C8_16 
REMARK    4  A    between atoms: C9_22  and  N7_23 
ROOT
HETATM    1  C1  UNL     1      17.117  -0.338  -6.885  1.00  0.00     0.070 C 
HETATM    2  C2  UNL     1      16.354  -0.007  -5.632  1.00  0.00     0.028 A 
HETATM    3  N1  UNL     1      16.981   0.543  -4.578  1.00  0.00    -0.348 N 
ATOM      4  H1  UNL     1      17.981   0.738  -4.629  1.00  0.00     0.166 HD
HETATM    5  C3  UNL     1      16.287   0.845  -3.434  1.00  0.00     0.146 A 
HETATM    6  C4  UNL     1      16.973   1.431  -2.322  1.00  0.00     0.120 C 
HETATM    7  N2  UNL     1      17.562   1.914  -1.420  1.00  0.00    -0.190 NA
HETATM    8  C5  UNL     1      14.949   0.564  -3.415  1.00  0.00     0.140 A 
HETATM    9  N8  UNL     1      14.318   0.004  -4.491  1.00  0.00    -0.351 N 
ATOM     10  H8  UNL     1      13.318  -0.193  -4.446  1.00  0.00     0.166 HD
HETATM   11  C10 UNL     1      15.006  -0.287  -5.603  1.00  0.00     0.028 A 
HETATM   12  C11 UNL     1      14.377  -0.896  -6.804  1.00  0.00     0.070 C 
ENDROOT
BRANCH   8  13
HETATM   13  C6  UNL     1      14.173   0.868  -2.219  1.00  0.00     0.289 C 
HETATM   14  O1  UNL     1      13.503   1.923  -2.091  1.00  0.00    -0.264 OA
HETATM   15  N3  UNL     1      14.168  -0.069  -1.140  1.00  0.00    -0.265 N 
ATOM     16  H3  UNL     1      14.706  -0.931  -1.230  1.00  0.00     0.190 HD
BRANCH  15  17
HETATM   17  N4  UNL     1      13.449   0.158   0.030  1.00  0.00    -0.307 N 
HETATM   18  C7  UNL     1      12.389  -0.527   0.340  1.00  0.00     0.142 C 
ATOM     19  H4  UNL     1      13.767   0.887   0.668  1.00  0.00     0.186 HD
BRANCH  18  20
HETATM   20  C8  UNL     1      11.653  -0.272   1.571  1.00  0.00     0.118 A 
HETATM   21  N5  UNL     1      11.496   0.895   2.206  1.00  0.00    -0.237 N 
HETATM   22  O2  UNL     1      10.762   0.699   3.282  1.00  0.00    -0.155 OA
ATOM     23  H5  UNL     1      11.882   1.790   1.907  1.00  0.00     0.197 HD
HETATM   24  N6  UNL     1      10.435  -0.560   3.368  1.00  0.00    -0.224 N 
HETATM   25  C9  UNL     1      10.967  -1.200   2.325  1.00  0.00     0.151 A 
ATOM     26  H6  UNL     1       9.870  -0.983   4.104  1.00  0.00     0.198 HD
BRANCH  25  27
HETATM   27  N7  UNL     1      10.857  -2.469   2.070  1.00  0.00    -0.382 N 
ATOM     28  H72 UNL     1      10.363  -2.881   1.279  1.00  0.00     0.157 HD
ATOM     29  H71 UNL     1      11.248  -3.233   2.622  1.00  0.00     0.157 HD
ENDBRANCH  25  27
ENDBRANCH  18  20
ENDBRANCH  15  17
ENDBRANCH   8  13
TORSDOF 4
ENDMDL
MODEL 4
REMARK VINA RESULT: -6.554421709      4.765      7.938
REMARK  4 active torsions:
REMARK  status: ('A' for Active; 'I' for Inactive)
REMARK    1  A    between atoms: C5_8  and  C6_9 
REMARK       I    between atoms: C6_9  and  N3_11 
REMARK    2  A    between atoms: N3_11  and  N4_13 
REMARK    3  A    between atoms: C7_15  and  C8_16 
REMARK    4  A    between atoms: C9_22  and  N7_23 
ROOT
HETATM    1  C1  UNL     1      19.892   1.563   3.224  1.00  0.00     0.070 C 
HETATM    2  C2  UNL     1      18.746   1.369   2.268  1.00  0.00     0.028 A 
HETATM    3  N1  UNL     1      18.740   0.332   1.413  1.00  0.00    -0.348 N 
ATOM      4  H1  UNL     1      19.517  -0.328   1.412  1.00  0.00     0.166 HD
HETATM    5  C3  UNL     1      17.696   0.154   0.542  1.00  0.00     0.146 A 
HETATM    6  C4  UNL     1      17.708  -0.958  -0.361  1.00  0.00     0.120 C 
HETATM    7  N2  UNL     1      17.742  -1.882  -1.095  1.00  0.00    -0.190 NA
HETATM    8  C5  UNL     1      16.678   1.066   0.581  1.00  0.00     0.140 A 
HETATM    9  N8  UNL     1      16.690   2.118   1.454  1.00  0.00    -0.351 N 
ATOM     10  H8  UNL     1      15.916   2.781   1.460  1.00  0.00     0.166 HD
HETATM   11  C10 UNL     1      17.715   2.283   2.300  1.00  0.00     0.028 A 
HETATM   12  C11 UNL     1      17.788   3.406   3.271  1.00  0.00     0.070 C 
ENDROOT
BRANCH   8  13
HETATM   13  C6  UNL     1      15.549   0.914  -0.328  1.00  0.00     0.289 C 
HETATM   14  O1  UNL     1      15.511   1.451  -1.464  1.00  0.00    -0.264 OA
HETATM   15  N3  UNL     1      14.431   0.121   0.081  1.00  0.00    -0.265 N 
ATOM     16  H3  UNL     1      14.448  -0.321   1.000  1.00  0.00     0.190 HD
BRANCH  15  17
HETATM   17  N4  UNL     1      13.321  -0.065  -0.737  1.00  0.00    -0.307 N 
HETATM   18  C7  UNL     1      12.181   0.514  -0.504  1.00  0.00     0.142 C 
ATOM     19  H4  UNL     1      13.405  -0.677  -1.548  1.00  0.00     0.186 HD
BRANCH  18  20
HETATM   20  C8  UNL     1      11.032   0.306  -1.374  1.00  0.00     0.118 A 
HETATM   21  N5  UNL     1       9.851  -0.240  -1.058  1.00  0.00    -0.237 N 
HETATM   22  O2  UNL     1       9.084  -0.244  -2.128  1.00  0.00    -0.155 OA
ATOM     23  H5  UNL     1       9.589  -0.594  -0.139  1.00  0.00     0.197 HD
HETATM   24  N6  UNL     1       9.727   0.282  -3.133  1.00  0.00    -0.224 N 
HETATM   25  C9  UNL     1      10.941   0.637  -2.709  1.00  0.00     0.151 A 
ATOM     26  H6  UNL     1       9.365   0.401  -4.080  1.00  0.00     0.198 HD
BRANCH  25  27
HETATM   27  N7  UNL     1      11.868   1.195  -3.429  1.00  0.00    -0.382 N 
ATOM     28  H72 UNL     1      12.051   2.196  -3.500  1.00  0.00     0.157 HD
ATOM     29  H71 UNL     1      12.544   0.714  -4.022  1.00  0.00     0.157 HD
ENDBRANCH  25  27
ENDBRANCH  18  20
ENDBRANCH  15  17
ENDBRANCH   8  13
TORSDOF 4
ENDMDL
MODEL 5
REMARK VINA RESULT: -6.520419263      3.577      4.499
REMARK  4 active torsions:
REMARK  status: ('A' for Active; 'I' for Inactive)
REMARK    1  A    between atoms: C5_8  and  C6_9 
REMARK       I    between atoms: C6_9  and  N3_11 
REMARK    2  A    between atoms: N3_11  and  N4_13 
REMARK    3  A    between atoms: C7_15  and  C8_16 
REMARK    4  A    between atoms: C9_22  and  N7_23 
ROOT
HETATM    1  C1  UNL     1       9.323  -0.682   1.450  1.00  0.00     0.070 C 
HETATM    2  C2  UNL     1      10.285  -0.205   0.397  1.00  0.00     0.028 A 
HETATM    3  N1  UNL     1       9.881  -0.049  -0.875  1.00  0.00    -0.348 N 
ATOM      4  H1  UNL     1       8.915  -0.255  -1.128  1.00  0.00     0.166 HD
HETATM    5  C3  UNL     1      10.758   0.384  -1.836  1.00  0.00     0.146 A 
HETATM    6  C4  UNL     1      10.308   0.544  -3.186  1.00  0.00     0.120 C 
HETATM    7  N2  UNL     1       9.911   0.669  -4.291  1.00  0.00    -0.190 NA
HETATM    8  C5  UNL     1      12.042   0.646  -1.447  1.00  0.00     0.140 A 
HETATM    9  N8  UNL     1      12.447   0.486  -0.151  1.00  0.00    -0.351 N 
ATOM     10  H8  UNL     1      13.412   0.690   0.108  1.00  0.00     0.166 HD
HETATM   11  C10 UNL     1      11.582   0.061   0.780  1.00  0.00     0.028 A 
HETATM   12  C11 UNL     1      11.960  -0.134   2.204  1.00  0.00     0.070 C 
ENDROOT
BRANCH   8  13
HETATM   13  C6  UNL     1      13.007   1.110  -2.437  1.00  0.00     0.289 C 
HETATM   14  O1  UNL     1      13.266   2.325  -2.620  1.00  0.00    -0.264 OA
HETATM   15  N3  UNL     1      13.695   0.146  -3.238  1.00  0.00    -0.265 N 
ATOM     16  H3  UNL     1      13.496  -0.845  -3.100  1.00  0.00     0.190 HD
BRANCH  15  17
HETATM   17  N4  UNL     1      14.628   0.518  -4.201  1.00  0.00    -0.307 N 
HETATM   18  C7  UNL     1      14.994  -0.280  -5.159  1.00  0.00     0.142 C 
ATOM     19  H4  UNL     1      15.038   1.450  -4.153  1.00  0.00     0.186 HD
BRANCH  18  20
HETATM   20  C8  UNL     1      15.972   0.132  -6.157  1.00  0.00     0.118 A 
HETATM   21  N5  UNL     1      17.153   0.727  -5.953  1.00  0.00    -0.237 N 
HETATM   22  O2  UNL     1      17.734   0.931  -7.116  1.00  0.00    -0.155 OA
ATOM     23  H5  UNL     1      17.539   0.982  -5.044  1.00  0.00     0.197 HD
HETATM   24  N6  UNL     1      16.970   0.487  -8.074  1.00  0.00    -0.224 N 
HETATM   25  C9  UNL     1      15.865  -0.018  -7.524  1.00  0.00     0.151 A 
ATOM     26  H6  UNL     1      17.180   0.520  -9.072  1.00  0.00     0.198 HD
BRANCH  25  27
HETATM   27  N7  UNL     1      14.869  -0.554  -8.163  1.00  0.00    -0.382 N 
ATOM     28  H72 UNL     1      13.916  -0.192  -8.201  1.00  0.00     0.157 HD
ATOM     29  H71 UNL     1      14.897  -1.410  -8.717  1.00  0.00     0.157 HD
ENDBRANCH  25  27
ENDBRANCH  18  20
ENDBRANCH  15  17
ENDBRANCH   8  13
TORSDOF 4
ENDMDL
