MODEL 1
REMARK VINA RESULT: -8.789075293      0.000      0.000
REMARK  12 active torsions:
REMARK  status: ('A' for Active; 'I' for Inactive)
REMARK    1  A    between atoms: O1_2  and  C2_3 
REMARK    2  A    between atoms: C2_3  and  C3_5 
REMARK    3  A    between atoms: C3_5  and  C4_6 
REMARK    4  A    between atoms: C4_6  and  C5_7 
REMARK    5  A    between atoms: C5_7  and  C6_8 
REMARK    6  A    between atoms: C6_8  and  C7_9 
REMARK    7  A    between atoms: C7_9  and  O3_12 
REMARK    8  A    between atoms: O3_12  and  C10_13 
REMARK    9  A    between atoms: C10_13  and  O4_14 
REMARK   10  A    between atoms: C10_13  and  N1_16 
REMARK   11  A    between atoms: N1_16  and  C11_18 
REMARK   12  A    between atoms: C24_33  and  O6_34 
ROOT
HETATM    1  C11 UNL     1      38.482  40.442  11.360  1.00  0.00     0.090 C 
HETATM    2  C12 UNL     1      38.831  41.398  10.252  1.00  0.00     0.026 C 
HETATM    3  C13 UNL     1      38.579  42.808  10.816  1.00  0.00     0.012 C 
HETATM    4  C14 UNL     1      38.071  42.559  12.175  1.00  0.00    -0.027 C 
HETATM    5  C15 UNL     1      39.312  42.184  13.014  1.00  0.00     0.016 C 
HETATM    6  C16 UNL     1      37.343  43.617  12.905  1.00  0.00     0.044 C 
HETATM    7  C17 UNL     1      36.761  44.752  12.181  1.00  0.00     0.095 C 
HETATM    8  C18 UNL     1      37.671  45.740  11.586  1.00  0.00     0.139 C 
HETATM    9  O5  UNL     1      38.811  45.813  11.456  1.00  0.00    -0.297 OA
HETATM   10  C19 UNL     1      36.643  46.756  11.139  1.00  0.00     0.106 C 
HETATM   11  C20 UNL     1      35.930  46.851  12.469  1.00  0.00    -0.013 C 
HETATM   12  C21 UNL     1      36.004  45.644  13.098  1.00  0.00    -0.038 C 
HETATM   13  C22 UNL     1      35.461  45.288  14.422  1.00  0.00     0.202 C 
HETATM   14  F1  UNL     1      34.071  45.259  14.306  1.00  0.00    -0.245 F 
HETATM   15  C23 UNL     1      35.988  43.992  14.922  1.00  0.00     0.080 C 
HETATM   16  C24 UNL     1      36.204  43.022  13.743  1.00  0.00     0.066 C 
HETATM   17  C25 UNL     1      36.501  41.696  14.318  1.00  0.00     0.039 C 
HETATM   18  C26 UNL     1      36.925  40.665  13.307  1.00  0.00     0.015 C 
HETATM   19  C27 UNL     1      37.330  41.245  12.001  1.00  0.00    -0.016 C 
HETATM   20  C28 UNL     1      36.256  41.256  10.967  1.00  0.00     0.018 C 
ENDROOT
BRANCH   1  21
HETATM   21  N1  UNL     1      37.895  39.218  10.873  1.00  0.00    -0.370 N 
ATOM     22  H1  UNL     1      36.982  39.197  10.418  1.00  0.00     0.158 HD
BRANCH  21  23
HETATM   23  C10 UNL     1      38.674  38.043  11.067  1.00  0.00     0.364 C 
BRANCH  23  24
HETATM   24  O3  UNL     1      37.919  36.947  10.744  1.00  0.00    -0.334 OA
BRANCH  24  25
HETATM   25  C7  UNL     1      37.342  36.260  11.765  1.00  0.00     0.058 C 
HETATM   26  C8  UNL     1      36.991  37.066  12.994  1.00  0.00     0.045 C 
HETATM   27  C9  UNL     1      35.992  35.636  11.295  1.00  0.00     0.045 C 
BRANCH  25  28
HETATM   28  C6  UNL     1      38.152  35.075  12.193  1.00  0.00     0.037 C 
BRANCH  28  29
HETATM   29  C5  UNL     1      37.547  34.179  13.217  1.00  0.00     0.004 C 
BRANCH  29  30
HETATM   30  C4  UNL     1      38.600  33.396  13.942  1.00  0.00     0.010 C 
BRANCH  30  31
HETATM   31  C3  UNL     1      38.165  31.993  14.177  1.00  0.00     0.111 C 
BRANCH  31  32
HETATM   32  C2  UNL     1      37.874  31.281  12.921  1.00  0.00     0.258 C 
HETATM   33  O2  UNL     1      38.687  31.050  11.994  1.00  0.00    -0.265 OA
BRANCH  32  34
HETATM   34  O1  UNL     1      36.559  30.789  12.691  1.00  0.00    -0.326 OA
HETATM   35  C1  UNL     1      35.493  31.237  13.495  1.00  0.00     0.213 C 
ENDBRANCH  32  34
ENDBRANCH  31  32
ENDBRANCH  30  31
ENDBRANCH  29  30
ENDBRANCH  28  29
ENDBRANCH  25  28
ENDBRANCH  24  25
ENDBRANCH  23  24
BRANCH  23  36
HETATM   36  O4  UNL     1      39.828  38.017  10.282  1.00  0.00    -0.355 OA
ATOM     37  H4  UNL     1      40.558  38.289  10.826  1.00  0.00     0.214 HD
ENDBRANCH  23  36
ENDBRANCH  21  23
ENDBRANCH   1  21
BRANCH  16  38
HETATM   38  O6  UNL     1      34.976  43.111  13.066  1.00  0.00    -0.389 OA
ATOM     39  H6  UNL     1      35.005  42.641  12.240  1.00  0.00     0.210 HD
ENDBRANCH  16  38
TORSDOF 12
ENDMDL
MODEL 2
REMARK VINA RESULT: -8.226830719      2.325      4.500
REMARK  12 active torsions:
REMARK  status: ('A' for Active; 'I' for Inactive)
REMARK    1  A    between atoms: O1_2  and  C2_3 
REMARK    2  A    between atoms: C2_3  and  C3_5 
REMARK    3  A    between atoms: C3_5  and  C4_6 
REMARK    4  A    between atoms: C4_6  and  C5_7 
REMARK    5  A    between atoms: C5_7  and  C6_8 
REMARK    6  A    between atoms: C6_8  and  C7_9 
REMARK    7  A    between atoms: C7_9  and  O3_12 
REMARK    8  A    between atoms: O3_12  and  C10_13 
REMARK    9  A    between atoms: C10_13  and  O4_14 
REMARK   10  A    between atoms: C10_13  and  N1_16 
REMARK   11  A    between atoms: N1_16  and  C11_18 
REMARK   12  A    between atoms: C24_33  and  O6_34 
ROOT
HETATM    1  C11 UNL     1      36.784  42.469  11.363  1.00  0.00     0.090 C 
HETATM    2  C12 UNL     1      35.324  42.139  11.221  1.00  0.00     0.026 C 
HETATM    3  C13 UNL     1      34.632  42.744  12.456  1.00  0.00     0.012 C 
HETATM    4  C14 UNL     1      35.738  43.334  13.227  1.00  0.00    -0.027 C 
HETATM    5  C15 UNL     1      36.100  44.642  12.490  1.00  0.00     0.016 C 
HETATM    6  C16 UNL     1      35.560  43.661  14.656  1.00  0.00     0.044 C 
HETATM    7  C17 UNL     1      34.470  43.055  15.427  1.00  0.00     0.095 C 
HETATM    8  C18 UNL     1      33.091  43.464  15.125  1.00  0.00     0.139 C 
HETATM    9  O5  UNL     1      32.602  44.123  14.320  1.00  0.00    -0.297 OA
HETATM   10  C19 UNL     1      32.387  42.739  16.251  1.00  0.00     0.106 C 
HETATM   11  C20 UNL     1      33.278  43.264  17.354  1.00  0.00    -0.013 C 
HETATM   12  C21 UNL     1      34.532  43.456  16.856  1.00  0.00    -0.038 C 
HETATM   13  C22 UNL     1      35.712  43.970  17.575  1.00  0.00     0.202 C 
HETATM   14  F1  UNL     1      36.111  42.985  18.478  1.00  0.00    -0.245 F 
HETATM   15  C23 UNL     1      36.820  44.340  16.656  1.00  0.00     0.080 C 
HETATM   16  C24 UNL     1      36.843  43.381  15.448  1.00  0.00     0.066 C 
HETATM   17  C25 UNL     1      38.089  43.648  14.704  1.00  0.00     0.039 C 
HETATM   18  C26 UNL     1      38.186  42.928  13.385  1.00  0.00     0.015 C 
HETATM   19  C27 UNL     1      36.887  42.395  12.902  1.00  0.00    -0.016 C 
HETATM   20  C28 UNL     1      36.645  40.960  13.228  1.00  0.00     0.018 C 
ENDROOT
BRANCH   1  21
HETATM   21  N1  UNL     1      37.641  41.428  10.853  1.00  0.00    -0.370 N 
ATOM     22  H1  UNL     1      37.357  40.448  10.842  1.00  0.00     0.158 HD
BRANCH  21  23
HETATM   23  C10 UNL     1      38.908  41.856  10.367  1.00  0.00     0.364 C 
BRANCH  23  24
HETATM   24  O3  UNL     1      39.336  40.984   9.402  1.00  0.00    -0.334 OA
BRANCH  24  25
HETATM   25  C7  UNL     1      40.146  39.966   9.794  1.00  0.00     0.058 C 
HETATM   26  C8  UNL     1      41.441  39.814   9.030  1.00  0.00     0.045 C 
HETATM   27  C9  UNL     1      40.577  40.165  11.280  1.00  0.00     0.045 C 
BRANCH  25  28
HETATM   28  C6  UNL     1      39.446  38.641   9.801  1.00  0.00     0.037 C 
BRANCH  28  29
HETATM   29  C5  UNL     1      39.040  38.100  11.128  1.00  0.00     0.004 C 
BRANCH  29  30
HETATM   30  C4  UNL     1      37.677  37.478  11.065  1.00  0.00     0.010 C 
BRANCH  30  31
HETATM   31  C3  UNL     1      37.220  37.040  12.411  1.00  0.00     0.111 C 
BRANCH  31  32
HETATM   32  C2  UNL     1      37.129  35.574  12.521  1.00  0.00     0.258 C 
HETATM   33  O2  UNL     1      36.090  34.884  12.383  1.00  0.00    -0.265 OA
BRANCH  32  34
HETATM   34  O1  UNL     1      38.304  34.825  12.807  1.00  0.00    -0.326 OA
HETATM   35  C1  UNL     1      38.197  33.569  13.434  1.00  0.00     0.213 C 
ENDBRANCH  32  34
ENDBRANCH  31  32
ENDBRANCH  30  31
ENDBRANCH  29  30
ENDBRANCH  28  29
ENDBRANCH  25  28
ENDBRANCH  24  25
ENDBRANCH  23  24
BRANCH  23  36
HETATM   36  O4  UNL     1      38.873  43.135   9.806  1.00  0.00    -0.355 OA
ATOM     37  H4  UNL     1      39.498  43.677  10.274  1.00  0.00     0.214 HD
ENDBRANCH  23  36
ENDBRANCH  21  23
ENDBRANCH   1  21
BRANCH  16  38
HETATM   38  O6  UNL     1      36.788  42.124  16.076  1.00  0.00    -0.389 OA
ATOM     39  H6  UNL     1      36.424  41.466  15.494  1.00  0.00     0.210 HD
ENDBRANCH  16  38
TORSDOF 12
ENDMDL
MODEL 3
REMARK VINA RESULT: -8.151219873      2.168      3.581
REMARK  12 active torsions:
REMARK  status: ('A' for Active; 'I' for Inactive)
REMARK    1  A    between atoms: O1_2  and  C2_3 
REMARK    2  A    between atoms: C2_3  and  C3_5 
REMARK    3  A    between atoms: C3_5  and  C4_6 
REMARK    4  A    between atoms: C4_6  and  C5_7 
REMARK    5  A    between atoms: C5_7  and  C6_8 
REMARK    6  A    between atoms: C6_8  and  C7_9 
REMARK    7  A    between atoms: C7_9  and  O3_12 
REMARK    8  A    between atoms: O3_12  and  C10_13 
REMARK    9  A    between atoms: C10_13  and  O4_14 
REMARK   10  A    between atoms: C10_13  and  N1_16 
REMARK   11  A    between atoms: N1_16  and  C11_18 
REMARK   12  A    between atoms: C24_33  and  O6_34 
ROOT
HETATM    1  C11 UNL     1      37.327  43.172  12.082  1.00  0.00     0.090 C 
HETATM    2  C12 UNL     1      36.918  44.498  11.503  1.00  0.00     0.026 C 
HETATM    3  C13 UNL     1      36.199  45.250  12.637  1.00  0.00     0.012 C 
HETATM    4  C14 UNL     1      36.212  44.295  13.757  1.00  0.00    -0.027 C 
HETATM    5  C15 UNL     1      37.651  44.339  14.316  1.00  0.00     0.016 C 
HETATM    6  C16 UNL     1      35.286  44.469  14.895  1.00  0.00     0.044 C 
HETATM    7  C17 UNL     1      34.093  45.310  14.760  1.00  0.00     0.095 C 
HETATM    8  C18 UNL     1      34.275  46.764  14.642  1.00  0.00     0.139 C 
HETATM    9  O5  UNL     1      35.185  47.457  14.532  1.00  0.00    -0.297 OA
HETATM   10  C19 UNL     1      32.823  47.182  14.712  1.00  0.00     0.106 C 
HETATM   11  C20 UNL     1      32.496  46.397  15.964  1.00  0.00    -0.013 C 
HETATM   12  C21 UNL     1      33.264  45.272  15.993  1.00  0.00    -0.038 C 
HETATM   13  C22 UNL     1      33.286  44.229  17.035  1.00  0.00     0.202 C 
HETATM   14  F1  UNL     1      32.082  43.530  16.950  1.00  0.00    -0.245 F 
HETATM   15  C23 UNL     1      34.451  43.316  16.901  1.00  0.00     0.080 C 
HETATM   16  C24 UNL     1      34.788  43.111  15.410  1.00  0.00     0.066 C 
HETATM   17  C25 UNL     1      35.788  42.029  15.334  1.00  0.00     0.039 C 
HETATM   18  C26 UNL     1      36.373  41.823  13.962  1.00  0.00     0.015 C 
HETATM   19  C27 UNL     1      36.134  42.961  13.038  1.00  0.00    -0.016 C 
HETATM   20  C28 UNL     1      34.956  42.793  12.139  1.00  0.00     0.018 C 
ENDROOT
BRANCH   1  21
HETATM   21  N1  UNL     1      37.264  42.101  11.118  1.00  0.00    -0.370 N 
ATOM     22  H1  UNL     1      36.378  41.748  10.757  1.00  0.00     0.158 HD
BRANCH  21  23
HETATM   23  C10 UNL     1      38.518  41.570  10.705  1.00  0.00     0.364 C 
BRANCH  23  24
HETATM   24  O3  UNL     1      38.319  40.336  10.145  1.00  0.00    -0.334 OA
BRANCH  24  25
HETATM   25  C7  UNL     1      38.836  39.262  10.798  1.00  0.00     0.058 C 
HETATM   26  C8  UNL     1      39.467  38.197   9.930  1.00  0.00     0.045 C 
HETATM   27  C9  UNL     1      39.974  39.719  11.763  1.00  0.00     0.045 C 
BRANCH  25  28
HETATM   28  C6  UNL     1      37.843  38.604  11.705  1.00  0.00     0.037 C 
BRANCH  28  29
HETATM   29  C5  UNL     1      37.330  37.269  11.290  1.00  0.00     0.004 C 
BRANCH  29  30
HETATM   30  C4  UNL     1      37.421  36.281  12.413  1.00  0.00     0.010 C 
BRANCH  30  31
HETATM   31  C3  UNL     1      36.879  34.954  12.011  1.00  0.00     0.111 C 
BRANCH  31  32
HETATM   32  C2  UNL     1      37.784  33.850  12.370  1.00  0.00     0.258 C 
HETATM   33  O2  UNL     1      37.879  32.748  11.777  1.00  0.00    -0.265 OA
BRANCH  32  34
HETATM   34  O1  UNL     1      38.653  33.999  13.486  1.00  0.00    -0.326 OA
HETATM   35  C1  UNL     1      38.705  32.994  14.472  1.00  0.00     0.213 C 
ENDBRANCH  32  34
ENDBRANCH  31  32
ENDBRANCH  30  31
ENDBRANCH  29  30
ENDBRANCH  28  29
ENDBRANCH  25  28
ENDBRANCH  24  25
ENDBRANCH  23  24
BRANCH  23  36
HETATM   36  O4  UNL     1      39.165  42.371   9.761  1.00  0.00    -0.355 OA
ATOM     37  H4  UNL     1      38.580  43.084   9.532  1.00  0.00     0.214 HD
ENDBRANCH  23  36
ENDBRANCH  21  23
ENDBRANCH   1  21
BRANCH  16  38
HETATM   38  O6  UNL     1      33.530  42.794  14.869  1.00  0.00    -0.389 OA
ATOM     39  H6  UNL     1      33.619  42.333  14.043  1.00  0.00     0.210 HD
ENDBRANCH  16  38
TORSDOF 12
ENDMDL
MODEL 4
REMARK VINA RESULT: -8.074179735      2.780      5.467
REMARK  12 active torsions:
REMARK  status: ('A' for Active; 'I' for Inactive)
REMARK    1  A    between atoms: O1_2  and  C2_3 
REMARK    2  A    between atoms: C2_3  and  C3_5 
REMARK    3  A    between atoms: C3_5  and  C4_6 
REMARK    4  A    between atoms: C4_6  and  C5_7 
REMARK    5  A    between atoms: C5_7  and  C6_8 
REMARK    6  A    between atoms: C6_8  and  C7_9 
REMARK    7  A    between atoms: C7_9  and  O3_12 
REMARK    8  A    between atoms: O3_12  and  C10_13 
REMARK    9  A    between atoms: C10_13  and  O4_14 
REMARK   10  A    between atoms: C10_13  and  N1_16 
REMARK   11  A    between atoms: N1_16  and  C11_18 
REMARK   12  A    between atoms: C24_33  and  O6_34 
ROOT
HETATM    1  C11 UNL     1      36.903  43.076  13.435  1.00  0.00     0.090 C 
HETATM    2  C12 UNL     1      36.662  41.882  14.317  1.00  0.00     0.026 C 
HETATM    3  C13 UNL     1      35.340  42.162  15.055  1.00  0.00     0.012 C 
HETATM    4  C14 UNL     1      34.946  43.497  14.579  1.00  0.00    -0.027 C 
HETATM    5  C15 UNL     1      34.385  43.277  13.158  1.00  0.00     0.016 C 
HETATM    6  C16 UNL     1      33.956  44.295  15.332  1.00  0.00     0.044 C 
HETATM    7  C17 UNL     1      33.660  43.980  16.733  1.00  0.00     0.095 C 
HETATM    8  C18 UNL     1      32.935  42.736  17.030  1.00  0.00     0.139 C 
HETATM    9  O5  UNL     1      32.591  41.834  16.406  1.00  0.00    -0.297 OA
HETATM   10  C19 UNL     1      32.719  42.947  18.512  1.00  0.00     0.106 C 
HETATM   11  C20 UNL     1      32.139  44.338  18.388  1.00  0.00    -0.013 C 
HETATM   12  C21 UNL     1      32.704  44.959  17.314  1.00  0.00    -0.038 C 
HETATM   13  C22 UNL     1      32.423  46.317  16.814  1.00  0.00     0.202 C 
HETATM   14  F1  UNL     1      32.948  47.218  17.741  1.00  0.00    -0.245 F 
HETATM   15  C23 UNL     1      32.985  46.550  15.458  1.00  0.00     0.080 C 
HETATM   16  C24 UNL     1      34.315  45.786  15.301  1.00  0.00     0.066 C 
HETATM   17  C25 UNL     1      34.931  46.238  14.039  1.00  0.00     0.039 C 
HETATM   18  C26 UNL     1      36.151  45.455  13.632  1.00  0.00     0.015 C 
HETATM   19  C27 UNL     1      36.292  44.161  14.347  1.00  0.00    -0.016 C 
HETATM   20  C28 UNL     1      37.191  44.204  15.537  1.00  0.00     0.018 C 
ENDROOT
BRANCH   1  21
HETATM   21  N1  UNL     1      38.302  43.399  13.308  1.00  0.00    -0.370 N 
ATOM     22  H1  UNL     1      38.633  44.362  13.239  1.00  0.00     0.158 HD
BRANCH  21  23
HETATM   23  C10 UNL     1      39.191  42.288  13.285  1.00  0.00     0.364 C 
BRANCH  23  24
HETATM   24  O3  UNL     1      39.847  42.264  12.084  1.00  0.00    -0.334 OA
BRANCH  24  25
HETATM   25  C7  UNL     1      39.464  41.324  11.180  1.00  0.00     0.058 C 
HETATM   26  C8  UNL     1      38.564  41.802  10.064  1.00  0.00     0.045 C 
HETATM   27  C9  UNL     1      40.716  40.732  10.461  1.00  0.00     0.045 C 
BRANCH  25  28
HETATM   28  C6  UNL     1      38.826  40.131  11.823  1.00  0.00     0.037 C 
BRANCH  28  29
HETATM   29  C5  UNL     1      37.441  39.794  11.393  1.00  0.00     0.004 C 
BRANCH  29  30
HETATM   30  C4  UNL     1      37.015  38.462  11.934  1.00  0.00     0.010 C 
BRANCH  30  31
HETATM   31  C3  UNL     1      37.834  37.359  11.363  1.00  0.00     0.111 C 
BRANCH  31  32
HETATM   32  C2  UNL     1      37.490  36.051  11.944  1.00  0.00     0.258 C 
HETATM   33  O2  UNL     1      38.248  35.321  12.628  1.00  0.00    -0.265 OA
BRANCH  32  34
HETATM   34  O1  UNL     1      36.185  35.521  11.739  1.00  0.00    -0.326 OA
HETATM   35  C1  UNL     1      35.694  34.519  12.598  1.00  0.00     0.213 C 
ENDBRANCH  32  34
ENDBRANCH  31  32
ENDBRANCH  30  31
ENDBRANCH  29  30
ENDBRANCH  28  29
ENDBRANCH  25  28
ENDBRANCH  24  25
ENDBRANCH  23  24
BRANCH  23  36
HETATM   36  O4  UNL     1      40.151  42.337  14.299  1.00  0.00    -0.355 OA
ATOM     37  H4  UNL     1      39.912  41.698  14.960  1.00  0.00     0.214 HD
ENDBRANCH  23  36
ENDBRANCH  21  23
ENDBRANCH   1  21
BRANCH  16  38
HETATM   38  O6  UNL     1      35.006  46.165  16.466  1.00  0.00    -0.389 OA
ATOM     39  H6  UNL     1      34.402  46.396  17.162  1.00  0.00     0.210 HD
ENDBRANCH  16  38
TORSDOF 12
ENDMDL
MODEL 5
REMARK VINA RESULT: -8.025618100      4.004      8.911
REMARK  12 active torsions:
REMARK  status: ('A' for Active; 'I' for Inactive)
REMARK    1  A    between atoms: O1_2  and  C2_3 
REMARK    2  A    between atoms: C2_3  and  C3_5 
REMARK    3  A    between atoms: C3_5  and  C4_6 
REMARK    4  A    between atoms: C4_6  and  C5_7 
REMARK    5  A    between atoms: C5_7  and  C6_8 
REMARK    6  A    between atoms: C6_8  and  C7_9 
REMARK    7  A    between atoms: C7_9  and  O3_12 
REMARK    8  A    between atoms: O3_12  and  C10_13 
REMARK    9  A    between atoms: C10_13  and  O4_14 
REMARK   10  A    between atoms: C10_13  and  N1_16 
REMARK   11  A    between atoms: N1_16  and  C11_18 
REMARK   12  A    between atoms: C24_33  and  O6_34 
ROOT
HETATM    1  C11 UNL     1      37.073  44.550  12.530  1.00  0.00     0.090 C 
HETATM    2  C12 UNL     1      35.897  43.663  12.833  1.00  0.00     0.026 C 
HETATM    3  C13 UNL     1      36.451  42.228  12.877  1.00  0.00     0.012 C 
HETATM    4  C14 UNL     1      37.878  42.391  12.560  1.00  0.00    -0.027 C 
HETATM    5  C15 UNL     1      38.525  42.936  13.851  1.00  0.00     0.016 C 
HETATM    6  C16 UNL     1      38.680  41.232  12.114  1.00  0.00     0.044 C 
HETATM    7  C17 UNL     1      38.022  40.030  11.592  1.00  0.00     0.095 C 
HETATM    8  C18 UNL     1      37.263  39.189  12.529  1.00  0.00     0.139 C 
HETATM    9  O5  UNL     1      36.956  39.284  13.632  1.00  0.00    -0.297 OA
HETATM   10  C19 UNL     1      36.951  38.038  11.598  1.00  0.00     0.106 C 
HETATM   11  C20 UNL     1      38.373  37.830  11.125  1.00  0.00    -0.013 C 
HETATM   12  C21 UNL     1      39.018  39.031  11.125  1.00  0.00    -0.038 C 
HETATM   13  C22 UNL     1      40.420  39.294  10.752  1.00  0.00     0.202 C 
HETATM   14  F1  UNL     1      40.523  39.123   9.372  1.00  0.00    -0.245 F 
HETATM   15  C23 UNL     1      40.871  40.650  11.162  1.00  0.00     0.080 C 
HETATM   16  C24 UNL     1      39.702  41.650  11.049  1.00  0.00     0.066 C 
HETATM   17  C25 UNL     1      40.264  43.000  11.240  1.00  0.00     0.039 C 
HETATM   18  C26 UNL     1      39.230  44.090  11.349  1.00  0.00     0.015 C 
HETATM   19  C27 UNL     1      37.861  43.584  11.621  1.00  0.00    -0.016 C 
HETATM   20  C28 UNL     1      37.006  43.424  10.409  1.00  0.00     0.018 C 
ENDROOT
BRANCH   1  21
HETATM   21  N1  UNL     1      36.720  45.679  11.706  1.00  0.00    -0.370 N 
ATOM     22  H1  UNL     1      36.342  45.567  10.765  1.00  0.00     0.158 HD
BRANCH  21  23
HETATM   23  C10 UNL     1      36.933  46.959  12.291  1.00  0.00     0.364 C 
BRANCH  23  24
HETATM   24  O3  UNL     1      36.997  46.824  13.652  1.00  0.00    -0.334 OA
BRANCH  24  25
HETATM   25  C7  UNL     1      36.263  47.687  14.402  1.00  0.00     0.058 C 
HETATM   26  C8  UNL     1      37.003  48.886  14.951  1.00  0.00     0.045 C 
HETATM   27  C9  UNL     1      35.105  48.288  13.547  1.00  0.00     0.045 C 
BRANCH  25  28
HETATM   28  C6  UNL     1      35.555  47.010  15.535  1.00  0.00     0.037 C 
BRANCH  28  29
HETATM   29  C5  UNL     1      36.139  45.734  16.030  1.00  0.00     0.004 C 
BRANCH  29  30
HETATM   30  C4  UNL     1      35.089  44.672  16.161  1.00  0.00     0.010 C 
BRANCH  30  31
HETATM   31  C3  UNL     1      33.841  45.055  15.447  1.00  0.00     0.111 C 
BRANCH  31  32
HETATM   32  C2  UNL     1      32.949  43.905  15.227  1.00  0.00     0.258 C 
HETATM   33  O2  UNL     1      31.815  43.939  14.691  1.00  0.00    -0.265 OA
BRANCH  32  34
HETATM   34  O1  UNL     1      33.369  42.611  15.642  1.00  0.00    -0.326 OA
HETATM   35  C1  UNL     1      32.698  41.963  16.698  1.00  0.00     0.213 C 
ENDBRANCH  32  34
ENDBRANCH  31  32
ENDBRANCH  30  31
ENDBRANCH  29  30
ENDBRANCH  28  29
ENDBRANCH  25  28
ENDBRANCH  24  25
ENDBRANCH  23  24
BRANCH  23  36
HETATM   36  O4  UNL     1      38.116  47.564  11.862  1.00  0.00    -0.355 OA
ATOM     37  H4  UNL     1      37.906  48.134  11.132  1.00  0.00     0.214 HD
ENDBRANCH  23  36
ENDBRANCH  21  23
ENDBRANCH   1  21
BRANCH  16  38
HETATM   38  O6  UNL     1      39.221  41.387   9.754  1.00  0.00    -0.389 OA
ATOM     39  H6  UNL     1      38.348  41.014   9.782  1.00  0.00     0.210 HD
ENDBRANCH  16  38
TORSDOF 12
ENDMDL
