MODEL 1
REMARK VINA RESULT: -5.096409323      0.000      0.000
REMARK  4 active torsions:
REMARK  status: ('A' for Active; 'I' for Inactive)
REMARK    1  A    between atoms: N1_1  and  C1_5 
REMARK    2  A    between atoms: C1_5  and  N2_6 
REMARK    3  A    between atoms: C1_5  and  C2_10 
REMARK    4  A    between atoms: C5_19  and  N5_20 
ROOT
HETATM    1  C2  UNL     1      -5.028  11.778 -16.358  1.00  0.00     0.110 A 
HETATM    2  N3  UNL     1      -4.239  12.079 -15.303  1.00  0.00    -0.306 N 
ATOM      3  H3  UNL     1      -4.521  11.828 -14.356  1.00  0.00     0.170 HD
HETATM    4  C3  UNL     1      -3.084  12.713 -15.522  1.00  0.00     0.327 A 
HETATM    5  O1  UNL     1      -2.373  12.975 -14.491  1.00  0.00    -0.247 OA
HETATM    6  N4  UNL     1      -2.696  13.052 -16.739  1.00  0.00    -0.273 N 
ATOM      7  H4  UNL     1      -1.807  13.536 -16.869  1.00  0.00     0.173 HD
HETATM    8  C4  UNL     1      -3.451  12.768 -17.796  1.00  0.00     0.284 A 
HETATM    9  O2  UNL     1      -3.105  13.078 -18.959  1.00  0.00    -0.265 OA
HETATM   10  C5  UNL     1      -4.660  12.110 -17.624  1.00  0.00     0.197 A 
ENDROOT
BRANCH   1  11
HETATM   11  C1  UNL     1      -6.308  11.113 -16.064  1.00  0.00     0.430 C 
BRANCH  11  12
HETATM   12  N1  UNL     1      -6.174  10.558 -14.700  1.00  0.00    -0.045 N 
ATOM     13  H13 UNL     1      -6.519  11.202 -13.989  1.00  0.00     0.277 HD
ATOM     14  H12 UNL     1      -6.823   9.790 -14.533  1.00  0.00     0.277 HD
ATOM     15  H11 UNL     1      -5.205  10.286 -14.533  1.00  0.00     0.277 HD
ENDBRANCH  11  12
BRANCH  11  16
HETATM   16  N2  UNL     1      -7.431  11.999 -16.117  1.00  0.00    -0.045 N 
ATOM     17  H23 UNL     1      -7.826  12.062 -17.056  1.00  0.00     0.277 HD
ATOM     18  H22 UNL     1      -8.246  11.614 -15.640  1.00  0.00     0.277 HD
ATOM     19  H21 UNL     1      -7.166  12.913 -15.750  1.00  0.00     0.277 HD
ENDBRANCH  11  16
ENDBRANCH   1  11
BRANCH  10  20
HETATM   20  N5  UNL     1      -5.404  11.834 -18.797  1.00  0.00    -0.108 N 
HETATM   21  O3  UNL     1      -6.317  12.578 -19.167  1.00  0.00    -0.531 OA
HETATM   22  O4  UNL     1      -5.129  10.713 -19.516  1.00  0.00    -0.531 OA
ENDBRANCH  10  20
TORSDOF 4
ENDMDL
MODEL 2
REMARK VINA RESULT: -5.095537037      6.676      8.152
REMARK  4 active torsions:
REMARK  status: ('A' for Active; 'I' for Inactive)
REMARK    1  A    between atoms: N1_1  and  C1_5 
REMARK    2  A    between atoms: C1_5  and  N2_6 
REMARK    3  A    between atoms: C1_5  and  C2_10 
REMARK    4  A    between atoms: C5_19  and  N5_20 
ROOT
HETATM    1  C2  UNL     1      -3.528  19.470 -15.943  1.00  0.00     0.110 A 
HETATM    2  N3  UNL     1      -4.087  20.680 -15.719  1.00  0.00    -0.306 N 
ATOM      3  H3  UNL     1      -3.706  21.517 -16.160  1.00  0.00     0.170 HD
HETATM    4  C3  UNL     1      -5.147  20.760 -14.910  1.00  0.00     0.327 A 
HETATM    5  O1  UNL     1      -5.640  21.928 -14.731  1.00  0.00    -0.247 OA
HETATM    6  N4  UNL     1      -5.659  19.691 -14.326  1.00  0.00    -0.273 N 
ATOM      7  H4  UNL     1      -6.469  19.790 -13.714  1.00  0.00     0.173 HD
HETATM    8  C4  UNL     1      -5.130  18.488 -14.529  1.00  0.00     0.284 A 
HETATM    9  O2  UNL     1      -5.599  17.460 -13.986  1.00  0.00    -0.265 OA
HETATM   10  C5  UNL     1      -4.029  18.349 -15.360  1.00  0.00     0.197 A 
ENDROOT
BRANCH   1  11
HETATM   11  C1  UNL     1      -2.340  19.437 -16.812  1.00  0.00     0.430 C 
BRANCH  11  12
HETATM   12  N1  UNL     1      -2.281  20.758 -17.471  1.00  0.00    -0.045 N 
ATOM     13  H13 UNL     1      -2.646  21.501 -16.875  1.00  0.00     0.277 HD
ATOM     14  H12 UNL     1      -1.324  21.099 -17.562  1.00  0.00     0.277 HD
ATOM     15  H11 UNL     1      -2.761  20.716 -18.370  1.00  0.00     0.277 HD
ENDBRANCH  11  12
BRANCH  11  16
HETATM   16  N2  UNL     1      -1.123  19.198 -16.096  1.00  0.00    -0.045 N 
ATOM     17  H23 UNL     1      -0.327  19.674 -16.521  1.00  0.00     0.277 HD
ATOM     18  H22 UNL     1      -1.111  19.669 -15.192  1.00  0.00     0.277 HD
ATOM     19  H21 UNL     1      -0.967  18.194 -16.008  1.00  0.00     0.277 HD
ENDBRANCH  11  16
ENDBRANCH   1  11
BRANCH  10  20
HETATM   20  N5  UNL     1      -3.528  17.035 -15.534  1.00  0.00    -0.108 N 
HETATM   21  O3  UNL     1      -2.586  16.615 -14.857  1.00  0.00    -0.531 OA
HETATM   22  O4  UNL     1      -4.074  16.231 -16.484  1.00  0.00    -0.531 OA
ENDBRANCH  10  20
TORSDOF 4
ENDMDL
MODEL 3
REMARK VINA RESULT: -5.091823431      4.177      5.678
REMARK  4 active torsions:
REMARK  status: ('A' for Active; 'I' for Inactive)
REMARK    1  A    between atoms: N1_1  and  C1_5 
REMARK    2  A    between atoms: C1_5  and  N2_6 
REMARK    3  A    between atoms: C1_5  and  C2_10 
REMARK    4  A    between atoms: C5_19  and  N5_20 
ROOT
HETATM    1  C2  UNL     1      -4.699  15.773 -16.889  1.00  0.00     0.110 A 
HETATM    2  N3  UNL     1      -5.958  16.182 -17.160  1.00  0.00    -0.306 N 
ATOM      3  H3  UNL     1      -6.513  15.711 -17.875  1.00  0.00     0.170 HD
HETATM    4  C3  UNL     1      -6.462  17.212 -16.477  1.00  0.00     0.327 A 
HETATM    5  O1  UNL     1      -7.659  17.560 -16.770  1.00  0.00    -0.247 OA
HETATM    6  N4  UNL     1      -5.763  17.840 -15.547  1.00  0.00    -0.273 N 
ATOM      7  H4  UNL     1      -6.180  18.624 -15.045  1.00  0.00     0.173 HD
HETATM    8  C4  UNL     1      -4.522  17.460 -15.258  1.00  0.00     0.284 A 
HETATM    9  O2  UNL     1      -3.840  18.039 -14.381  1.00  0.00    -0.265 OA
HETATM   10  C5  UNL     1      -3.951  16.394 -15.938  1.00  0.00     0.197 A 
ENDROOT
BRANCH   1  11
HETATM   11  C1  UNL     1      -4.173  14.657 -17.693  1.00  0.00     0.430 C 
BRANCH  11  12
HETATM   12  N1  UNL     1      -4.734  13.427 -17.095  1.00  0.00    -0.045 N 
ATOM     13  H13 UNL     1      -5.671  13.574 -16.723  1.00  0.00     0.277 HD
ATOM     14  H12 UNL     1      -4.963  12.728 -17.802  1.00  0.00     0.277 HD
ATOM     15  H11 UNL     1      -4.093  13.064 -16.390  1.00  0.00     0.277 HD
ENDBRANCH  11  12
BRANCH  11  16
HETATM   16  N2  UNL     1      -4.540  14.735 -19.075  1.00  0.00    -0.045 N 
ATOM     17  H23 UNL     1      -3.786  15.109 -19.651  1.00  0.00     0.277 HD
ATOM     18  H22 UNL     1      -4.611  13.813 -19.504  1.00  0.00     0.277 HD
ATOM     19  H21 UNL     1      -5.401  15.273 -19.173  1.00  0.00     0.277 HD
ENDBRANCH  11  16
ENDBRANCH   1  11
BRANCH  10  20
HETATM   20  N5  UNL     1      -2.630  16.043 -15.569  1.00  0.00    -0.108 N 
HETATM   21  O3  UNL     1      -1.653  16.522 -16.151  1.00  0.00    -0.531 OA
HETATM   22  O4  UNL     1      -2.432  15.136 -14.575  1.00  0.00    -0.531 OA
ENDBRANCH  10  20
TORSDOF 4
ENDMDL
MODEL 4
REMARK VINA RESULT: -5.078202370      3.138      5.158
REMARK  4 active torsions:
REMARK  status: ('A' for Active; 'I' for Inactive)
REMARK    1  A    between atoms: N1_1  and  C1_5 
REMARK    2  A    between atoms: C1_5  and  N2_6 
REMARK    3  A    between atoms: C1_5  and  C2_10 
REMARK    4  A    between atoms: C5_19  and  N5_20 
ROOT
HETATM    1  C2  UNL     1      -4.015  15.407 -18.197  1.00  0.00     0.110 A 
HETATM    2  N3  UNL     1      -4.366  14.528 -19.162  1.00  0.00    -0.306 N 
ATOM      3  H3  UNL     1      -4.912  14.833 -19.968  1.00  0.00     0.170 HD
HETATM    4  C3  UNL     1      -3.985  13.254 -19.042  1.00  0.00     0.327 A 
HETATM    5  O1  UNL     1      -4.341  12.462 -19.983  1.00  0.00    -0.247 OA
HETATM    6  N4  UNL     1      -3.278  12.832 -18.008  1.00  0.00    -0.273 N 
ATOM      7  H4  UNL     1      -3.005  11.851 -17.949  1.00  0.00     0.173 HD
HETATM    8  C4  UNL     1      -2.919  13.674 -17.044  1.00  0.00     0.284 A 
HETATM    9  O2  UNL     1      -2.249  13.298 -16.054  1.00  0.00    -0.265 OA
HETATM   10  C5  UNL     1      -3.287  15.009 -17.120  1.00  0.00     0.197 A 
ENDROOT
BRANCH   1  11
HETATM   11  C1  UNL     1      -4.488  16.792 -18.354  1.00  0.00     0.430 C 
BRANCH  11  12
HETATM   12  N1  UNL     1      -4.874  16.931 -19.774  1.00  0.00    -0.045 N 
ATOM     13  H13 UNL     1      -5.786  17.375 -19.882  1.00  0.00     0.277 HD
ATOM     14  H12 UNL     1      -4.311  17.630 -20.258  1.00  0.00     0.277 HD
ATOM     15  H11 UNL     1      -4.834  16.021 -20.233  1.00  0.00     0.277 HD
ENDBRANCH  11  12
BRANCH  11  16
HETATM   16  N2  UNL     1      -5.606  17.106 -17.516  1.00  0.00    -0.045 N 
ATOM     17  H23 UNL     1      -5.555  18.056 -17.148  1.00  0.00     0.277 HD
ATOM     18  H22 UNL     1      -6.470  17.199 -18.048  1.00  0.00     0.277 HD
ATOM     19  H21 UNL     1      -5.685  16.411 -16.773  1.00  0.00     0.277 HD
ENDBRANCH  11  16
ENDBRANCH   1  11
BRANCH  10  20
HETATM   20  N5  UNL     1      -2.860  15.846 -16.060  1.00  0.00    -0.108 N 
HETATM   21  O3  UNL     1      -3.613  16.129 -15.124  1.00  0.00    -0.531 OA
HETATM   22  O4  UNL     1      -1.607  16.372 -16.087  1.00  0.00    -0.531 OA
ENDBRANCH  10  20
TORSDOF 4
ENDMDL
MODEL 5
REMARK VINA RESULT: -5.052167083      6.144      8.030
REMARK  4 active torsions:
REMARK  status: ('A' for Active; 'I' for Inactive)
REMARK    1  A    between atoms: N1_1  and  C1_5 
REMARK    2  A    between atoms: C1_5  and  N2_6 
REMARK    3  A    between atoms: C1_5  and  C2_10 
REMARK    4  A    between atoms: C5_19  and  N5_20 
ROOT
HETATM    1  C2  UNL     1      -1.978  18.916 -16.265  1.00  0.00     0.110 A 
HETATM    2  N3  UNL     1      -2.605  20.092 -16.490  1.00  0.00    -0.306 N 
ATOM      3  H3  UNL     1      -2.119  20.858 -16.956  1.00  0.00     0.170 HD
HETATM    4  C3  UNL     1      -3.872  20.233 -16.091  1.00  0.00     0.327 A 
HETATM    5  O1  UNL     1      -4.421  21.365 -16.328  1.00  0.00    -0.247 OA
HETATM    6  N4  UNL     1      -4.524  19.257 -15.484  1.00  0.00    -0.273 N 
ATOM      7  H4  UNL     1      -5.491  19.401 -15.193  1.00  0.00     0.173 HD
HETATM    8  C4  UNL     1      -3.933  18.089 -15.250  1.00  0.00     0.284 A 
HETATM    9  O2  UNL     1      -4.530  17.149 -14.677  1.00  0.00    -0.265 OA
HETATM   10  C5  UNL     1      -2.618  17.889 -15.645  1.00  0.00     0.197 A 
ENDROOT
BRANCH   1  11
HETATM   11  C1  UNL     1      -0.572  18.820 -16.689  1.00  0.00     0.430 C 
BRANCH  11  12
HETATM   12  N1  UNL     1      -0.515  19.406 -18.045  1.00  0.00    -0.045 N 
ATOM     13  H13 UNL     1      -1.203  18.990 -18.672  1.00  0.00     0.277 HD
ATOM     14  H12 UNL     1      -0.860  20.366 -18.062  1.00  0.00     0.277 HD
ATOM     15  H11 UNL     1       0.434  19.332 -18.412  1.00  0.00     0.277 HD
ENDBRANCH  11  12
BRANCH  11  16
HETATM   16  N2  UNL     1       0.329  19.518 -15.822  1.00  0.00    -0.045 N 
ATOM     17  H23 UNL     1       0.883  20.213 -16.323  1.00  0.00     0.277 HD
ATOM     18  H22 UNL     1      -0.161  20.148 -15.188  1.00  0.00     0.277 HD
ATOM     19  H21 UNL     1       0.914  18.848 -15.322  1.00  0.00     0.277 HD
ENDBRANCH  11  16
ENDBRANCH   1  11
BRANCH  10  20
HETATM   20  N5  UNL     1      -2.060  16.617 -15.369  1.00  0.00    -0.108 N 
HETATM   21  O3  UNL     1      -1.511  16.379 -14.291  1.00  0.00    -0.531 OA
HETATM   22  O4  UNL     1      -2.103  15.648 -16.322  1.00  0.00    -0.531 OA
ENDBRANCH  10  20
TORSDOF 4
ENDMDL
