MODEL 1
REMARK VINA RESULT: -7.370397290      0.000      0.000
REMARK  8 active torsions:
REMARK  status: ('A' for Active; 'I' for Inactive)
REMARK    1  A    between atoms: N1_1  and  C1_4 
REMARK    2  A    between atoms: C2_7  and  N3_8 
REMARK    3  A    between atoms: N4_11  and  C3_12 
REMARK    4  A    between atoms: C3_12  and  C4_13 
REMARK    5  A    between atoms: C4_13  and  C5_14 
REMARK    6  A    between atoms: C5_14  and  C6_15 
REMARK    7  A    between atoms: C8_20  and  C9_21 
REMARK    8  A    between atoms: C9_21  and  N6_22 
ROOT
HETATM    1  C4  UNL     1      27.959  18.029  61.774  1.00  0.00     0.024 C 
ENDROOT
BRANCH   1   2
HETATM    2  C3  UNL     1      28.006  18.103  63.280  1.00  0.00     0.153 C 
BRANCH   2   3
HETATM    3  N4  UNL     1      27.639  19.436  63.721  1.00  0.00    -0.132 N 
HETATM    4  C2  UNL     1      26.366  19.800  63.954  1.00  0.00     0.696 A 
HETATM    5  N2  UNL     1      26.015  21.055  64.363  1.00  0.00    -0.022 N 
HETATM    6  C1  UNL     1      26.991  21.944  64.534  1.00  0.00     0.694 A 
ATOM      7  H2  UNL     1      25.040  21.302  64.531  1.00  0.00     0.203 HD
HETATM    8  N8  UNL     1      28.286  21.618  64.312  1.00  0.00    -0.140 N 
HETATM    9  C11 UNL     1      28.597  20.379  63.911  1.00  0.00     0.355 A 
ATOM     10  H8  UNL     1      29.020  22.313  64.449  1.00  0.00     0.189 HD
HETATM   11  O3  UNL     1      29.787  20.048  63.697  1.00  0.00    -0.245 OA
BRANCH   4  12
HETATM   12  N3  UNL     1      25.390  18.971  63.805  1.00  0.00    -0.234 N 
ATOM     13  H32 UNL     1      25.055  18.397  64.579  1.00  0.00     0.174 HD
ATOM     14  H31 UNL     1      24.983  18.933  62.870  1.00  0.00     0.174 HD
ENDBRANCH   4  12
BRANCH   6  15
HETATM   15  N1  UNL     1      26.746  23.155  64.920  1.00  0.00    -0.234 N 
ATOM     16  H12 UNL     1      27.416  23.873  64.647  1.00  0.00     0.174 HD
ATOM     17  H11 UNL     1      25.920  23.383  65.473  1.00  0.00     0.174 HD
ENDBRANCH   6  15
ENDBRANCH   2   3
ENDBRANCH   1   2
BRANCH   1  18
HETATM   18  C5  UNL     1      28.105  16.585  61.332  1.00  0.00     0.036 C 
BRANCH  18  19
HETATM   19  C6  UNL     1      26.968  16.302  60.343  1.00  0.00     0.176 C 
HETATM   20  N5  UNL     1      25.817  17.024  60.863  1.00  0.00    -0.346 N 
HETATM   21  C7  UNL     1      24.783  16.378  61.572  1.00  0.00     0.242 C 
ATOM     22  H5  UNL     1      25.756  18.031  60.710  1.00  0.00     0.163 HD
HETATM   23  O1  UNL     1      23.651  16.911  61.770  1.00  0.00    -0.271 OA
HETATM   24  C8  UNL     1      25.005  15.033  62.110  1.00  0.00     0.202 C 
HETATM   25  N7  UNL     1      26.046  14.285  61.461  1.00  0.00    -0.344 N 
HETATM   26  C10 UNL     1      26.736  14.844  60.374  1.00  0.00     0.241 C 
ATOM     27  H7  UNL     1      26.285  13.349  61.790  1.00  0.00     0.163 HD
HETATM   28  O2  UNL     1      27.151  14.134  59.441  1.00  0.00    -0.271 OA
BRANCH  24  29
HETATM   29  C9  UNL     1      23.726  14.191  61.962  1.00  0.00     0.264 C 
BRANCH  29  30
HETATM   30  N6  UNL     1      23.364  14.144  60.554  1.00  0.00    -0.077 N 
ATOM     31  H63 UNL     1      23.997  13.560  60.007  1.00  0.00     0.274 HD
ATOM     32  H62 UNL     1      22.507  13.615  60.389  1.00  0.00     0.274 HD
ATOM     33  H61 UNL     1      23.308  15.099  60.201  1.00  0.00     0.274 HD
ENDBRANCH  29  30
ENDBRANCH  24  29
ENDBRANCH  18  19
ENDBRANCH   1  18
TORSDOF 8
ENDMDL
MODEL 2
REMARK VINA RESULT: -7.305729180      1.739      6.735
REMARK  8 active torsions:
REMARK  status: ('A' for Active; 'I' for Inactive)
REMARK    1  A    between atoms: N1_1  and  C1_4 
REMARK    2  A    between atoms: C2_7  and  N3_8 
REMARK    3  A    between atoms: N4_11  and  C3_12 
REMARK    4  A    between atoms: C3_12  and  C4_13 
REMARK    5  A    between atoms: C4_13  and  C5_14 
REMARK    6  A    between atoms: C5_14  and  C6_15 
REMARK    7  A    between atoms: C8_20  and  C9_21 
REMARK    8  A    between atoms: C9_21  and  N6_22 
ROOT
HETATM    1  C4  UNL     1      27.942  17.193  62.726  1.00  0.00     0.024 C 
ENDROOT
BRANCH   1   2
HETATM    2  C3  UNL     1      27.104  16.242  63.543  1.00  0.00     0.153 C 
BRANCH   2   3
HETATM    3  N4  UNL     1      26.045  15.685  62.720  1.00  0.00    -0.132 N 
HETATM    4  C2  UNL     1      24.817  16.229  62.651  1.00  0.00     0.696 A 
HETATM    5  N2  UNL     1      23.816  15.705  61.884  1.00  0.00    -0.022 N 
HETATM    6  C1  UNL     1      24.087  14.608  61.181  1.00  0.00     0.694 A 
ATOM      7  H2  UNL     1      22.894  16.139  61.852  1.00  0.00     0.203 HD
HETATM    8  N8  UNL     1      25.310  14.030  61.222  1.00  0.00    -0.140 N 
HETATM    9  C11 UNL     1      26.270  14.568  61.984  1.00  0.00     0.355 A 
ATOM     10  H8  UNL     1      25.498  13.189  60.676  1.00  0.00     0.189 HD
HETATM   11  O3  UNL     1      27.413  14.055  62.043  1.00  0.00    -0.245 OA
BRANCH   4  12
HETATM   12  N3  UNL     1      24.513  17.293  63.312  1.00  0.00    -0.234 N 
ATOM     13  H32 UNL     1      24.313  17.261  64.312  1.00  0.00     0.174 HD
ATOM     14  H31 UNL     1      24.489  18.157  62.769  1.00  0.00     0.174 HD
ENDBRANCH   4  12
BRANCH   6  15
HETATM   15  N1  UNL     1      23.195  14.047  60.428  1.00  0.00    -0.234 N 
ATOM     16  H12 UNL     1      22.315  14.546  60.301  1.00  0.00     0.174 HD
ATOM     17  H11 UNL     1      23.363  13.145  59.981  1.00  0.00     0.174 HD
ENDBRANCH   6  15
ENDBRANCH   2   3
ENDBRANCH   1   2
BRANCH   1  18
HETATM   18  C5  UNL     1      28.615  18.195  63.646  1.00  0.00     0.036 C 
BRANCH  18  19
HETATM   19  C6  UNL     1      28.304  19.591  63.093  1.00  0.00     0.176 C 
HETATM   20  N5  UNL     1      29.185  20.496  63.813  1.00  0.00    -0.346 N 
HETATM   21  C7  UNL     1      28.730  21.291  64.885  1.00  0.00     0.242 C 
ATOM     22  H5  UNL     1      30.164  20.558  63.533  1.00  0.00     0.163 HD
HETATM   23  O1  UNL     1      29.380  22.286  65.326  1.00  0.00    -0.271 OA
HETATM   24  C8  UNL     1      27.453  20.974  65.532  1.00  0.00     0.202 C 
HETATM   25  N7  UNL     1      26.539  20.212  64.726  1.00  0.00    -0.344 N 
HETATM   26  C10 UNL     1      26.888  19.864  63.412  1.00  0.00     0.241 C 
ATOM     27  H7  UNL     1      25.638  19.925  65.108  1.00  0.00     0.163 HD
HETATM   28  O2  UNL     1      26.028  19.783  62.517  1.00  0.00    -0.271 OA
BRANCH  24  29
HETATM   29  C9  UNL     1      26.713  22.271  65.898  1.00  0.00     0.264 C 
BRANCH  29  30
HETATM   30  N6  UNL     1      26.750  23.165  64.751  1.00  0.00    -0.077 N 
ATOM     31  H63 UNL     1      26.635  22.670  63.866  1.00  0.00     0.274 HD
ATOM     32  H62 UNL     1      25.922  23.757  64.690  1.00  0.00     0.274 HD
ATOM     33  H61 UNL     1      27.615  23.705  64.788  1.00  0.00     0.274 HD
ENDBRANCH  29  30
ENDBRANCH  24  29
ENDBRANCH  18  19
ENDBRANCH   1  18
TORSDOF 8
ENDMDL
MODEL 3
REMARK VINA RESULT: -7.286532133      1.040      1.656
REMARK  8 active torsions:
REMARK  status: ('A' for Active; 'I' for Inactive)
REMARK    1  A    between atoms: N1_1  and  C1_4 
REMARK    2  A    between atoms: C2_7  and  N3_8 
REMARK    3  A    between atoms: N4_11  and  C3_12 
REMARK    4  A    between atoms: C3_12  and  C4_13 
REMARK    5  A    between atoms: C4_13  and  C5_14 
REMARK    6  A    between atoms: C5_14  and  C6_15 
REMARK    7  A    between atoms: C8_20  and  C9_21 
REMARK    8  A    between atoms: C9_21  and  N6_22 
ROOT
HETATM    1  C4  UNL     1      28.157  17.945  61.707  1.00  0.00     0.024 C 
ENDROOT
BRANCH   1   2
HETATM    2  C3  UNL     1      28.606  18.146  63.132  1.00  0.00     0.153 C 
BRANCH   2   3
HETATM    3  N4  UNL     1      28.075  19.395  63.646  1.00  0.00    -0.132 N 
HETATM    4  C2  UNL     1      28.683  20.579  63.451  1.00  0.00     0.696 A 
HETATM    5  N2  UNL     1      28.191  21.756  63.938  1.00  0.00    -0.022 N 
HETATM    6  C1  UNL     1      27.057  21.709  64.635  1.00  0.00     0.694 A 
ATOM      7  H2  UNL     1      28.675  22.638  63.775  1.00  0.00     0.203 HD
HETATM    8  N8  UNL     1      26.414  20.539  64.854  1.00  0.00    -0.140 N 
HETATM    9  C11 UNL     1      26.922  19.402  64.362  1.00  0.00     0.355 A 
ATOM     10  H8  UNL     1      25.546  20.524  65.390  1.00  0.00     0.189 HD
HETATM   11  O3  UNL     1      26.349  18.303  64.549  1.00  0.00    -0.245 OA
BRANCH   4  12
HETATM   12  N3  UNL     1      29.779  20.670  62.780  1.00  0.00    -0.234 N 
ATOM     13  H32 UNL     1      29.870  21.311  61.991  1.00  0.00     0.174 HD
ATOM     14  H31 UNL     1      30.539  20.065  63.092  1.00  0.00     0.174 HD
ENDBRANCH   4  12
BRANCH   6  15
HETATM   15  N1  UNL     1      26.522  22.778  65.132  1.00  0.00    -0.234 N 
ATOM     16  H12 UNL     1      27.032  23.247  65.880  1.00  0.00     0.174 HD
ATOM     17  H11 UNL     1      25.629  23.137  64.793  1.00  0.00     0.174 HD
ENDBRANCH   6  15
ENDBRANCH   2   3
ENDBRANCH   1   2
BRANCH   1  18
HETATM   18  C5  UNL     1      28.127  16.461  61.388  1.00  0.00     0.036 C 
BRANCH  18  19
HETATM   19  C6  UNL     1      26.987  16.241  60.387  1.00  0.00     0.176 C 
HETATM   20  N5  UNL     1      25.855  16.982  60.923  1.00  0.00    -0.346 N 
HETATM   21  C7  UNL     1      24.800  16.347  61.609  1.00  0.00     0.242 C 
ATOM     22  H5  UNL     1      25.825  17.995  60.799  1.00  0.00     0.163 HD
HETATM   23  O1  UNL     1      23.682  16.907  61.818  1.00  0.00    -0.271 OA
HETATM   24  C8  UNL     1      24.979  14.980  62.108  1.00  0.00     0.202 C 
HETATM   25  N7  UNL     1      26.001  14.221  61.442  1.00  0.00    -0.344 N 
HETATM   26  C10 UNL     1      26.712  14.791  60.374  1.00  0.00     0.241 C 
ATOM     27  H7  UNL     1      26.210  13.270  61.744  1.00  0.00     0.163 HD
HETATM   28  O2  UNL     1      27.110  14.096  59.422  1.00  0.00    -0.271 OA
BRANCH  24  29
HETATM   29  C9  UNL     1      23.677  14.181  61.931  1.00  0.00     0.264 C 
BRANCH  29  30
HETATM   30  N6  UNL     1      23.348  14.140  60.515  1.00  0.00    -0.077 N 
ATOM     31  H63 UNL     1      24.035  14.629  59.940  1.00  0.00     0.274 HD
ATOM     32  H62 UNL     1      23.466  13.209  60.113  1.00  0.00     0.274 HD
ATOM     33  H61 UNL     1      22.403  14.503  60.390  1.00  0.00     0.274 HD
ENDBRANCH  29  30
ENDBRANCH  24  29
ENDBRANCH  18  19
ENDBRANCH   1  18
TORSDOF 8
ENDMDL
MODEL 4
REMARK VINA RESULT: -7.102771817      1.769      6.766
REMARK  8 active torsions:
REMARK  status: ('A' for Active; 'I' for Inactive)
REMARK    1  A    between atoms: N1_1  and  C1_4 
REMARK    2  A    between atoms: C2_7  and  N3_8 
REMARK    3  A    between atoms: N4_11  and  C3_12 
REMARK    4  A    between atoms: C3_12  and  C4_13 
REMARK    5  A    between atoms: C4_13  and  C5_14 
REMARK    6  A    between atoms: C5_14  and  C6_15 
REMARK    7  A    between atoms: C8_20  and  C9_21 
REMARK    8  A    between atoms: C9_21  and  N6_22 
ROOT
HETATM    1  C4  UNL     1      28.372  17.357  61.932  1.00  0.00     0.024 C 
ENDROOT
BRANCH   1   2
HETATM    2  C3  UNL     1      28.089  15.967  62.443  1.00  0.00     0.153 C 
BRANCH   2   3
HETATM    3  N4  UNL     1      26.829  15.488  61.903  1.00  0.00    -0.132 N 
HETATM    4  C2  UNL     1      26.757  14.699  60.817  1.00  0.00     0.696 A 
HETATM    5  N2  UNL     1      25.574  14.252  60.302  1.00  0.00    -0.022 N 
HETATM    6  C1  UNL     1      24.453  14.623  60.916  1.00  0.00     0.694 A 
ATOM      7  H2  UNL     1      25.550  13.655  59.475  1.00  0.00     0.203 HD
HETATM    8  N8  UNL     1      24.482  15.415  62.013  1.00  0.00    -0.140 N 
HETATM    9  C11 UNL     1      25.658  15.837  62.494  1.00  0.00     0.355 A 
ATOM     10  H8  UNL     1      23.612  15.689  62.471  1.00  0.00     0.189 HD
HETATM   11  O3  UNL     1      25.717  16.572  63.508  1.00  0.00    -0.245 OA
BRANCH   4  12
HETATM   12  N3  UNL     1      27.817  14.313  60.193  1.00  0.00    -0.234 N 
ATOM     13  H32 UNL     1      27.866  13.399  59.742  1.00  0.00     0.174 HD
ATOM     14  H31 UNL     1      28.589  14.979  60.182  1.00  0.00     0.174 HD
ENDBRANCH   4  12
BRANCH   6  15
HETATM   15  N1  UNL     1      23.290  14.243  60.494  1.00  0.00    -0.234 N 
ATOM     16  H12 UNL     1      23.054  14.460  59.526  1.00  0.00     0.174 HD
ATOM     17  H11 UNL     1      22.635  13.749  61.101  1.00  0.00     0.174 HD
ENDBRANCH   6  15
ENDBRANCH   2   3
ENDBRANCH   1   2
BRANCH   1  18
HETATM   18  C5  UNL     1      28.775  18.251  63.089  1.00  0.00     0.036 C 
BRANCH  18  19
HETATM   19  C6  UNL     1      28.354  19.678  62.720  1.00  0.00     0.176 C 
HETATM   20  N5  UNL     1      29.245  20.550  63.470  1.00  0.00    -0.346 N 
HETATM   21  C7  UNL     1      28.838  21.198  64.655  1.00  0.00     0.242 C 
ATOM     22  H5  UNL     1      30.195  20.697  63.128  1.00  0.00     0.163 HD
HETATM   23  O1  UNL     1      29.472  22.174  65.155  1.00  0.00    -0.271 OA
HETATM   24  C8  UNL     1      27.633  20.740  65.354  1.00  0.00     0.202 C 
HETATM   25  N7  UNL     1      26.696  20.020  64.537  1.00  0.00    -0.344 N 
HETATM   26  C10 UNL     1      26.956  19.835  63.170  1.00  0.00     0.241 C 
ATOM     27  H7  UNL     1      25.843  19.642  64.950  1.00  0.00     0.163 HD
HETATM   28  O2  UNL     1      26.032  19.803  62.338  1.00  0.00    -0.271 OA
BRANCH  24  29
HETATM   29  C9  UNL     1      26.862  21.947  65.916  1.00  0.00     0.264 C 
BRANCH  29  30
HETATM   30  N6  UNL     1      26.784  22.967  64.884  1.00  0.00    -0.077 N 
ATOM     31  H63 UNL     1      27.274  22.699  64.030  1.00  0.00     0.274 HD
ATOM     32  H62 UNL     1      25.847  23.051  64.487  1.00  0.00     0.274 HD
ATOM     33  H61 UNL     1      27.124  23.848  65.271  1.00  0.00     0.274 HD
ENDBRANCH  29  30
ENDBRANCH  24  29
ENDBRANCH  18  19
ENDBRANCH   1  18
TORSDOF 8
ENDMDL
MODEL 5
REMARK VINA RESULT: -7.052218448      1.812      7.005
REMARK  8 active torsions:
REMARK  status: ('A' for Active; 'I' for Inactive)
REMARK    1  A    between atoms: N1_1  and  C1_4 
REMARK    2  A    between atoms: C2_7  and  N3_8 
REMARK    3  A    between atoms: N4_11  and  C3_12 
REMARK    4  A    between atoms: C3_12  and  C4_13 
REMARK    5  A    between atoms: C4_13  and  C5_14 
REMARK    6  A    between atoms: C5_14  and  C6_15 
REMARK    7  A    between atoms: C8_20  and  C9_21 
REMARK    8  A    between atoms: C9_21  and  N6_22 
ROOT
HETATM    1  C4  UNL     1      27.777  17.287  62.049  1.00  0.00     0.024 C 
ENDROOT
BRANCH   1   2
HETATM    2  C3  UNL     1      26.487  17.620  61.343  1.00  0.00     0.153 C 
BRANCH   2   3
HETATM    3  N4  UNL     1      25.588  16.482  61.393  1.00  0.00    -0.132 N 
HETATM    4  C2  UNL     1      25.665  15.456  60.526  1.00  0.00     0.696 A 
HETATM    5  N2  UNL     1      24.817  14.387  60.564  1.00  0.00    -0.022 N 
HETATM    6  C1  UNL     1      23.879  14.376  61.509  1.00  0.00     0.694 A 
ATOM      7  H2  UNL     1      24.900  13.624  59.893  1.00  0.00     0.203 HD
HETATM    8  N8  UNL     1      23.768  15.388  62.401  1.00  0.00    -0.140 N 
HETATM    9  C11 UNL     1      24.615  16.422  62.337  1.00  0.00     0.355 A 
ATOM     10  H8  UNL     1      23.043  15.361  63.118  1.00  0.00     0.189 HD
HETATM   11  O3  UNL     1      24.536  17.375  63.149  1.00  0.00    -0.245 OA
BRANCH   4  12
HETATM   12  N3  UNL     1      26.560  15.424  59.599  1.00  0.00    -0.234 N 
ATOM     13  H32 UNL     1      26.365  15.017  58.684  1.00  0.00     0.174 HD
ATOM     14  H31 UNL     1      27.463  15.831  59.844  1.00  0.00     0.174 HD
ENDBRANCH   4  12
BRANCH   6  15
HETATM   15  N1  UNL     1      23.035  13.400  61.616  1.00  0.00    -0.234 N 
ATOM     16  H12 UNL     1      22.691  12.987  60.750  1.00  0.00     0.174 HD
ATOM     17  H11 UNL     1      22.726  13.058  62.526  1.00  0.00     0.174 HD
ENDBRANCH   6  15
ENDBRANCH   2   3
ENDBRANCH   1   2
BRANCH   1  18
HETATM   18  C5  UNL     1      27.845  18.039  63.365  1.00  0.00     0.036 C 
BRANCH  18  19
HETATM   19  C6  UNL     1      27.835  19.535  63.027  1.00  0.00     0.176 C 
HETATM   20  N5  UNL     1      29.141  20.031  63.434  1.00  0.00    -0.346 N 
HETATM   21  C7  UNL     1      29.330  20.744  64.635  1.00  0.00     0.242 C 
ATOM     22  H5  UNL     1      29.945  19.857  62.831  1.00  0.00     0.163 HD
HETATM   23  O1  UNL     1      30.368  21.433  64.868  1.00  0.00    -0.271 OA
HETATM   24  C8  UNL     1      28.296  20.703  65.674  1.00  0.00     0.202 C 
HETATM   25  N7  UNL     1      26.980  20.366  65.205  1.00  0.00    -0.344 N 
HETATM   26  C10 UNL     1      26.761  20.143  63.837  1.00  0.00     0.241 C 
ATOM     27  H7  UNL     1      26.207  20.288  65.865  1.00  0.00     0.163 HD
HETATM   28  O2  UNL     1      25.682  20.449  63.300  1.00  0.00    -0.271 OA
BRANCH  24  29
HETATM   29  C9  UNL     1      28.166  22.082  66.341  1.00  0.00     0.264 C 
BRANCH  29  30
HETATM   30  N6  UNL     1      27.803  23.056  65.323  1.00  0.00    -0.077 N 
ATOM     31  H63 UNL     1      28.595  23.325  64.740  1.00  0.00     0.274 HD
ATOM     32  H62 UNL     1      27.218  22.655  64.590  1.00  0.00     0.274 HD
ATOM     33  H61 UNL     1      27.364  23.855  65.780  1.00  0.00     0.274 HD
ENDBRANCH  29  30
ENDBRANCH  24  29
ENDBRANCH  18  19
ENDBRANCH   1  18
TORSDOF 8
ENDMDL
