MODEL 1
REMARK VINA RESULT: -6.695196305      0.000      0.000
REMARK  10 active torsions:
REMARK  status: ('A' for Active; 'I' for Inactive)
REMARK    1  A    between atoms: C3_3  and  N1_4 
REMARK    2  A    between atoms: N1_4  and  C6_7 
REMARK    3  A    between atoms: C6_7  and  C7_8 
REMARK    4  A    between atoms: C8_9  and  O1_10 
REMARK    5  A    between atoms: C9_12  and  C10_13 
REMARK    6  A    between atoms: C10_13  and  O2_14 
REMARK    7  A    between atoms: C10_13  and  C11_16 
REMARK    8  A    between atoms: C11_16  and  O3_17 
REMARK    9  A    between atoms: C12_19  and  O4_20 
REMARK   10  A    between atoms: C14_24  and  N3_25 
ROOT
HETATM    1  C1  UNL     1      23.778  14.125  62.206  1.00  0.00     0.098 C 
HETATM    2  C2  UNL     1      24.989  13.999  62.042  1.00  0.00    -0.160 C 
HETATM    3  C3  UNL     1      26.427  13.823  61.856  1.00  0.00     0.315 C 
ENDROOT
BRANCH   3   4
HETATM    4  N1  UNL     1      26.993  15.085  61.356  1.00  0.00    -0.065 N 
HETATM    5  C4  UNL     1      28.346  14.701  60.889  1.00  0.00     0.273 C 
HETATM    6  C5  UNL     1      26.235  15.412  60.206  1.00  0.00     0.273 C 
BRANCH   4   7
HETATM    7  C6  UNL     1      27.207  16.063  62.364  1.00  0.00     0.248 C 
BRANCH   7   8
HETATM    8  C7  UNL     1      26.603  17.391  62.256  1.00  0.00     0.103 C 
HETATM    9  C8  UNL     1      25.337  17.460  63.081  1.00  0.00     0.138 C 
HETATM   10  C9  UNL     1      25.301  18.603  64.044  1.00  0.00     0.105 C 
HETATM   11  C12 UNL     1      26.600  18.592  64.789  1.00  0.00     0.367 C 
HETATM   12  N2  UNL     1      27.745  18.778  63.944  1.00  0.00     0.145 N 
HETATM   13  C13 UNL     1      28.242  20.103  64.264  1.00  0.00     0.316 C 
HETATM   14  C14 UNL     1      27.473  18.575  62.532  1.00  0.00     0.433 C 
BRANCH   9  15
HETATM   15  O1  UNL     1      24.191  17.607  62.295  1.00  0.00    -0.394 OA
ATOM     16  H1  UNL     1      23.407  17.289  62.728  1.00  0.00     0.210 HD
ENDBRANCH   9  15
BRANCH  10  17
HETATM   17  C10 UNL     1      24.215  18.383  65.053  1.00  0.00     0.152 C 
BRANCH  17  18
HETATM   18  O2  UNL     1      23.241  17.511  64.614  1.00  0.00    -0.393 OA
ATOM     19  H2  UNL     1      22.372  17.895  64.616  1.00  0.00     0.210 HD
ENDBRANCH  17  18
BRANCH  17  20
HETATM   20  C11 UNL     1      23.591  19.607  65.622  1.00  0.00     0.196 C 
BRANCH  20  21
HETATM   21  O3  UNL     1      22.389  19.927  64.976  1.00  0.00    -0.398 OA
ATOM     22  H3  UNL     1      21.648  19.885  65.569  1.00  0.00     0.209 HD
ENDBRANCH  20  21
ENDBRANCH  17  20
ENDBRANCH  10  17
BRANCH  11  23
HETATM   23  O4  UNL     1      26.724  17.522  65.689  1.00  0.00    -0.367 OA
ATOM     24  H4  UNL     1      27.596  17.431  66.055  1.00  0.00     0.212 HD
ENDBRANCH  11  23
BRANCH  14  25
HETATM   25  N3  UNL     1      28.619  18.770  61.717  1.00  0.00    -0.046 N 
HETATM   26  C15 UNL     1      29.108  20.162  61.773  1.00  0.00     0.274 C 
HETATM   27  C16 UNL     1      29.776  17.962  61.923  1.00  0.00     0.274 C 
HETATM   28  C17 UNL     1      28.278  18.537  60.292  1.00  0.00     0.274 C 
ENDBRANCH  14  25
ENDBRANCH   7   8
ENDBRANCH   4   7
ENDBRANCH   3   4
TORSDOF 10
ENDMDL
MODEL 2
REMARK VINA RESULT: -6.381481996      3.147      5.422
REMARK  10 active torsions:
REMARK  status: ('A' for Active; 'I' for Inactive)
REMARK    1  A    between atoms: C3_3  and  N1_4 
REMARK    2  A    between atoms: N1_4  and  C6_7 
REMARK    3  A    between atoms: C6_7  and  C7_8 
REMARK    4  A    between atoms: C8_9  and  O1_10 
REMARK    5  A    between atoms: C9_12  and  C10_13 
REMARK    6  A    between atoms: C10_13  and  O2_14 
REMARK    7  A    between atoms: C10_13  and  C11_16 
REMARK    8  A    between atoms: C11_16  and  O3_17 
REMARK    9  A    between atoms: C12_19  and  O4_20 
REMARK   10  A    between atoms: C14_24  and  N3_25 
ROOT
HETATM    1  C1  UNL     1      26.812  17.191  58.377  1.00  0.00     0.098 C 
HETATM    2  C2  UNL     1      26.827  16.379  59.297  1.00  0.00    -0.160 C 
HETATM    3  C3  UNL     1      26.850  15.392  60.375  1.00  0.00     0.315 C 
ENDROOT
BRANCH   3   4
HETATM    4  N1  UNL     1      26.537  16.072  61.640  1.00  0.00    -0.065 N 
HETATM    5  C4  UNL     1      25.143  16.538  61.452  1.00  0.00     0.273 C 
HETATM    6  C5  UNL     1      26.504  15.053  62.622  1.00  0.00     0.273 C 
BRANCH   4   7
HETATM    7  C6  UNL     1      27.299  17.250  61.868  1.00  0.00     0.248 C 
BRANCH   7   8
HETATM    8  C7  UNL     1      28.156  17.368  63.048  1.00  0.00     0.103 C 
HETATM    9  C8  UNL     1      29.554  16.884  62.732  1.00  0.00     0.138 C 
HETATM   10  C9  UNL     1      30.628  17.867  63.070  1.00  0.00     0.105 C 
HETATM   11  C12 UNL     1      30.216  19.186  62.491  1.00  0.00     0.367 C 
HETATM   12  N2  UNL     1      28.986  19.689  63.034  1.00  0.00     0.145 N 
HETATM   13  C13 UNL     1      29.369  20.826  63.849  1.00  0.00     0.316 C 
HETATM   14  C14 UNL     1      28.204  18.692  63.742  1.00  0.00     0.433 C 
BRANCH   9  15
HETATM   15  O1  UNL     1      29.890  15.721  63.429  1.00  0.00    -0.394 OA
ATOM     16  H1  UNL     1      29.599  15.740  64.333  1.00  0.00     0.210 HD
ENDBRANCH   9  15
BRANCH  10  17
HETATM   17  C10 UNL     1      31.907  17.474  62.396  1.00  0.00     0.152 C 
BRANCH  17  18
HETATM   18  O2  UNL     1      31.749  16.431  61.507  1.00  0.00    -0.393 OA
ATOM     19  H2  UNL     1      32.030  15.596  61.861  1.00  0.00     0.210 HD
ENDBRANCH  17  18
BRANCH  17  20
HETATM   20  C11 UNL     1      33.067  17.215  63.290  1.00  0.00     0.196 C 
BRANCH  20  21
HETATM   21  O3  UNL     1      34.193  16.790  62.572  1.00  0.00    -0.398 OA
ATOM     22  H3  UNL     1      34.973  17.270  62.823  1.00  0.00     0.209 HD
ENDBRANCH  20  21
ENDBRANCH  17  20
ENDBRANCH  10  17
BRANCH  11  23
HETATM   23  O4  UNL     1      30.280  19.230  61.089  1.00  0.00    -0.367 OA
ATOM     24  H4  UNL     1      29.768  19.932  60.706  1.00  0.00     0.212 HD
ENDBRANCH  11  23
BRANCH  14  25
HETATM   25  N3  UNL     1      26.996  19.214  64.274  1.00  0.00    -0.046 N 
HETATM   26  C15 UNL     1      27.231  20.026  65.485  1.00  0.00     0.274 C 
HETATM   27  C16 UNL     1      26.150  20.014  63.449  1.00  0.00     0.274 C 
HETATM   28  C17 UNL     1      26.112  18.108  64.715  1.00  0.00     0.274 C 
ENDBRANCH  14  25
ENDBRANCH   7   8
ENDBRANCH   4   7
ENDBRANCH   3   4
TORSDOF 10
ENDMDL
MODEL 3
REMARK VINA RESULT: -6.224980114      1.950      2.221
REMARK  10 active torsions:
REMARK  status: ('A' for Active; 'I' for Inactive)
REMARK    1  A    between atoms: C3_3  and  N1_4 
REMARK    2  A    between atoms: N1_4  and  C6_7 
REMARK    3  A    between atoms: C6_7  and  C7_8 
REMARK    4  A    between atoms: C8_9  and  O1_10 
REMARK    5  A    between atoms: C9_12  and  C10_13 
REMARK    6  A    between atoms: C10_13  and  O2_14 
REMARK    7  A    between atoms: C10_13  and  C11_16 
REMARK    8  A    between atoms: C11_16  and  O3_17 
REMARK    9  A    between atoms: C12_19  and  O4_20 
REMARK   10  A    between atoms: C14_24  and  N3_25 
ROOT
HETATM    1  C1  UNL     1      23.651  16.809  61.994  1.00  0.00     0.098 C 
HETATM    2  C2  UNL     1      24.619  16.109  61.714  1.00  0.00    -0.160 C 
HETATM    3  C3  UNL     1      25.755  15.253  61.378  1.00  0.00     0.315 C 
ENDROOT
BRANCH   3   4
HETATM    4  N1  UNL     1      26.986  16.053  61.466  1.00  0.00    -0.065 N 
HETATM    5  C4  UNL     1      28.066  15.055  61.283  1.00  0.00     0.273 C 
HETATM    6  C5  UNL     1      26.987  16.879  60.316  1.00  0.00     0.273 C 
BRANCH   4   7
HETATM    7  C6  UNL     1      27.215  16.623  62.747  1.00  0.00     0.248 C 
BRANCH   7   8
HETATM    8  C7  UNL     1      27.672  18.007  62.878  1.00  0.00     0.103 C 
HETATM    9  C8  UNL     1      26.506  18.919  63.184  1.00  0.00     0.138 C 
HETATM   10  C9  UNL     1      26.706  19.777  64.393  1.00  0.00     0.105 C 
HETATM   11  C12 UNL     1      27.179  18.880  65.495  1.00  0.00     0.367 C 
HETATM   12  N2  UNL     1      28.431  18.237  65.212  1.00  0.00     0.145 N 
HETATM   13  C13 UNL     1      29.390  18.866  66.101  1.00  0.00     0.316 C 
HETATM   14  C14 UNL     1      28.809  18.278  63.811  1.00  0.00     0.433 C 
BRANCH   9  15
HETATM   15  O1  UNL     1      26.232  19.810  62.144  1.00  0.00    -0.394 OA
ATOM     16  H1  UNL     1      25.386  19.653  61.741  1.00  0.00     0.210 HD
ENDBRANCH   9  15
BRANCH  10  17
HETATM   17  C10 UNL     1      25.394  20.354  64.829  1.00  0.00     0.152 C 
BRANCH  17  18
HETATM   18  O2  UNL     1      24.310  19.694  64.290  1.00  0.00    -0.393 OA
ATOM     19  H2  UNL     1      23.485  19.952  64.685  1.00  0.00     0.210 HD
ENDBRANCH  17  18
BRANCH  17  20
HETATM   20  C11 UNL     1      25.236  21.823  64.664  1.00  0.00     0.196 C 
BRANCH  20  21
HETATM   21  O3  UNL     1      24.651  22.148  63.433  1.00  0.00    -0.398 OA
ATOM     22  H3  UNL     1      25.240  21.977  62.706  1.00  0.00     0.209 HD
ENDBRANCH  20  21
ENDBRANCH  17  20
ENDBRANCH  10  17
BRANCH  11  23
HETATM   23  O4  UNL     1      26.188  18.010  65.978  1.00  0.00    -0.367 OA
ATOM     24  H4  UNL     1      26.168  17.944  66.925  1.00  0.00     0.212 HD
ENDBRANCH  11  23
BRANCH  14  25
HETATM   25  N3  UNL     1      30.052  17.641  63.557  1.00  0.00    -0.046 N 
HETATM   26  C15 UNL     1      31.184  18.379  64.152  1.00  0.00     0.274 C 
HETATM   27  C16 UNL     1      30.243  16.284  63.955  1.00  0.00     0.274 C 
HETATM   28  C17 UNL     1      30.328  17.621  62.100  1.00  0.00     0.274 C 
ENDBRANCH  14  25
ENDBRANCH   7   8
ENDBRANCH   4   7
ENDBRANCH   3   4
TORSDOF 10
ENDMDL
MODEL 4
REMARK VINA RESULT: -6.055796145      2.207      2.898
REMARK  10 active torsions:
REMARK  status: ('A' for Active; 'I' for Inactive)
REMARK    1  A    between atoms: C3_3  and  N1_4 
REMARK    2  A    between atoms: N1_4  and  C6_7 
REMARK    3  A    between atoms: C6_7  and  C7_8 
REMARK    4  A    between atoms: C8_9  and  O1_10 
REMARK    5  A    between atoms: C9_12  and  C10_13 
REMARK    6  A    between atoms: C10_13  and  O2_14 
REMARK    7  A    between atoms: C10_13  and  C11_16 
REMARK    8  A    between atoms: C11_16  and  O3_17 
REMARK    9  A    between atoms: C12_19  and  O4_20 
REMARK   10  A    between atoms: C14_24  and  N3_25 
ROOT
HETATM    1  C1  UNL     1      27.129  14.153  59.979  1.00  0.00     0.098 C 
HETATM    2  C2  UNL     1      26.644  14.417  61.075  1.00  0.00    -0.160 C 
HETATM    3  C3  UNL     1      26.067  14.704  62.387  1.00  0.00     0.315 C 
ENDROOT
BRANCH   3   4
HETATM    4  N1  UNL     1      25.805  16.148  62.477  1.00  0.00    -0.065 N 
HETATM    5  C4  UNL     1      26.167  16.655  61.132  1.00  0.00     0.273 C 
HETATM    6  C5  UNL     1      24.400  16.273  62.603  1.00  0.00     0.273 C 
BRANCH   4   7
HETATM    7  C6  UNL     1      26.660  16.836  63.380  1.00  0.00     0.248 C 
BRANCH   7   8
HETATM    8  C7  UNL     1      27.303  18.091  62.990  1.00  0.00     0.103 C 
HETATM    9  C8  UNL     1      26.403  19.264  63.311  1.00  0.00     0.138 C 
HETATM   10  C9  UNL     1      27.060  20.326  64.133  1.00  0.00     0.105 C 
HETATM   11  C12 UNL     1      27.726  19.642  65.287  1.00  0.00     0.367 C 
HETATM   12  N2  UNL     1      28.746  18.714  64.889  1.00  0.00     0.145 N 
HETATM   13  C13 UNL     1      29.997  19.331  65.287  1.00  0.00     0.316 C 
HETATM   14  C14 UNL     1      28.691  18.344  63.487  1.00  0.00     0.433 C 
BRANCH   9  15
HETATM   15  O1  UNL     1      25.944  19.918  62.165  1.00  0.00    -0.394 OA
ATOM     16  H1  UNL     1      26.582  19.911  61.460  1.00  0.00     0.210 HD
ENDBRANCH   9  15
BRANCH  10  17
HETATM   17  C10 UNL     1      26.021  21.241  64.705  1.00  0.00     0.152 C 
BRANCH  17  18
HETATM   18  O2  UNL     1      25.061  21.607  63.786  1.00  0.00    -0.393 OA
ATOM     19  H2  UNL     1      24.860  20.917  63.164  1.00  0.00     0.210 HD
ENDBRANCH  17  18
BRANCH  17  20
HETATM   20  C11 UNL     1      26.526  22.438  65.427  1.00  0.00     0.196 C 
BRANCH  20  21
HETATM   21  O3  UNL     1      26.783  23.503  64.552  1.00  0.00    -0.398 OA
ATOM     22  H3  UNL     1      27.076  23.197  63.701  1.00  0.00     0.209 HD
ENDBRANCH  20  21
ENDBRANCH  17  20
ENDBRANCH  10  17
BRANCH  11  23
HETATM   23  O4  UNL     1      26.825  19.128  66.232  1.00  0.00    -0.367 OA
ATOM     24  H4  UNL     1      26.352  18.361  65.930  1.00  0.00     0.212 HD
ENDBRANCH  11  23
BRANCH  14  25
HETATM   25  N3  UNL     1      29.712  17.429  63.117  1.00  0.00    -0.046 N 
HETATM   26  C15 UNL     1      30.173  16.622  64.265  1.00  0.00     0.274 C 
HETATM   27  C16 UNL     1      29.470  16.487  62.074  1.00  0.00     0.274 C 
HETATM   28  C17 UNL     1      30.914  18.164  62.654  1.00  0.00     0.274 C 
ENDBRANCH  14  25
ENDBRANCH   7   8
ENDBRANCH   4   7
ENDBRANCH   3   4
TORSDOF 10
ENDMDL
MODEL 5
REMARK VINA RESULT: -6.041029446      1.804      2.233
REMARK  10 active torsions:
REMARK  status: ('A' for Active; 'I' for Inactive)
REMARK    1  A    between atoms: C3_3  and  N1_4 
REMARK    2  A    between atoms: N1_4  and  C6_7 
REMARK    3  A    between atoms: C6_7  and  C7_8 
REMARK    4  A    between atoms: C8_9  and  O1_10 
REMARK    5  A    between atoms: C9_12  and  C10_13 
REMARK    6  A    between atoms: C10_13  and  O2_14 
REMARK    7  A    between atoms: C10_13  and  C11_16 
REMARK    8  A    between atoms: C11_16  and  O3_17 
REMARK    9  A    between atoms: C12_19  and  O4_20 
REMARK   10  A    between atoms: C14_24  and  N3_25 
ROOT
HETATM    1  C1  UNL     1      26.040  13.170  61.849  1.00  0.00     0.098 C 
HETATM    2  C2  UNL     1      26.619  14.075  61.255  1.00  0.00    -0.160 C 
HETATM    3  C3  UNL     1      27.324  15.133  60.534  1.00  0.00     0.315 C 
ENDROOT
BRANCH   3   4
HETATM    4  N1  UNL     1      26.800  16.433  60.980  1.00  0.00    -0.065 N 
HETATM    5  C4  UNL     1      27.470  17.406  60.086  1.00  0.00     0.273 C 
HETATM    6  C5  UNL     1      25.427  16.429  60.634  1.00  0.00     0.273 C 
BRANCH   4   7
HETATM    7  C6  UNL     1      27.197  16.796  62.296  1.00  0.00     0.248 C 
BRANCH   7   8
HETATM    8  C7  UNL     1      27.665  18.152  62.587  1.00  0.00     0.103 C 
HETATM    9  C8  UNL     1      26.512  19.018  63.043  1.00  0.00     0.138 C 
HETATM   10  C9  UNL     1      26.753  19.715  64.344  1.00  0.00     0.105 C 
HETATM   11  C12 UNL     1      27.255  18.685  65.308  1.00  0.00     0.367 C 
HETATM   12  N2  UNL     1      28.494  18.082  64.907  1.00  0.00     0.145 N 
HETATM   13  C13 UNL     1      29.483  18.592  65.839  1.00  0.00     0.316 C 
HETATM   14  C14 UNL     1      28.830  18.301  63.512  1.00  0.00     0.433 C 
BRANCH   9  15
HETATM   15  O1  UNL     1      26.211  20.035  62.133  1.00  0.00    -0.394 OA
ATOM     16  H1  UNL     1      25.756  19.714  61.363  1.00  0.00     0.210 HD
ENDBRANCH   9  15
BRANCH  10  17
HETATM   17  C10 UNL     1      25.458  20.233  64.890  1.00  0.00     0.152 C 
BRANCH  17  18
HETATM   18  O2  UNL     1      24.356  19.605  64.348  1.00  0.00    -0.393 OA
ATOM     19  H2  UNL     1      24.113  18.814  64.815  1.00  0.00     0.210 HD
ENDBRANCH  17  18
BRANCH  17  20
HETATM   20  C11 UNL     1      25.277  21.708  64.860  1.00  0.00     0.196 C 
BRANCH  20  21
HETATM   21  O3  UNL     1      24.711  22.139  63.652  1.00  0.00    -0.398 OA
ATOM     22  H3  UNL     1      25.289  21.977  62.915  1.00  0.00     0.209 HD
ENDBRANCH  20  21
ENDBRANCH  17  20
ENDBRANCH  10  17
BRANCH  11  23
HETATM   23  O4  UNL     1      26.275  17.762  65.706  1.00  0.00    -0.367 OA
ATOM     24  H4  UNL     1      26.604  17.083  66.284  1.00  0.00     0.212 HD
ENDBRANCH  11  23
BRANCH  14  25
HETATM   25  N3  UNL     1      30.062  17.700  63.140  1.00  0.00    -0.046 N 
HETATM   26  C15 UNL     1      31.134  17.991  64.113  1.00  0.00     0.274 C 
HETATM   27  C16 UNL     1      30.123  16.290  62.931  1.00  0.00     0.274 C 
HETATM   28  C17 UNL     1      30.541  18.267  61.856  1.00  0.00     0.274 C 
ENDBRANCH  14  25
ENDBRANCH   7   8
ENDBRANCH   4   7
ENDBRANCH   3   4
TORSDOF 10
ENDMDL
