MODEL 1
REMARK VINA RESULT: -9.466442381      0.000      0.000
REMARK  6 active torsions:
REMARK  status: ('A' for Active; 'I' for Inactive)
REMARK    1  A    between atoms: C2_2  and  O1_3 
REMARK    2  A    between atoms: O1_3  and  C3_4 
REMARK    3  A    between atoms: C8_9  and  O2_10 
REMARK    4  A    between atoms: C15_20  and  O5_21 
REMARK    5  A    between atoms: O5_21  and  C16_22 
REMARK    6  A    between atoms: C16_22  and  C17_23 
ROOT
HETATM    1  C3  UNL     1      97.225  57.502  14.706  1.00  0.00     0.158 C 
HETATM    2  C4  UNL     1      97.107  59.018  14.506  1.00  0.00     0.042 C 
HETATM    3  C5  UNL     1      96.204  59.436  15.677  1.00  0.00     0.045 C 
HETATM    4  C6  UNL     1      96.684  58.546  16.760  1.00  0.00    -0.010 A 
HETATM    5  C7  UNL     1      97.269  57.447  16.201  1.00  0.00     0.014 A 
HETATM    6  C8  UNL     1      97.816  56.437  17.004  1.00  0.00     0.088 A 
HETATM    7  C9  UNL     1      97.778  56.527  18.366  1.00  0.00     0.041 A 
HETATM    8  C10 UNL     1      98.336  55.497  19.132  1.00  0.00    -0.040 A 
HETATM    9  C11 UNL     1      98.975  54.299  18.558  1.00  0.00     0.049 C 
HETATM   10  C12 UNL     1      98.239  55.695  20.506  1.00  0.00     0.090 A 
HETATM   11  C13 UNL     1      97.639  56.818  21.019  1.00  0.00     0.288 A 
HETATM   12  O3  UNL     1      97.543  57.011  22.277  1.00  0.00    -0.260 OA
HETATM   13  O4  UNL     1      97.133  57.751  20.252  1.00  0.00    -0.272 OA
HETATM   14  C14 UNL     1      97.184  57.640  18.924  1.00  0.00     0.127 A 
HETATM   15  C15 UNL     1      96.639  58.647  18.150  1.00  0.00     0.110 A 
ENDROOT
BRANCH  15  16
HETATM   16  O5  UNL     1      96.049  59.754  18.705  1.00  0.00    -0.347 OA
BRANCH  16  17
HETATM   17  C16 UNL     1      96.739  60.973  18.937  1.00  0.00     0.180 C 
BRANCH  17  18
HETATM   18  C17 UNL     1      96.039  61.659  20.103  1.00  0.00     0.010 C 
HETATM   19  C18 UNL     1      96.434  60.933  21.350  1.00  0.00     0.007 C 
HETATM   20  C19 UNL     1      96.180  61.720  22.608  1.00  0.00     0.000 C 
HETATM   21  C20 UNL     1      97.009  62.984  22.498  1.00  0.00     0.000 C 
HETATM   22  C21 UNL     1      96.411  63.792  21.382  1.00  0.00     0.000 C 
HETATM   23  C22 UNL     1      96.405  63.100  20.070  1.00  0.00     0.007 C 
ENDBRANCH  17  18
ENDBRANCH  16  17
ENDBRANCH  15  16
BRANCH   1  24
HETATM   24  O1  UNL     1      96.096  56.855  14.277  1.00  0.00    -0.381 OA
BRANCH  24  25
HETATM   25  C2  UNL     1      95.879  56.833  12.923  1.00  0.00     0.164 C 
HETATM   26  C1  UNL     1      94.374  57.045  12.724  1.00  0.00     0.033 C 
ENDBRANCH  24  25
ENDBRANCH   1  24
BRANCH   6  27
HETATM   27  O2  UNL     1      98.401  55.343  16.421  1.00  0.00    -0.359 OA
ATOM     28  H2  UNL     1      97.859  54.662  16.039  1.00  0.00     0.217 HD
ENDBRANCH   6  27
TORSDOF 6
ENDMDL
MODEL 2
REMARK VINA RESULT: -9.454649482      4.615      8.873
REMARK  6 active torsions:
REMARK  status: ('A' for Active; 'I' for Inactive)
REMARK    1  A    between atoms: C2_2  and  O1_3 
REMARK    2  A    between atoms: O1_3  and  C3_4 
REMARK    3  A    between atoms: C8_9  and  O2_10 
REMARK    4  A    between atoms: C15_20  and  O5_21 
REMARK    5  A    between atoms: O5_21  and  C16_22 
REMARK    6  A    between atoms: C16_22  and  C17_23 
ROOT
HETATM    1  C3  UNL     1      97.874  66.159  22.801  1.00  0.00     0.158 C 
HETATM    2  C4  UNL     1      97.454  67.395  21.997  1.00  0.00     0.042 C 
HETATM    3  C5  UNL     1      97.761  66.969  20.553  1.00  0.00     0.045 C 
HETATM    4  C6  UNL     1      97.376  65.538  20.572  1.00  0.00    -0.010 A 
HETATM    5  C7  UNL     1      97.437  65.082  21.856  1.00  0.00     0.014 A 
HETATM    6  C8  UNL     1      97.116  63.753  22.163  1.00  0.00     0.088 A 
HETATM    7  C9  UNL     1      96.735  62.880  21.185  1.00  0.00     0.041 A 
HETATM    8  C10 UNL     1      96.423  61.561  21.533  1.00  0.00    -0.040 A 
HETATM    9  C11 UNL     1      96.479  61.039  22.911  1.00  0.00     0.049 C 
HETATM   10  C12 UNL     1      96.048  60.763  20.456  1.00  0.00     0.090 A 
HETATM   11  C13 UNL     1      96.003  61.270  19.181  1.00  0.00     0.288 A 
HETATM   12  O3  UNL     1      95.661  60.549  18.185  1.00  0.00    -0.260 OA
HETATM   13  O4  UNL     1      96.306  62.516  18.914  1.00  0.00    -0.272 OA
HETATM   14  C14 UNL     1      96.675  63.348  19.888  1.00  0.00     0.127 A 
HETATM   15  C15 UNL     1      96.988  64.655  19.565  1.00  0.00     0.110 A 
ENDROOT
BRANCH  15  16
HETATM   16  O5  UNL     1      96.928  65.121  18.276  1.00  0.00    -0.347 OA
BRANCH  16  17
HETATM   17  C16 UNL     1      95.712  65.314  17.570  1.00  0.00     0.180 C 
BRANCH  17  18
HETATM   18  C17 UNL     1      95.594  66.807  17.296  1.00  0.00     0.010 C 
HETATM   19  C18 UNL     1      96.965  67.311  16.972  1.00  0.00     0.007 C 
HETATM   20  C19 UNL     1      96.965  68.646  16.276  1.00  0.00     0.000 C 
HETATM   21  C20 UNL     1      96.198  68.454  14.983  1.00  0.00     0.000 C 
HETATM   22  C21 UNL     1      94.769  68.193  15.367  1.00  0.00     0.000 C 
HETATM   23  C22 UNL     1      94.584  66.995  16.223  1.00  0.00     0.007 C 
ENDBRANCH  17  18
ENDBRANCH  16  17
ENDBRANCH  15  16
BRANCH   1  24
HETATM   24  O1  UNL     1      99.235  66.093  22.939  1.00  0.00    -0.381 OA
BRANCH  24  25
HETATM   25  C2  UNL     1      99.709  65.739  24.176  1.00  0.00     0.164 C 
HETATM   26  C1  UNL     1      99.011  66.658  25.185  1.00  0.00     0.033 C 
ENDBRANCH  24  25
ENDBRANCH   1  24
BRANCH   6  27
HETATM   27  O2  UNL     1      97.183  63.316  23.461  1.00  0.00    -0.359 OA
ATOM     28  H2  UNL     1      98.017  63.048  23.829  1.00  0.00     0.217 HD
ENDBRANCH   6  27
TORSDOF 6
ENDMDL
MODEL 3
REMARK VINA RESULT: -9.415295762      4.919      8.951
REMARK  6 active torsions:
REMARK  status: ('A' for Active; 'I' for Inactive)
REMARK    1  A    between atoms: C2_2  and  O1_3 
REMARK    2  A    between atoms: O1_3  and  C3_4 
REMARK    3  A    between atoms: C8_9  and  O2_10 
REMARK    4  A    between atoms: C15_20  and  O5_21 
REMARK    5  A    between atoms: O5_21  and  C16_22 
REMARK    6  A    between atoms: C16_22  and  C17_23 
ROOT
HETATM    1  C3  UNL     1      98.103  65.943  23.138  1.00  0.00     0.158 C 
HETATM    2  C4  UNL     1      97.747  67.330  22.591  1.00  0.00     0.042 C 
HETATM    3  C5  UNL     1      97.961  67.154  21.080  1.00  0.00     0.045 C 
HETATM    4  C6  UNL     1      97.468  65.773  20.865  1.00  0.00    -0.010 A 
HETATM    5  C7  UNL     1      97.547  65.088  22.042  1.00  0.00     0.014 A 
HETATM    6  C8  UNL     1      97.139  63.750  22.124  1.00  0.00     0.088 A 
HETATM    7  C9  UNL     1      96.651  63.098  21.028  1.00  0.00     0.041 A 
HETATM    8  C10 UNL     1      96.254  61.761  21.152  1.00  0.00    -0.040 A 
HETATM    9  C11 UNL     1      96.327  60.995  22.410  1.00  0.00     0.049 C 
HETATM   10  C12 UNL     1      95.775  61.200  19.973  1.00  0.00     0.090 A 
HETATM   11  C13 UNL     1      95.716  61.932  18.812  1.00  0.00     0.288 A 
HETATM   12  O3  UNL     1      95.279  61.428  17.724  1.00  0.00    -0.260 OA
HETATM   13  O4  UNL     1      96.103  63.182  18.756  1.00  0.00    -0.272 OA
HETATM   14  C14 UNL     1      96.574  63.796  19.841  1.00  0.00     0.127 A 
HETATM   15  C15 UNL     1      96.973  65.116  19.739  1.00  0.00     0.110 A 
ENDROOT
BRANCH  15  16
HETATM   16  O5  UNL     1      96.895  65.811  18.559  1.00  0.00    -0.347 OA
BRANCH  16  17
HETATM   17  C16 UNL     1      95.943  66.835  18.315  1.00  0.00     0.180 C 
BRANCH  17  18
HETATM   18  C17 UNL     1      94.935  66.272  17.323  1.00  0.00     0.010 C 
HETATM   19  C18 UNL     1      93.630  66.134  18.041  1.00  0.00     0.007 C 
HETATM   20  C19 UNL     1      92.448  65.998  17.118  1.00  0.00     0.000 C 
HETATM   21  C20 UNL     1      92.412  67.260  16.280  1.00  0.00     0.000 C 
HETATM   22  C21 UNL     1      93.627  67.222  15.397  1.00  0.00     0.000 C 
HETATM   23  C22 UNL     1      94.911  67.170  16.138  1.00  0.00     0.007 C 
ENDBRANCH  17  18
ENDBRANCH  16  17
ENDBRANCH  15  16
BRANCH   1  24
HETATM   24  O1  UNL     1      99.461  65.762  23.188  1.00  0.00    -0.381 OA
BRANCH  24  25
HETATM   25  C2  UNL     1     100.053  65.911  24.416  1.00  0.00     0.164 C 
HETATM   26  C1  UNL     1      98.914  65.978  25.439  1.00  0.00     0.033 C 
ENDBRANCH  24  25
ENDBRANCH   1  24
BRANCH   6  27
HETATM   27  O2  UNL     1      97.225  63.081  23.318  1.00  0.00    -0.359 OA
ATOM     28  H2  UNL     1      97.952  63.253  23.905  1.00  0.00     0.217 HD
ENDBRANCH   6  27
TORSDOF 6
ENDMDL
MODEL 4
REMARK VINA RESULT: -9.369442322      5.062      7.509
REMARK  6 active torsions:
REMARK  status: ('A' for Active; 'I' for Inactive)
REMARK    1  A    between atoms: C2_2  and  O1_3 
REMARK    2  A    between atoms: O1_3  and  C3_4 
REMARK    3  A    between atoms: C8_9  and  O2_10 
REMARK    4  A    between atoms: C15_20  and  O5_21 
REMARK    5  A    between atoms: O5_21  and  C16_22 
REMARK    6  A    between atoms: C16_22  and  C17_23 
ROOT
HETATM    1  C3  UNL     1      95.796  66.227  16.692  1.00  0.00     0.158 C 
HETATM    2  C4  UNL     1      96.858  67.325  16.824  1.00  0.00     0.042 C 
HETATM    3  C5  UNL     1      96.868  67.594  18.336  1.00  0.00     0.045 C 
HETATM    4  C6  UNL     1      96.682  66.231  18.886  1.00  0.00    -0.010 A 
HETATM    5  C7  UNL     1      96.075  65.454  17.943  1.00  0.00     0.014 A 
HETATM    6  C8  UNL     1      95.782  64.108  18.201  1.00  0.00     0.088 A 
HETATM    7  C9  UNL     1      96.096  63.539  19.402  1.00  0.00     0.041 A 
HETATM    8  C10 UNL     1      95.787  62.192  19.619  1.00  0.00    -0.040 A 
HETATM    9  C11 UNL     1      95.132  61.327  18.621  1.00  0.00     0.049 C 
HETATM   10  C12 UNL     1      96.152  61.721  20.877  1.00  0.00     0.090 A 
HETATM   11  C13 UNL     1      96.761  62.544  21.792  1.00  0.00     0.288 A 
HETATM   12  O3  UNL     1      97.101  62.124  22.948  1.00  0.00    -0.260 OA
HETATM   13  O4  UNL     1      97.027  63.800  21.532  1.00  0.00    -0.272 OA
HETATM   14  C14 UNL     1      96.710  64.331  20.351  1.00  0.00     0.127 A 
HETATM   15  C15 UNL     1      97.007  65.660  20.116  1.00  0.00     0.110 A 
ENDROOT
BRANCH  15  16
HETATM   16  O5  UNL     1      97.618  66.447  21.060  1.00  0.00    -0.347 OA
BRANCH  16  17
HETATM   17  C16 UNL     1      99.019  66.672  21.102  1.00  0.00     0.180 C 
BRANCH  17  18
HETATM   18  C17 UNL     1      99.357  67.073  22.531  1.00  0.00     0.010 C 
HETATM   19  C18 UNL     1      98.067  67.200  23.278  1.00  0.00     0.007 C 
HETATM   20  C19 UNL     1      98.233  67.173  24.774  1.00  0.00     0.000 C 
HETATM   21  C20 UNL     1      98.861  65.836  25.110  1.00  0.00     0.000 C 
HETATM   22  C21 UNL     1     100.253  65.861  24.544  1.00  0.00     0.000 C 
HETATM   23  C22 UNL     1     100.304  66.064  23.076  1.00  0.00     0.007 C 
ENDBRANCH  17  18
ENDBRANCH  16  17
ENDBRANCH  15  16
BRANCH   1  24
HETATM   24  O1  UNL     1      94.531  66.746  16.771  1.00  0.00    -0.381 OA
BRANCH  24  25
HETATM   25  C2  UNL     1      93.941  67.103  15.586  1.00  0.00     0.164 C 
HETATM   26  C1  UNL     1      94.097  65.902  14.647  1.00  0.00     0.033 C 
ENDBRANCH  24  25
ENDBRANCH   1  24
BRANCH   6  27
HETATM   27  O2  UNL     1      95.173  63.345  17.238  1.00  0.00    -0.359 OA
ATOM     28  H2  UNL     1      94.607  62.624  17.491  1.00  0.00     0.217 HD
ENDBRANCH   6  27
TORSDOF 6
ENDMDL
MODEL 5
REMARK VINA RESULT: -9.325484275      4.930      8.858
REMARK  6 active torsions:
REMARK  status: ('A' for Active; 'I' for Inactive)
REMARK    1  A    between atoms: C2_2  and  O1_3 
REMARK    2  A    between atoms: O1_3  and  C3_4 
REMARK    3  A    between atoms: C8_9  and  O2_10 
REMARK    4  A    between atoms: C15_20  and  O5_21 
REMARK    5  A    between atoms: O5_21  and  C16_22 
REMARK    6  A    between atoms: C16_22  and  C17_23 
ROOT
HETATM    1  C3  UNL     1      98.077  65.919  23.117  1.00  0.00     0.158 C 
HETATM    2  C4  UNL     1      97.682  67.313  22.616  1.00  0.00     0.042 C 
HETATM    3  C5  UNL     1      97.854  67.178  21.095  1.00  0.00     0.045 C 
HETATM    4  C6  UNL     1      97.377  65.794  20.860  1.00  0.00    -0.010 A 
HETATM    5  C7  UNL     1      97.503  65.082  22.017  1.00  0.00     0.014 A 
HETATM    6  C8  UNL     1      97.118  63.736  22.078  1.00  0.00     0.088 A 
HETATM    7  C9  UNL     1      96.609  63.102  20.981  1.00  0.00     0.041 A 
HETATM    8  C10 UNL     1      96.237  61.757  21.083  1.00  0.00    -0.040 A 
HETATM    9  C11 UNL     1      96.360  60.961  22.318  1.00  0.00     0.049 C 
HETATM   10  C12 UNL     1      95.732  61.216  19.904  1.00  0.00     0.090 A 
HETATM   11  C13 UNL     1      95.627  61.975  18.765  1.00  0.00     0.288 A 
HETATM   12  O3  UNL     1      95.166  61.491  17.678  1.00  0.00    -0.260 OA
HETATM   13  O4  UNL     1      95.992  63.233  18.728  1.00  0.00    -0.272 OA
HETATM   14  C14 UNL     1      96.485  63.828  19.814  1.00  0.00     0.127 A 
HETATM   15  C15 UNL     1      96.859  65.157  19.734  1.00  0.00     0.110 A 
ENDROOT
BRANCH  15  16
HETATM   16  O5  UNL     1      96.735  65.879  18.573  1.00  0.00    -0.347 OA
BRANCH  16  17
HETATM   17  C16 UNL     1      95.997  67.087  18.480  1.00  0.00     0.180 C 
BRANCH  17  18
HETATM   18  C17 UNL     1      94.902  66.855  17.448  1.00  0.00     0.010 C 
HETATM   19  C18 UNL     1      95.541  66.217  16.254  1.00  0.00     0.007 C 
HETATM   20  C19 UNL     1      94.557  65.547  15.333  1.00  0.00     0.000 C 
HETATM   21  C20 UNL     1      93.869  64.472  16.151  1.00  0.00     0.000 C 
HETATM   22  C21 UNL     1      93.043  65.182  17.185  1.00  0.00     0.000 C 
HETATM   23  C22 UNL     1      93.829  66.053  18.092  1.00  0.00     0.007 C 
ENDBRANCH  17  18
ENDBRANCH  16  17
ENDBRANCH  15  16
BRANCH   1  24
HETATM   24  O1  UNL     1      99.438  65.760  23.122  1.00  0.00    -0.381 OA
BRANCH  24  25
HETATM   25  C2  UNL     1     100.067  65.903  24.333  1.00  0.00     0.164 C 
HETATM   26  C1  UNL     1      98.958  65.959  25.390  1.00  0.00     0.033 C 
ENDBRANCH  24  25
ENDBRANCH   1  24
BRANCH   6  27
HETATM   27  O2  UNL     1      97.251  63.040  23.252  1.00  0.00    -0.359 OA
ATOM     28  H2  UNL     1      96.658  63.211  23.974  1.00  0.00     0.217 HD
ENDBRANCH   6  27
TORSDOF 6
ENDMDL
