MODEL 1
REMARK VINA RESULT: -7.938590050      0.000      0.000
REMARK  7 active torsions:
REMARK  status: ('A' for Active; 'I' for Inactive)
REMARK    1  A    between atoms: C4_4  and  C5_5 
REMARK    2  A    between atoms: C6_6  and  C7_7 
REMARK    3  A    between atoms: C7_7  and  C8_8 
REMARK    4  A    between atoms: C9_9  and  C10_10 
REMARK    5  A    between atoms: C15_20  and  O1_21 
REMARK    6  A    between atoms: C18_25  and  O2_27 
REMARK    7  A    between atoms: C20_29  and  O3_30 
ROOT
HETATM    1  C1  UNL     1      12.653  18.339  13.495  1.00  0.00     0.022 C 
HETATM    2  C2  UNL     1      13.343  18.754  14.791  1.00  0.00     0.005 C 
HETATM    3  C3  UNL     1      11.975  19.645  15.353  1.00  0.00     0.022 C 
HETATM    4  C4  UNL     1      13.501  18.003  15.758  1.00  0.00    -0.065 C 
HETATM    5  C12 UNL     1      15.096  17.332  15.163  1.00  0.00     0.029 C 
HETATM    6  C13 UNL     1      14.569  16.172  14.476  1.00  0.00     0.012 C 
HETATM    7  C14 UNL     1      15.450  16.017  13.245  1.00  0.00     0.033 C 
HETATM    8  C15 UNL     1      16.097  17.368  13.063  1.00  0.00     0.130 C 
HETATM    9  C16 UNL     1      15.803  18.196  14.299  1.00  0.00     0.022 C 
HETATM   10  C17 UNL     1      17.261  18.274  14.960  1.00  0.00     0.022 C 
HETATM   11  C18 UNL     1      15.516  19.611  14.026  1.00  0.00     0.091 C 
HETATM   12  C19 UNL     1      15.474  20.004  12.531  1.00  0.00     0.049 C 
HETATM   13  C20 UNL     1      14.186  20.003  14.563  1.00  0.00     0.165 C 
ENDROOT
BRANCH   4  14
HETATM   14  C5  UNL     1      13.690  17.142  16.856  1.00  0.00     0.000 C 
HETATM   15  C6  UNL     1      13.110  16.648  17.879  1.00  0.00    -0.023 C 
BRANCH  15  16
HETATM   16  C7  UNL     1      13.754  15.562  18.899  1.00  0.00     0.054 C 
BRANCH  16  17
HETATM   17  C8  UNL     1      14.867  16.066  19.091  1.00  0.00    -0.021 C 
HETATM   18  C9  UNL     1      15.312  16.433  20.389  1.00  0.00     0.028 C 
BRANCH  18  19
HETATM   19  C10 UNL     1      16.609  16.996  20.582  1.00  0.00     0.062 A 
HETATM   20  C11 UNL     1      17.277  17.770  19.631  1.00  0.00     0.135 A 
HETATM   21  N1  UNL     1      18.403  18.211  20.146  1.00  0.00    -0.293 N 
HETATM   22  N2  UNL     1      18.521  17.767  21.394  1.00  0.00    -0.023 NA
ATOM     23  H1  UNL     1      19.080  18.802  19.664  1.00  0.00     0.183 HD
HETATM   24  N3  UNL     1      17.416  17.018  21.660  1.00  0.00    -0.283 N 
ATOM     25  H3  UNL     1      17.227  16.544  22.543  1.00  0.00     0.184 HD
ENDBRANCH  18  19
ENDBRANCH  16  17
ENDBRANCH  15  16
ENDBRANCH   4  14
BRANCH  13  26
HETATM   26  O3  UNL     1      13.556  20.903  13.785  1.00  0.00    -0.391 OA
ATOM     27  H3  UNL     1      13.138  21.586  14.295  1.00  0.00     0.210 HD
ENDBRANCH  13  26
BRANCH  11  28
HETATM   28  O2  UNL     1      16.452  20.480  14.571  1.00  0.00    -0.387 OA
ATOM     29  H2  UNL     1      16.463  21.334  14.154  1.00  0.00     0.210 HD
ENDBRANCH  11  28
BRANCH   8  30
HETATM   30  O1  UNL     1      17.455  17.122  12.827  1.00  0.00    -0.395 OA
ATOM     31  H1  UNL     1      17.583  17.214  11.890  1.00  0.00     0.210 HD
ENDBRANCH   8  30
TORSDOF 7
ENDMDL
MODEL 2
REMARK VINA RESULT: -7.920624272      2.137      3.531
REMARK  7 active torsions:
REMARK  status: ('A' for Active; 'I' for Inactive)
REMARK    1  A    between atoms: C4_4  and  C5_5 
REMARK    2  A    between atoms: C6_6  and  C7_7 
REMARK    3  A    between atoms: C7_7  and  C8_8 
REMARK    4  A    between atoms: C9_9  and  C10_10 
REMARK    5  A    between atoms: C15_20  and  O1_21 
REMARK    6  A    between atoms: C18_25  and  O2_27 
REMARK    7  A    between atoms: C20_29  and  O3_30 
ROOT
HETATM    1  C1  UNL     1      12.727  15.379  14.814  1.00  0.00     0.022 C 
HETATM    2  C2  UNL     1      12.700  16.390  15.957  1.00  0.00     0.005 C 
HETATM    3  C3  UNL     1      11.942  15.287  17.048  1.00  0.00     0.022 C 
HETATM    4  C4  UNL     1      13.688  16.690  16.634  1.00  0.00    -0.065 C 
HETATM    5  C12 UNL     1      14.234  18.027  15.510  1.00  0.00     0.029 C 
HETATM    6  C13 UNL     1      15.148  17.239  14.709  1.00  0.00     0.012 C 
HETATM    7  C14 UNL     1      15.001  17.790  13.298  1.00  0.00     0.033 C 
HETATM    8  C15 UNL     1      13.675  18.511  13.303  1.00  0.00     0.130 C 
HETATM    9  C16 UNL     1      13.197  18.597  14.740  1.00  0.00     0.022 C 
HETATM   10  C17 UNL     1      13.354  20.169  15.013  1.00  0.00     0.022 C 
HETATM   11  C18 UNL     1      11.751  18.401  14.910  1.00  0.00     0.091 C 
HETATM   12  C19 UNL     1      10.971  18.054  13.621  1.00  0.00     0.049 C 
HETATM   13  C20 UNL     1      11.468  17.279  15.845  1.00  0.00     0.165 C 
ENDROOT
BRANCH   4  14
HETATM   14  C5  UNL     1      14.817  17.040  17.398  1.00  0.00     0.000 C 
HETATM   15  C6  UNL     1      15.511  16.698  18.412  1.00  0.00    -0.023 C 
BRANCH  15  16
HETATM   16  C7  UNL     1      16.874  17.422  18.913  1.00  0.00     0.054 C 
BRANCH  16  17
HETATM   17  C8  UNL     1      16.679  17.450  20.133  1.00  0.00    -0.021 C 
HETATM   18  C9  UNL     1      15.764  16.569  20.770  1.00  0.00     0.028 C 
BRANCH  18  19
HETATM   19  C10 UNL     1      15.573  16.613  22.183  1.00  0.00     0.062 A 
HETATM   20  C11 UNL     1      16.513  17.114  23.086  1.00  0.00     0.135 A 
HETATM   21  N1  UNL     1      16.001  17.099  24.296  1.00  0.00    -0.293 N 
HETATM   22  N2  UNL     1      14.766  16.609  24.247  1.00  0.00    -0.023 NA
ATOM     23  H1  UNL     1      16.477  17.414  25.142  1.00  0.00     0.183 HD
HETATM   24  N3  UNL     1      14.505  16.309  22.945  1.00  0.00    -0.283 N 
ATOM     25  H3  UNL     1      13.631  15.914  22.598  1.00  0.00     0.184 HD
ENDBRANCH  18  19
ENDBRANCH  16  17
ENDBRANCH  15  16
ENDBRANCH   4  14
BRANCH  13  26
HETATM   26  O3  UNL     1      10.370  16.581  15.500  1.00  0.00    -0.391 OA
ATOM     27  H3  UNL     1       9.702  16.610  16.174  1.00  0.00     0.210 HD
ENDBRANCH  13  26
BRANCH  11  28
HETATM   28  O2  UNL     1      11.095  19.522  15.402  1.00  0.00    -0.387 OA
ATOM     29  H2  UNL     1      10.321  19.314  15.911  1.00  0.00     0.210 HD
ENDBRANCH  11  28
BRANCH   8  30
HETATM   30  O1  UNL     1      13.900  19.745  12.681  1.00  0.00    -0.395 OA
ATOM     31  H1  UNL     1      13.045  20.074  12.427  1.00  0.00     0.210 HD
ENDBRANCH   8  30
TORSDOF 7
ENDMDL
MODEL 3
REMARK VINA RESULT: -7.828349743      1.888      3.445
REMARK  7 active torsions:
REMARK  status: ('A' for Active; 'I' for Inactive)
REMARK    1  A    between atoms: C4_4  and  C5_5 
REMARK    2  A    between atoms: C6_6  and  C7_7 
REMARK    3  A    between atoms: C7_7  and  C8_8 
REMARK    4  A    between atoms: C9_9  and  C10_10 
REMARK    5  A    between atoms: C15_20  and  O1_21 
REMARK    6  A    between atoms: C18_25  and  O2_27 
REMARK    7  A    between atoms: C20_29  and  O3_30 
ROOT
HETATM    1  C1  UNL     1      13.080  15.526  14.905  1.00  0.00     0.022 C 
HETATM    2  C2  UNL     1      13.118  16.594  15.993  1.00  0.00     0.005 C 
HETATM    3  C3  UNL     1      12.569  15.509  17.218  1.00  0.00     0.022 C 
HETATM    4  C4  UNL     1      14.156  16.992  16.532  1.00  0.00    -0.065 C 
HETATM    5  C12 UNL     1      14.475  18.296  15.289  1.00  0.00     0.029 C 
HETATM    6  C13 UNL     1      15.341  17.523  14.422  1.00  0.00     0.012 C 
HETATM    7  C14 UNL     1      14.993  17.985  13.015  1.00  0.00     0.033 C 
HETATM    8  C15 UNL     1      13.631  18.623  13.145  1.00  0.00     0.130 C 
HETATM    9  C16 UNL     1      13.320  18.758  14.623  1.00  0.00     0.022 C 
HETATM   10  C17 UNL     1      13.400  20.349  14.800  1.00  0.00     0.022 C 
HETATM   11  C18 UNL     1      11.920  18.483  14.974  1.00  0.00     0.091 C 
HETATM   12  C19 UNL     1      11.020  18.017  13.806  1.00  0.00     0.049 C 
HETATM   13  C20 UNL     1      11.824  17.398  15.988  1.00  0.00     0.165 C 
ENDROOT
BRANCH   4  14
HETATM   14  C5  UNL     1      15.340  17.452  17.137  1.00  0.00     0.000 C 
HETATM   15  C6  UNL     1      16.022  17.406  18.215  1.00  0.00    -0.023 C 
BRANCH  15  16
HETATM   16  C7  UNL     1      17.473  18.096  18.446  1.00  0.00     0.054 C 
BRANCH  16  17
HETATM   17  C8  UNL     1      17.537  18.078  19.680  1.00  0.00    -0.021 C 
HETATM   18  C9  UNL     1      16.652  17.295  20.468  1.00  0.00     0.028 C 
BRANCH  18  19
HETATM   19  C10 UNL     1      16.761  17.280  21.891  1.00  0.00     0.062 A 
HETATM   20  C11 UNL     1      15.758  16.825  22.748  1.00  0.00     0.135 A 
HETATM   21  N1  UNL     1      16.200  16.856  23.986  1.00  0.00    -0.293 N 
HETATM   22  N2  UNL     1      17.448  17.314  23.997  1.00  0.00    -0.023 NA
ATOM     23  H1  UNL     1      15.668  16.574  24.809  1.00  0.00     0.183 HD
HETATM   24  N3  UNL     1      17.791  17.576  22.706  1.00  0.00    -0.283 N 
ATOM     25  H3  UNL     1      18.694  17.940  22.401  1.00  0.00     0.184 HD
ENDBRANCH  18  19
ENDBRANCH  16  17
ENDBRANCH  15  16
ENDBRANCH   4  14
BRANCH  13  26
HETATM   26  O3  UNL     1      10.743  16.616  15.811  1.00  0.00    -0.391 OA
ATOM     27  H3  UNL     1      10.857  15.756  16.197  1.00  0.00     0.210 HD
ENDBRANCH  13  26
BRANCH  11  28
HETATM   28  O2  UNL     1      11.251  19.586  15.488  1.00  0.00    -0.387 OA
ATOM     29  H2  UNL     1      11.832  20.290  15.753  1.00  0.00     0.210 HD
ENDBRANCH  11  28
BRANCH   8  30
HETATM   30  O1  UNL     1      13.697  19.832  12.442  1.00  0.00    -0.395 OA
ATOM     31  H1  UNL     1      13.137  20.441  12.909  1.00  0.00     0.210 HD
ENDBRANCH   8  30
TORSDOF 7
ENDMDL
MODEL 4
REMARK VINA RESULT: -7.696720623      2.068      2.795
REMARK  7 active torsions:
REMARK  status: ('A' for Active; 'I' for Inactive)
REMARK    1  A    between atoms: C4_4  and  C5_5 
REMARK    2  A    between atoms: C6_6  and  C7_7 
REMARK    3  A    between atoms: C7_7  and  C8_8 
REMARK    4  A    between atoms: C9_9  and  C10_10 
REMARK    5  A    between atoms: C15_20  and  O1_21 
REMARK    6  A    between atoms: C18_25  and  O2_27 
REMARK    7  A    between atoms: C20_29  and  O3_30 
ROOT
HETATM    1  C1  UNL     1      14.318  16.976  14.155  1.00  0.00     0.022 C 
HETATM    2  C2  UNL     1      14.429  18.058  15.225  1.00  0.00     0.005 C 
HETATM    3  C3  UNL     1      13.025  17.509  16.067  1.00  0.00     0.022 C 
HETATM    4  C4  UNL     1      15.242  18.027  16.153  1.00  0.00    -0.065 C 
HETATM    5  C12 UNL     1      16.568  18.868  15.214  1.00  0.00     0.029 C 
HETATM    6  C13 UNL     1      17.235  17.680  14.724  1.00  0.00     0.012 C 
HETATM    7  C14 UNL     1      17.700  18.047  13.322  1.00  0.00     0.033 C 
HETATM    8  C15 UNL     1      16.850  19.232  12.933  1.00  0.00     0.130 C 
HETATM    9  C16 UNL     1      16.103  19.696  14.170  1.00  0.00     0.022 C 
HETATM   10  C17 UNL     1      16.833  21.095  14.451  1.00  0.00     0.022 C 
HETATM   11  C18 UNL     1      14.719  20.119  13.918  1.00  0.00     0.091 C 
HETATM   12  C19 UNL     1      14.224  19.942  12.464  1.00  0.00     0.049 C 
HETATM   13  C20 UNL     1      13.761  19.342  14.748  1.00  0.00     0.165 C 
ENDROOT
BRANCH   4  14
HETATM   14  C5  UNL     1      16.176  17.996  17.205  1.00  0.00     0.000 C 
HETATM   15  C6  UNL     1      16.326  17.674  18.431  1.00  0.00    -0.023 C 
BRANCH  15  16
HETATM   16  C7  UNL     1      17.712  17.764  19.270  1.00  0.00     0.054 C 
BRANCH  16  17
HETATM   17  C8  UNL     1      17.281  17.688  20.426  1.00  0.00    -0.021 C 
HETATM   18  C9  UNL     1      16.212  16.821  20.775  1.00  0.00     0.028 C 
BRANCH  18  19
HETATM   19  C10 UNL     1      15.747  16.741  22.121  1.00  0.00     0.062 A 
HETATM   20  C11 UNL     1      16.435  17.261  23.219  1.00  0.00     0.135 A 
HETATM   21  N1  UNL     1      15.704  17.107  24.300  1.00  0.00    -0.293 N 
HETATM   22  N2  UNL     1      14.563  16.505  23.978  1.00  0.00    -0.023 NA
ATOM     23  H1  UNL     1      15.971  17.402  25.240  1.00  0.00     0.183 HD
HETATM   24  N3  UNL     1      14.592  16.279  22.636  1.00  0.00    -0.283 N 
ATOM     25  H3  UNL     1      13.850  15.829  22.101  1.00  0.00     0.184 HD
ENDBRANCH  18  19
ENDBRANCH  16  17
ENDBRANCH  15  16
ENDBRANCH   4  14
BRANCH  13  26
HETATM   26  O3  UNL     1      12.599  19.102  14.112  1.00  0.00    -0.391 OA
ATOM     27  H3  UNL     1      12.311  19.848  13.600  1.00  0.00     0.210 HD
ENDBRANCH  13  26
BRANCH  11  28
HETATM   28  O2  UNL     1      14.496  21.464  14.182  1.00  0.00    -0.387 OA
ATOM     29  H2  UNL     1      15.086  22.044  13.716  1.00  0.00     0.210 HD
ENDBRANCH  11  28
BRANCH   8  30
HETATM   30  O1  UNL     1      17.725  20.177  12.383  1.00  0.00    -0.395 OA
ATOM     31  H1  UNL     1      17.208  20.960  12.231  1.00  0.00     0.210 HD
ENDBRANCH   8  30
TORSDOF 7
ENDMDL
MODEL 5
REMARK VINA RESULT: -7.241293944      0.975      1.062
REMARK  7 active torsions:
REMARK  status: ('A' for Active; 'I' for Inactive)
REMARK    1  A    between atoms: C4_4  and  C5_5 
REMARK    2  A    between atoms: C6_6  and  C7_7 
REMARK    3  A    between atoms: C7_7  and  C8_8 
REMARK    4  A    between atoms: C9_9  and  C10_10 
REMARK    5  A    between atoms: C15_20  and  O1_21 
REMARK    6  A    between atoms: C18_25  and  O2_27 
REMARK    7  A    between atoms: C20_29  and  O3_30 
ROOT
HETATM    1  C1  UNL     1      13.530  19.261  12.867  1.00  0.00     0.022 C 
HETATM    2  C2  UNL     1      13.997  19.416  14.311  1.00  0.00     0.005 C 
HETATM    3  C3  UNL     1      12.738  20.529  14.705  1.00  0.00     0.022 C 
HETATM    4  C4  UNL     1      13.800  18.574  15.193  1.00  0.00    -0.065 C 
HETATM    5  C12 UNL     1      15.326  17.629  14.836  1.00  0.00     0.029 C 
HETATM    6  C13 UNL     1      14.743  16.665  13.926  1.00  0.00     0.012 C 
HETATM    7  C14 UNL     1      15.818  16.425  12.876  1.00  0.00     0.033 C 
HETATM    8  C15 UNL     1      16.736  17.618  12.985  1.00  0.00     0.130 C 
HETATM    9  C16 UNL     1      16.351  18.390  14.233  1.00  0.00     0.022 C 
HETATM   10  C17 UNL     1      17.624  18.104  15.164  1.00  0.00     0.022 C 
HETATM   11  C18 UNL     1      16.405  19.850  14.082  1.00  0.00     0.091 C 
HETATM   12  C19 UNL     1      16.756  20.360  12.665  1.00  0.00     0.049 C 
HETATM   13  C20 UNL     1      15.092  20.472  14.400  1.00  0.00     0.165 C 
ENDROOT
BRANCH   4  14
HETATM   14  C5  UNL     1      13.585  17.609  16.194  1.00  0.00     0.000 C 
HETATM   15  C6  UNL     1      12.691  17.102  16.950  1.00  0.00    -0.023 C 
BRANCH  15  16
HETATM   16  C7  UNL     1      12.912  15.868  17.980  1.00  0.00     0.054 C 
BRANCH  16  17
HETATM   17  C8  UNL     1      14.114  16.000  18.235  1.00  0.00    -0.021 C 
HETATM   18  C9  UNL     1      14.570  16.457  19.500  1.00  0.00     0.028 C 
BRANCH  18  19
HETATM   19  C10 UNL     1      15.965  16.582  19.772  1.00  0.00     0.062 A 
HETATM   20  C11 UNL     1      16.936  16.807  18.794  1.00  0.00     0.135 A 
HETATM   21  N1  UNL     1      18.105  16.965  19.374  1.00  0.00    -0.293 N 
HETATM   22  N2  UNL     1      17.962  16.853  20.691  1.00  0.00    -0.023 NA
ATOM     23  H1  UNL     1      18.984  17.145  18.889  1.00  0.00     0.183 HD
HETATM   24  N3  UNL     1      16.644  16.616  20.934  1.00  0.00    -0.283 N 
ATOM     25  H3  UNL     1      16.232  16.484  21.858  1.00  0.00     0.184 HD
ENDBRANCH  18  19
ENDBRANCH  16  17
ENDBRANCH  15  16
ENDBRANCH   4  14
BRANCH  13  26
HETATM   26  O3  UNL     1      14.825  21.543  13.630  1.00  0.00    -0.391 OA
ATOM     27  H3  UNL     1      15.519  22.191  13.668  1.00  0.00     0.210 HD
ENDBRANCH  13  26
BRANCH  11  28
HETATM   28  O2  UNL     1      17.354  20.455  14.896  1.00  0.00    -0.387 OA
ATOM     29  H2  UNL     1      17.368  20.110  15.781  1.00  0.00     0.210 HD
ENDBRANCH  11  28
BRANCH   8  30
HETATM   30  O1  UNL     1      18.041  17.109  12.984  1.00  0.00    -0.395 OA
ATOM     31  H1  UNL     1      18.601  17.816  12.684  1.00  0.00     0.210 HD
ENDBRANCH   8  30
TORSDOF 7
ENDMDL
