MODEL 1
REMARK VINA RESULT: -6.933463849      0.000      0.000
REMARK  5 active torsions:
REMARK  status: ('A' for Active; 'I' for Inactive)
REMARK    1  A    between atoms: C2_2  and  C4_4 
REMARK    2  A    between atoms: C2_2  and  C9_12 
REMARK    3  A    between atoms: C4_4  and  N1_5 
REMARK    4  A    between atoms: N1_5  and  C5_8 
REMARK    5  A    between atoms: C9_12  and  N2_13 
ROOT
HETATM    1  N2  UNL     1      15.114  -3.262  23.805  1.00  0.00    -0.333 N 
HETATM    2  C10 UNL     1      16.015  -3.432  24.786  1.00  0.00     0.183 A 
HETATM    3  N3  UNL     1      17.109  -2.708  24.517  1.00  0.00    -0.359 N 
ATOM      4  H3  UNL     1      17.948  -2.652  25.094  1.00  0.00     0.166 HD
HETATM    5  C11 UNL     1      16.906  -2.073  23.362  1.00  0.00     0.130 A 
HETATM    6  C12 UNL     1      15.648  -2.424  22.913  1.00  0.00     0.132 A 
HETATM    7  C13 UNL     1      15.117  -1.929  21.681  1.00  0.00     0.119 C 
HETATM    8  N4  UNL     1      14.667  -1.540  20.689  1.00  0.00    -0.190 NA
ENDROOT
BRANCH   1   9
HETATM    9  C9  UNL     1      13.828  -3.864  23.760  1.00  0.00     0.141 C 
BRANCH   9  10
HETATM   10  C2  UNL     1      13.796  -5.353  23.552  1.00  0.00    -0.007 C 
HETATM   11  C1  UNL     1      14.782  -6.023  24.518  1.00  0.00     0.018 C 
HETATM   12  C3  UNL     1      12.454  -5.919  23.857  1.00  0.00     0.018 C 
BRANCH  10  13
HETATM   13  C4  UNL     1      14.209  -5.584  22.111  1.00  0.00     0.243 C 
BRANCH  13  14
HETATM   14  N1  UNL     1      15.267  -6.522  21.966  1.00  0.00    -0.067 N 
ATOM     15  H12 UNL     1      15.770  -6.679  22.839  1.00  0.00     0.278 HD
ATOM     16  H11 UNL     1      14.928  -7.473  21.825  1.00  0.00     0.278 HD
BRANCH  14  17
HETATM   17  C5  UNL     1      16.139  -6.084  20.898  1.00  0.00     0.115 C 
HETATM   18  C6  UNL     1      16.786  -7.246  20.172  1.00  0.00     0.045 C 
HETATM   19  C7  UNL     1      17.274  -5.220  21.426  1.00  0.00     0.045 C 
HETATM   20  C8  UNL     1      15.351  -5.269  19.920  1.00  0.00     0.045 C 
ENDBRANCH  14  17
ENDBRANCH  13  14
ENDBRANCH  10  13
ENDBRANCH   9  10
ENDBRANCH   1   9
TORSDOF 5
ENDMDL
MODEL 2
REMARK VINA RESULT: -6.924962418      1.821      3.850
REMARK  5 active torsions:
REMARK  status: ('A' for Active; 'I' for Inactive)
REMARK    1  A    between atoms: C2_2  and  C4_4 
REMARK    2  A    between atoms: C2_2  and  C9_12 
REMARK    3  A    between atoms: C4_4  and  N1_5 
REMARK    4  A    between atoms: N1_5  and  C5_8 
REMARK    5  A    between atoms: C9_12  and  N2_13 
ROOT
HETATM    1  N2  UNL     1      14.287  -4.921  22.646  1.00  0.00    -0.333 N 
HETATM    2  C10 UNL     1      13.157  -4.593  21.998  1.00  0.00     0.183 A 
HETATM    3  N3  UNL     1      12.687  -3.436  22.479  1.00  0.00    -0.359 N 
ATOM      4  H3  UNL     1      11.842  -2.955  22.168  1.00  0.00     0.166 HD
HETATM    5  C11 UNL     1      13.519  -3.022  23.436  1.00  0.00     0.130 A 
HETATM    6  C12 UNL     1      14.527  -3.959  23.541  1.00  0.00     0.132 A 
HETATM    7  C13 UNL     1      15.587  -3.831  24.492  1.00  0.00     0.119 C 
HETATM    8  N4  UNL     1      16.453  -3.747  25.253  1.00  0.00    -0.190 NA
ENDROOT
BRANCH   1   9
HETATM    9  C9  UNL     1      15.072  -6.078  22.390  1.00  0.00     0.141 C 
BRANCH   9  10
HETATM   10  C2  UNL     1      15.966  -6.024  21.183  1.00  0.00    -0.007 C 
HETATM   11  C1  UNL     1      15.105  -5.946  19.915  1.00  0.00     0.018 C 
HETATM   12  C3  UNL     1      16.821  -4.806  21.189  1.00  0.00     0.018 C 
BRANCH  10  13
HETATM   13  C4  UNL     1      16.780  -7.304  21.206  1.00  0.00     0.243 C 
BRANCH  13  14
HETATM   14  N1  UNL     1      16.137  -8.399  20.567  1.00  0.00    -0.067 N 
ATOM     15  H12 UNL     1      15.478  -8.875  21.183  1.00  0.00     0.278 HD
ATOM     16  H11 UNL     1      15.472  -8.098  19.855  1.00  0.00     0.278 HD
BRANCH  14  17
HETATM   17  C5  UNL     1      17.144  -9.293  20.040  1.00  0.00     0.115 C 
HETATM   18  C6  UNL     1      16.539 -10.462  19.290  1.00  0.00     0.045 C 
HETATM   19  C7  UNL     1      17.997  -9.886  21.151  1.00  0.00     0.045 C 
HETATM   20  C8  UNL     1      18.047  -8.531  19.120  1.00  0.00     0.045 C 
ENDBRANCH  14  17
ENDBRANCH  13  14
ENDBRANCH  10  13
ENDBRANCH   9  10
ENDBRANCH   1   9
TORSDOF 5
ENDMDL
MODEL 3
REMARK VINA RESULT: -6.918884098      1.734      3.586
REMARK  5 active torsions:
REMARK  status: ('A' for Active; 'I' for Inactive)
REMARK    1  A    between atoms: C2_2  and  C4_4 
REMARK    2  A    between atoms: C2_2  and  C9_12 
REMARK    3  A    between atoms: C4_4  and  N1_5 
REMARK    4  A    between atoms: N1_5  and  C5_8 
REMARK    5  A    between atoms: C9_12  and  N2_13 
ROOT
HETATM    1  N2  UNL     1      16.029  -3.573  21.605  1.00  0.00    -0.333 N 
HETATM    2  C10 UNL     1      15.487  -2.802  20.648  1.00  0.00     0.183 A 
HETATM    3  N3  UNL     1      14.895  -1.741  21.210  1.00  0.00    -0.359 N 
ATOM      4  H3  UNL     1      14.406  -0.994  20.717  1.00  0.00     0.166 HD
HETATM    5  C11 UNL     1      15.058  -1.834  22.531  1.00  0.00     0.130 A 
HETATM    6  C12 UNL     1      15.773  -2.989  22.779  1.00  0.00     0.132 A 
HETATM    7  C13 UNL     1      16.111  -3.403  24.105  1.00  0.00     0.119 C 
HETATM    8  N4  UNL     1      16.395  -3.757  25.169  1.00  0.00    -0.190 NA
ENDROOT
BRANCH   1   9
HETATM    9  C9  UNL     1      16.751  -4.775  21.377  1.00  0.00     0.141 C 
BRANCH   9  10
HETATM   10  C2  UNL     1      15.932  -5.994  21.057  1.00  0.00    -0.007 C 
HETATM   11  C1  UNL     1      15.119  -6.399  22.294  1.00  0.00     0.018 C 
HETATM   12  C3  UNL     1      14.949  -5.725  19.974  1.00  0.00     0.018 C 
BRANCH  10  13
HETATM   13  C4  UNL     1      16.924  -7.080  20.684  1.00  0.00     0.243 C 
BRANCH  13  14
HETATM   14  N1  UNL     1      16.378  -8.391  20.731  1.00  0.00    -0.067 N 
ATOM     15  H12 UNL     1      16.127  -8.674  21.678  1.00  0.00     0.278 HD
ATOM     16  H11 UNL     1      15.448  -8.440  20.317  1.00  0.00     0.278 HD
BRANCH  14  17
HETATM   17  C5  UNL     1      17.307  -9.309  20.110  1.00  0.00     0.115 C 
HETATM   18  C6  UNL     1      16.602 -10.436  19.383  1.00  0.00     0.045 C 
HETATM   19  C7  UNL     1      18.216  -9.962  21.139  1.00  0.00     0.045 C 
HETATM   20  C8  UNL     1      18.167  -8.560  19.140  1.00  0.00     0.045 C 
ENDBRANCH  14  17
ENDBRANCH  13  14
ENDBRANCH  10  13
ENDBRANCH   9  10
ENDBRANCH   1   9
TORSDOF 5
ENDMDL
MODEL 4
REMARK VINA RESULT: -6.760761164      1.883      3.876
REMARK  5 active torsions:
REMARK  status: ('A' for Active; 'I' for Inactive)
REMARK    1  A    between atoms: C2_2  and  C4_4 
REMARK    2  A    between atoms: C2_2  and  C9_12 
REMARK    3  A    between atoms: C4_4  and  N1_5 
REMARK    4  A    between atoms: N1_5  and  C5_8 
REMARK    5  A    between atoms: C9_12  and  N2_13 
ROOT
HETATM    1  N2  UNL     1      15.245  -3.387  23.477  1.00  0.00    -0.333 N 
HETATM    2  C10 UNL     1      15.661  -2.960  24.680  1.00  0.00     0.183 A 
HETATM    3  N3  UNL     1      16.841  -2.341  24.551  1.00  0.00    -0.359 N 
ATOM      4  H3  UNL     1      17.385  -1.921  25.305  1.00  0.00     0.166 HD
HETATM    5  C11 UNL     1      17.180  -2.372  23.261  1.00  0.00     0.130 A 
HETATM    6  C12 UNL     1      16.174  -3.032  22.585  1.00  0.00     0.132 A 
HETATM    7  C13 UNL     1      16.228  -3.256  21.174  1.00  0.00     0.119 C 
HETATM    8  N4  UNL     1      16.251  -3.448  20.034  1.00  0.00    -0.190 NA
ENDROOT
BRANCH   1   9
HETATM    9  C9  UNL     1      14.026  -4.072  23.227  1.00  0.00     0.141 C 
BRANCH   9  10
HETATM   10  C2  UNL     1      14.032  -5.555  23.476  1.00  0.00    -0.007 C 
HETATM   11  C1  UNL     1      14.550  -6.278  22.226  1.00  0.00     0.018 C 
HETATM   12  C3  UNL     1      14.951  -5.920  24.588  1.00  0.00     0.018 C 
BRANCH  10  13
HETATM   13  C4  UNL     1      12.593  -5.938  23.764  1.00  0.00     0.243 C 
BRANCH  13  14
HETATM   14  N1  UNL     1      11.645  -4.990  23.291  1.00  0.00    -0.067 N 
ATOM     15  H12 UNL     1      11.678  -4.114  23.812  1.00  0.00     0.278 HD
ATOM     16  H11 UNL     1      11.892  -4.618  22.374  1.00  0.00     0.278 HD
BRANCH  14  17
HETATM   17  C5  UNL     1      10.330  -5.592  23.307  1.00  0.00     0.115 C 
HETATM   18  C6  UNL     1       9.650  -5.523  21.955  1.00  0.00     0.045 C 
HETATM   19  C7  UNL     1       9.408  -4.887  24.289  1.00  0.00     0.045 C 
HETATM   20  C8  UNL     1      10.448  -7.024  23.728  1.00  0.00     0.045 C 
ENDBRANCH  14  17
ENDBRANCH  13  14
ENDBRANCH  10  13
ENDBRANCH   9  10
ENDBRANCH   1   9
TORSDOF 5
ENDMDL
MODEL 5
REMARK VINA RESULT: -6.727725720      1.750      2.703
REMARK  5 active torsions:
REMARK  status: ('A' for Active; 'I' for Inactive)
REMARK    1  A    between atoms: C2_2  and  C4_4 
REMARK    2  A    between atoms: C2_2  and  C9_12 
REMARK    3  A    between atoms: C4_4  and  N1_5 
REMARK    4  A    between atoms: N1_5  and  C5_8 
REMARK    5  A    between atoms: C9_12  and  N2_13 
ROOT
HETATM    1  N2  UNL     1      12.781  -3.432  22.470  1.00  0.00    -0.333 N 
HETATM    2  C10 UNL     1      11.448  -3.592  22.419  1.00  0.00     0.183 A 
HETATM    3  N3  UNL     1      10.965  -2.970  21.336  1.00  0.00    -0.359 N 
ATOM      4  H3  UNL     1       9.986  -2.931  21.053  1.00  0.00     0.166 HD
HETATM    5  C11 UNL     1      11.991  -2.411  20.693  1.00  0.00     0.130 A 
HETATM    6  C12 UNL     1      13.136  -2.702  21.409  1.00  0.00     0.132 A 
HETATM    7  C13 UNL     1      14.425  -2.236  21.002  1.00  0.00     0.119 C 
HETATM    8  N4  UNL     1      15.477  -1.870  20.691  1.00  0.00    -0.190 NA
ENDROOT
BRANCH   1   9
HETATM    9  C9  UNL     1      13.633  -3.967  23.473  1.00  0.00     0.141 C 
BRANCH   9  10
HETATM   10  C2  UNL     1      13.750  -5.465  23.517  1.00  0.00    -0.007 C 
HETATM   11  C1  UNL     1      14.828  -5.861  24.535  1.00  0.00     0.018 C 
HETATM   12  C3  UNL     1      12.484  -6.101  23.973  1.00  0.00     0.018 C 
BRANCH  10  13
HETATM   13  C4  UNL     1      14.145  -5.897  22.117  1.00  0.00     0.243 C 
BRANCH  13  14
HETATM   14  N1  UNL     1      15.352  -6.645  22.071  1.00  0.00    -0.067 N 
ATOM     15  H12 UNL     1      15.862  -6.615  22.953  1.00  0.00     0.278 HD
ATOM     16  H11 UNL     1      15.186  -7.651  22.039  1.00  0.00     0.278 HD
BRANCH  14  17
HETATM   17  C5  UNL     1      16.149  -6.182  20.957  1.00  0.00     0.115 C 
HETATM   18  C6  UNL     1      17.021  -7.279  20.379  1.00  0.00     0.045 C 
HETATM   19  C7  UNL     1      17.087  -5.060  21.373  1.00  0.00     0.045 C 
HETATM   20  C8  UNL     1      15.244  -5.657  19.887  1.00  0.00     0.045 C 
ENDBRANCH  14  17
ENDBRANCH  13  14
ENDBRANCH  10  13
ENDBRANCH   9  10
ENDBRANCH   1   9
TORSDOF 5
ENDMDL
