MODEL 1
REMARK VINA RESULT: -9.360522198      0.000      0.000
REMARK  14 active torsions:
REMARK  status: ('A' for Active; 'I' for Inactive)
REMARK    1  A    between atoms: C2_2  and  C3_3 
REMARK       I    between atoms: C3_3  and  N1_5 
REMARK    2  A    between atoms: C4_6  and  C5_7 
REMARK       I    between atoms: C5_7  and  N2_9 
REMARK    3  A    between atoms: N2_9  and  C6_11 
REMARK    4  A    between atoms: C6_11  and  C8_13 
REMARK    5  A    between atoms: C8_13  and  N3_14 
REMARK       I    between atoms: N3_14  and  C9_16 
REMARK    6  A    between atoms: C9_16  and  C10_18 
REMARK    7  A    between atoms: C10_18  and  C11_19 
REMARK    8  A    between atoms: C11_19  and  C12_20 
REMARK    9  A    between atoms: C12_20  and  N4_21 
REMARK   10  A    between atoms: N5_23  and  C14_24 
REMARK   11  A    between atoms: C14_24  and  N6_26 
REMARK   12  A    between atoms: N6_26  and  C15_28 
REMARK   13  A    between atoms: C25_38  and  C27_40 
REMARK   14  A    between atoms: C27_40  and  N7_41 
REMARK       I    between atoms: N8_45  and  C31_46 
ROOT
HETATM    1  C6  UNL     1      10.426 -18.244 -19.465  1.00  0.00     0.098 C 
HETATM    2  C7  UNL     1       9.901 -18.838 -20.789  1.00  0.00     0.034 C 
ENDROOT
BRANCH   1   3
HETATM    3  N2  UNL     1      11.466 -19.147 -19.031  1.00  0.00    -0.353 N 
HETATM    4  C5  UNL     1      12.502 -18.625 -18.188  1.00  0.00     0.243 C 
HETATM    5  O2  UNL     1      12.446 -17.420 -17.882  1.00  0.00    -0.271 OA
ATOM      6  H2  UNL     1      11.463 -20.127 -19.315  1.00  0.00     0.163 HD
BRANCH   4   7
HETATM    7  C4  UNL     1      13.552 -19.583 -17.760  1.00  0.00     0.206 C 
HETATM    8  N1  UNL     1      13.009 -20.643 -16.891  1.00  0.00    -0.241 N 
HETATM    9  C3  UNL     1      12.729 -20.434 -15.521  1.00  0.00     0.238 C 
HETATM   10  N8  UNL     1      12.862 -21.821 -17.704  1.00  0.00    -0.244 N 
HETATM   11  O1  UNL     1      12.324 -21.311 -14.757  1.00  0.00    -0.272 OA
HETATM   12  C25 UNL     1      14.149 -21.844 -18.398  1.00  0.00     0.080 C 
HETATM   13  C31 UNL     1      11.693 -22.565 -17.728  1.00  0.00     0.235 C 
HETATM   14  C24 UNL     1      13.934 -20.385 -18.989  1.00  0.00     0.071 C 
HETATM   15  C26 UNL     1      15.260 -21.675 -17.436  1.00  0.00     0.043 C 
HETATM   16  C32 UNL     1      10.476 -22.186 -16.932  1.00  0.00     0.119 C 
HETATM   17  O4  UNL     1      11.486 -23.628 -18.400  1.00  0.00    -0.272 OA
BRANCH   9  18
HETATM   18  C2  UNL     1      12.930 -19.072 -14.938  1.00  0.00     0.100 C 
HETATM   19  C1  UNL     1      12.273 -18.990 -13.584  1.00  0.00     0.014 C 
ENDBRANCH   9  18
BRANCH  12  20
HETATM   20  C27 UNL     1      14.384 -22.650 -19.566  1.00  0.00     0.268 C 
BRANCH  20  21
HETATM   21  N7  UNL     1      15.176 -23.799 -19.645  1.00  0.00    -0.076 N 
HETATM   22  C28 UNL     1      16.484 -23.810 -19.090  1.00  0.00     0.271 C 
HETATM   23  C29 UNL     1      14.450 -24.907 -19.070  1.00  0.00     0.271 C 
HETATM   24  C30 UNL     1      15.289 -24.247 -21.089  1.00  0.00     0.271 C 
ENDBRANCH  20  21
ENDBRANCH  12  20
ENDBRANCH   4   7
ENDBRANCH   1   3
BRANCH   1  25
HETATM   25  C8  UNL     1       9.306 -18.183 -18.455  1.00  0.00     0.147 C 
BRANCH  25  26
HETATM   26  N3  UNL     1       8.133 -18.795 -19.042  1.00  0.00    -0.359 N 
HETATM   27  C9  UNL     1       6.912 -18.063 -19.127  1.00  0.00     0.217 C 
HETATM   28  O3  UNL     1       6.883 -16.898 -18.683  1.00  0.00    -0.274 OA
ATOM     29  H3  UNL     1       8.180 -19.750 -19.395  1.00  0.00     0.162 HD
BRANCH  27  30
HETATM   30  C10 UNL     1       5.735 -18.696 -19.726  1.00  0.00     0.104 C 
BRANCH  30  31
HETATM   31  C11 UNL     1       4.609 -17.714 -19.869  1.00  0.00     0.024 C 
BRANCH  31  32
HETATM   32  C12 UNL     1       3.539 -18.001 -18.867  1.00  0.00     0.097 C 
BRANCH  32  33
HETATM   33  N4  UNL     1       2.851 -16.802 -18.462  1.00  0.00    -0.275 NA
HETATM   34  C13 UNL     1       3.728 -15.786 -18.011  1.00  0.00     0.156 C 
HETATM   35  N5  UNL     1       4.162 -15.920 -16.644  1.00  0.00    -0.325 N 
HETATM   36  C20 UNL     1       3.659 -16.931 -15.766  1.00  0.00     0.133 C 
HETATM   37  C21 UNL     1       2.460 -17.647 -16.220  1.00  0.00     0.040 C 
HETATM   38  C22 UNL     1       1.832 -17.092 -17.467  1.00  0.00     0.061 C 
HETATM   39  C23 UNL     1       0.817 -18.006 -18.064  1.00  0.00     0.027 C 
BRANCH  35  40
HETATM   40  C14 UNL     1       5.157 -14.993 -16.137  1.00  0.00     0.174 C 
HETATM   41  S1  UNL     1       4.624 -13.590 -15.523  1.00  0.00    -0.041 SA
BRANCH  40  42
HETATM   42  N6  UNL     1       6.528 -15.305 -16.183  1.00  0.00    -0.362 N 
ATOM     43  H6  UNL     1       7.059 -15.088 -17.026  1.00  0.00     0.162 HD
BRANCH  42  44
HETATM   44  C15 UNL     1       7.209 -15.932 -15.054  1.00  0.00     0.083 C 
HETATM   45  C16 UNL     1       7.301 -17.433 -15.209  1.00  0.00     0.025 C 
HETATM   46  C17 UNL     1       8.626 -17.859 -14.614  1.00  0.00     0.002 C 
HETATM   47  C18 UNL     1       9.446 -16.613 -14.411  1.00  0.00     0.002 C 
HETATM   48  C19 UNL     1       8.647 -15.479 -14.969  1.00  0.00     0.025 C 
ENDBRANCH  42  44
ENDBRANCH  40  42
ENDBRANCH  35  40
ENDBRANCH  32  33
ENDBRANCH  31  32
ENDBRANCH  30  31
ENDBRANCH  27  30
ENDBRANCH  25  26
ENDBRANCH   1  25
TORSDOF 14
ENDMDL
MODEL 2
REMARK VINA RESULT: -8.917257308      0.858      1.107
REMARK  14 active torsions:
REMARK  status: ('A' for Active; 'I' for Inactive)
REMARK    1  A    between atoms: C2_2  and  C3_3 
REMARK       I    between atoms: C3_3  and  N1_5 
REMARK    2  A    between atoms: C4_6  and  C5_7 
REMARK       I    between atoms: C5_7  and  N2_9 
REMARK    3  A    between atoms: N2_9  and  C6_11 
REMARK    4  A    between atoms: C6_11  and  C8_13 
REMARK    5  A    between atoms: C8_13  and  N3_14 
REMARK       I    between atoms: N3_14  and  C9_16 
REMARK    6  A    between atoms: C9_16  and  C10_18 
REMARK    7  A    between atoms: C10_18  and  C11_19 
REMARK    8  A    between atoms: C11_19  and  C12_20 
REMARK    9  A    between atoms: C12_20  and  N4_21 
REMARK   10  A    between atoms: N5_23  and  C14_24 
REMARK   11  A    between atoms: C14_24  and  N6_26 
REMARK   12  A    between atoms: N6_26  and  C15_28 
REMARK   13  A    between atoms: C25_38  and  C27_40 
REMARK   14  A    between atoms: C27_40  and  N7_41 
REMARK       I    between atoms: N8_45  and  C31_46 
ROOT
HETATM    1  C6  UNL     1      10.418 -18.307 -19.529  1.00  0.00     0.098 C 
HETATM    2  C7  UNL     1       9.985 -18.819 -20.918  1.00  0.00     0.034 C 
ENDROOT
BRANCH   1   3
HETATM    3  N2  UNL     1      11.469 -19.202 -19.106  1.00  0.00    -0.353 N 
HETATM    4  C5  UNL     1      12.505 -18.675 -18.264  1.00  0.00     0.243 C 
HETATM    5  O2  UNL     1      12.437 -17.472 -17.950  1.00  0.00    -0.271 OA
ATOM      6  H2  UNL     1      11.475 -20.180 -19.396  1.00  0.00     0.163 HD
BRANCH   4   7
HETATM    7  C4  UNL     1      13.566 -19.624 -17.848  1.00  0.00     0.206 C 
HETATM    8  N1  UNL     1      13.038 -20.697 -16.984  1.00  0.00    -0.241 N 
HETATM    9  C3  UNL     1      12.762 -20.500 -15.612  1.00  0.00     0.238 C 
HETATM   10  N8  UNL     1      12.900 -21.870 -17.806  1.00  0.00    -0.244 N 
HETATM   11  O1  UNL     1      12.370 -21.387 -14.852  1.00  0.00    -0.272 OA
HETATM   12  C25 UNL     1      14.184 -21.875 -18.506  1.00  0.00     0.080 C 
HETATM   13  C31 UNL     1      11.738 -22.626 -17.830  1.00  0.00     0.235 C 
HETATM   14  C24 UNL     1      13.951 -20.414 -19.085  1.00  0.00     0.071 C 
HETATM   15  C26 UNL     1      15.297 -21.701 -17.547  1.00  0.00     0.043 C 
HETATM   16  C32 UNL     1      10.521 -22.266 -17.026  1.00  0.00     0.119 C 
HETATM   17  O4  UNL     1      11.540 -23.686 -18.509  1.00  0.00    -0.272 OA
BRANCH   9  18
HETATM   18  C2  UNL     1      12.951 -19.141 -15.020  1.00  0.00     0.100 C 
HETATM   19  C1  UNL     1      12.485 -19.134 -13.587  1.00  0.00     0.014 C 
ENDBRANCH   9  18
BRANCH  12  20
HETATM   20  C27 UNL     1      14.422 -22.670 -19.680  1.00  0.00     0.268 C 
BRANCH  20  21
HETATM   21  N7  UNL     1      14.933 -23.970 -19.722  1.00  0.00    -0.076 N 
HETATM   22  C28 UNL     1      14.446 -24.963 -18.831  1.00  0.00     0.271 C 
HETATM   23  C29 UNL     1      14.791 -24.483 -21.065  1.00  0.00     0.271 C 
HETATM   24  C30 UNL     1      16.443 -23.934 -19.585  1.00  0.00     0.271 C 
ENDBRANCH  20  21
ENDBRANCH  12  20
ENDBRANCH   4   7
ENDBRANCH   1   3
BRANCH   1  25
HETATM   25  C8  UNL     1       9.246 -18.361 -18.579  1.00  0.00     0.147 C 
BRANCH  25  26
HETATM   26  N3  UNL     1       8.130 -18.971 -19.270  1.00  0.00    -0.359 N 
HETATM   27  C9  UNL     1       6.943 -18.218 -19.512  1.00  0.00     0.217 C 
HETATM   28  O3  UNL     1       6.893 -17.038 -19.112  1.00  0.00    -0.274 OA
ATOM     29  H3  UNL     1       8.194 -19.938 -19.585  1.00  0.00     0.162 HD
BRANCH  27  30
HETATM   30  C10 UNL     1       5.824 -18.849 -20.216  1.00  0.00     0.104 C 
BRANCH  30  31
HETATM   31  C11 UNL     1       4.869 -17.817 -20.745  1.00  0.00     0.024 C 
BRANCH  31  32
HETATM   32  C12 UNL     1       3.465 -18.177 -20.386  1.00  0.00     0.097 C 
BRANCH  32  33
HETATM   33  N4  UNL     1       2.824 -17.135 -19.625  1.00  0.00    -0.275 NA
HETATM   34  C13 UNL     1       3.686 -16.531 -18.679  1.00  0.00     0.156 C 
HETATM   35  N5  UNL     1       3.834 -17.253 -17.442  1.00  0.00    -0.325 N 
HETATM   36  C20 UNL     1       3.080 -18.430 -17.135  1.00  0.00     0.133 C 
HETATM   37  C21 UNL     1       1.931 -18.709 -18.007  1.00  0.00     0.040 C 
HETATM   38  C22 UNL     1       1.610 -17.620 -18.990  1.00  0.00     0.061 C 
HETATM   39  C23 UNL     1       0.650 -18.053 -20.046  1.00  0.00     0.027 C 
BRANCH  35  40
HETATM   40  C14 UNL     1       4.792 -16.770 -16.465  1.00  0.00     0.174 C 
HETATM   41  S1  UNL     1       4.423 -15.407 -15.668  1.00  0.00    -0.041 SA
BRANCH  40  42
HETATM   42  N6  UNL     1       5.995 -17.460 -16.227  1.00  0.00    -0.362 N 
ATOM     43  H6  UNL     1       6.197 -18.306 -16.759  1.00  0.00     0.162 HD
BRANCH  42  44
HETATM   44  C15 UNL     1       6.961 -16.996 -15.235  1.00  0.00     0.083 C 
HETATM   45  C16 UNL     1       7.758 -18.135 -14.642  1.00  0.00     0.025 C 
HETATM   46  C17 UNL     1       9.157 -17.615 -14.391  1.00  0.00     0.002 C 
HETATM   47  C18 UNL     1       9.283 -16.305 -15.121  1.00  0.00     0.002 C 
HETATM   48  C19 UNL     1       8.004 -16.106 -15.869  1.00  0.00     0.025 C 
ENDBRANCH  42  44
ENDBRANCH  40  42
ENDBRANCH  35  40
ENDBRANCH  32  33
ENDBRANCH  31  32
ENDBRANCH  30  31
ENDBRANCH  27  30
ENDBRANCH  25  26
ENDBRANCH   1  25
TORSDOF 14
ENDMDL
MODEL 3
REMARK VINA RESULT: -8.756281966      1.436      3.754
REMARK  14 active torsions:
REMARK  status: ('A' for Active; 'I' for Inactive)
REMARK    1  A    between atoms: C2_2  and  C3_3 
REMARK       I    between atoms: C3_3  and  N1_5 
REMARK    2  A    between atoms: C4_6  and  C5_7 
REMARK       I    between atoms: C5_7  and  N2_9 
REMARK    3  A    between atoms: N2_9  and  C6_11 
REMARK    4  A    between atoms: C6_11  and  C8_13 
REMARK    5  A    between atoms: C8_13  and  N3_14 
REMARK       I    between atoms: N3_14  and  C9_16 
REMARK    6  A    between atoms: C9_16  and  C10_18 
REMARK    7  A    between atoms: C10_18  and  C11_19 
REMARK    8  A    between atoms: C11_19  and  C12_20 
REMARK    9  A    between atoms: C12_20  and  N4_21 
REMARK   10  A    between atoms: N5_23  and  C14_24 
REMARK   11  A    between atoms: C14_24  and  N6_26 
REMARK   12  A    between atoms: N6_26  and  C15_28 
REMARK   13  A    between atoms: C25_38  and  C27_40 
REMARK   14  A    between atoms: C27_40  and  N7_41 
REMARK       I    between atoms: N8_45  and  C31_46 
ROOT
HETATM    1  C6  UNL     1      10.588 -18.602 -19.642  1.00  0.00     0.098 C 
HETATM    2  C7  UNL     1      10.344 -19.044 -21.100  1.00  0.00     0.034 C 
ENDROOT
BRANCH   1   3
HETATM    3  N2  UNL     1      11.653 -19.452 -19.163  1.00  0.00    -0.353 N 
HETATM    4  C5  UNL     1      12.631 -18.876 -18.285  1.00  0.00     0.243 C 
HETATM    5  O2  UNL     1      12.506 -17.674 -17.991  1.00  0.00    -0.271 OA
ATOM      6  H2  UNL     1      11.708 -20.433 -19.440  1.00  0.00     0.163 HD
BRANCH   4   7
HETATM    7  C4  UNL     1      13.708 -19.781 -17.811  1.00  0.00     0.206 C 
HETATM    8  N1  UNL     1      13.177 -20.895 -17.005  1.00  0.00    -0.241 N 
HETATM    9  C3  UNL     1      12.796 -20.740 -15.652  1.00  0.00     0.238 C 
HETATM   10  N8  UNL     1      13.156 -22.057 -17.853  1.00  0.00    -0.244 N 
HETATM   11  O1  UNL     1      12.398 -21.661 -14.937  1.00  0.00    -0.272 OA
HETATM   12  C25 UNL     1      14.484 -21.984 -18.461  1.00  0.00     0.080 C 
HETATM   13  C31 UNL     1      12.039 -22.869 -17.972  1.00  0.00     0.235 C 
HETATM   14  C24 UNL     1      14.218 -20.525 -19.030  1.00  0.00     0.071 C 
HETATM   15  C26 UNL     1      15.517 -21.774 -17.424  1.00  0.00     0.043 C 
HETATM   16  C32 UNL     1      10.752 -22.586 -17.250  1.00  0.00     0.119 C 
HETATM   17  O4  UNL     1      11.942 -23.924 -18.681  1.00  0.00    -0.272 OA
BRANCH   9  18
HETATM   18  C2  UNL     1      12.874 -19.386 -15.025  1.00  0.00     0.100 C 
HETATM   19  C1  UNL     1      12.341 -19.438 -13.617  1.00  0.00     0.014 C 
ENDBRANCH   9  18
BRANCH  12  20
HETATM   20  C27 UNL     1      14.843 -22.742 -19.629  1.00  0.00     0.268 C 
BRANCH  20  21
HETATM   21  N7  UNL     1      15.413 -24.018 -19.657  1.00  0.00    -0.076 N 
HETATM   22  C28 UNL     1      14.772 -25.106 -19.006  1.00  0.00     0.271 C 
HETATM   23  C29 UNL     1      15.631 -24.401 -21.033  1.00  0.00     0.271 C 
HETATM   24  C30 UNL     1      16.839 -23.956 -19.145  1.00  0.00     0.271 C 
ENDBRANCH  20  21
ENDBRANCH  12  20
ENDBRANCH   4   7
ENDBRANCH   1   3
BRANCH   1  25
HETATM   25  C8  UNL     1       9.331 -18.801 -18.832  1.00  0.00     0.147 C 
BRANCH  25  26
HETATM   26  N3  UNL     1       9.433 -17.999 -17.633  1.00  0.00    -0.359 N 
HETATM   27  C9  UNL     1       9.329 -18.615 -16.350  1.00  0.00     0.217 C 
HETATM   28  O3  UNL     1       9.145 -19.848 -16.294  1.00  0.00    -0.274 OA
ATOM     29  H3  UNL     1       9.580 -16.993 -17.704  1.00  0.00     0.162 HD
BRANCH  27  30
HETATM   30  C10 UNL     1       9.438 -17.790 -15.146  1.00  0.00     0.104 C 
BRANCH  30  31
HETATM   31  C11 UNL     1       9.396 -16.328 -15.489  1.00  0.00     0.024 C 
BRANCH  31  32
HETATM   32  C12 UNL     1       8.043 -15.953 -15.998  1.00  0.00     0.097 C 
BRANCH  32  33
HETATM   33  N4  UNL     1       7.017 -16.191 -15.015  1.00  0.00    -0.275 NA
HETATM   34  C13 UNL     1       6.032 -17.109 -15.454  1.00  0.00     0.156 C 
HETATM   35  N5  UNL     1       5.006 -16.545 -16.292  1.00  0.00    -0.325 N 
HETATM   36  C20 UNL     1       4.912 -15.145 -16.569  1.00  0.00     0.133 C 
HETATM   37  C21 UNL     1       5.728 -14.261 -15.726  1.00  0.00     0.040 C 
HETATM   38  C22 UNL     1       6.411 -14.946 -14.577  1.00  0.00     0.061 C 
HETATM   39  C23 UNL     1       7.455 -14.098 -13.932  1.00  0.00     0.027 C 
BRANCH  35  40
HETATM   40  C14 UNL     1       4.027 -17.437 -16.887  1.00  0.00     0.174 C 
HETATM   41  S1  UNL     1       2.531 -17.425 -16.261  1.00  0.00    -0.041 SA
BRANCH  40  42
HETATM   42  N6  UNL     1       4.370 -18.278 -17.961  1.00  0.00    -0.362 N 
ATOM     43  H6  UNL     1       4.338 -19.289 -17.831  1.00  0.00     0.162 HD
BRANCH  42  44
HETATM   44  C15 UNL     1       4.772 -17.739 -19.257  1.00  0.00     0.083 C 
HETATM   45  C16 UNL     1       6.110 -18.282 -19.707  1.00  0.00     0.025 C 
HETATM   46  C17 UNL     1       6.043 -18.433 -21.212  1.00  0.00     0.002 C 
HETATM   47  C18 UNL     1       4.598 -18.300 -21.610  1.00  0.00     0.002 C 
HETATM   48  C19 UNL     1       3.815 -18.167 -20.343  1.00  0.00     0.025 C 
ENDBRANCH  42  44
ENDBRANCH  40  42
ENDBRANCH  35  40
ENDBRANCH  32  33
ENDBRANCH  31  32
ENDBRANCH  30  31
ENDBRANCH  27  30
ENDBRANCH  25  26
ENDBRANCH   1  25
TORSDOF 14
ENDMDL
MODEL 4
REMARK VINA RESULT: -8.692305649      2.623      5.294
REMARK  14 active torsions:
REMARK  status: ('A' for Active; 'I' for Inactive)
REMARK    1  A    between atoms: C2_2  and  C3_3 
REMARK       I    between atoms: C3_3  and  N1_5 
REMARK    2  A    between atoms: C4_6  and  C5_7 
REMARK       I    between atoms: C5_7  and  N2_9 
REMARK    3  A    between atoms: N2_9  and  C6_11 
REMARK    4  A    between atoms: C6_11  and  C8_13 
REMARK    5  A    between atoms: C8_13  and  N3_14 
REMARK       I    between atoms: N3_14  and  C9_16 
REMARK    6  A    between atoms: C9_16  and  C10_18 
REMARK    7  A    between atoms: C10_18  and  C11_19 
REMARK    8  A    between atoms: C11_19  and  C12_20 
REMARK    9  A    between atoms: C12_20  and  N4_21 
REMARK   10  A    between atoms: N5_23  and  C14_24 
REMARK   11  A    between atoms: C14_24  and  N6_26 
REMARK   12  A    between atoms: N6_26  and  C15_28 
REMARK   13  A    between atoms: C25_38  and  C27_40 
REMARK   14  A    between atoms: C27_40  and  N7_41 
REMARK       I    between atoms: N8_45  and  C31_46 
ROOT
HETATM    1  C6  UNL     1      10.637 -18.275 -14.084  1.00  0.00     0.098 C 
HETATM    2  C7  UNL     1      11.994 -18.360 -13.354  1.00  0.00     0.034 C 
ENDROOT
BRANCH   1   3
HETATM    3  N2  UNL     1      10.785 -19.103 -15.257  1.00  0.00    -0.353 N 
HETATM    4  C5  UNL     1       9.626 -19.793 -15.746  1.00  0.00     0.243 C 
HETATM    5  O2  UNL     1       8.558 -19.638 -15.126  1.00  0.00    -0.271 OA
ATOM      6  H2  UNL     1      11.687 -19.196 -15.724  1.00  0.00     0.163 HD
BRANCH   4   7
HETATM    7  C4  UNL     1       9.816 -20.632 -16.954  1.00  0.00     0.206 C 
HETATM    8  N1  UNL     1      10.397 -19.866 -18.073  1.00  0.00    -0.241 N 
HETATM    9  C3  UNL     1       9.627 -18.993 -18.876  1.00  0.00     0.238 C 
HETATM   10  N8  UNL     1      11.794 -20.203 -18.135  1.00  0.00    -0.244 N 
HETATM   11  O1  UNL     1      10.069 -18.378 -19.847  1.00  0.00    -0.272 OA
HETATM   12  C25 UNL     1      11.735 -21.660 -18.023  1.00  0.00     0.080 C 
HETATM   13  C31 UNL     1      12.787 -19.240 -18.214  1.00  0.00     0.235 C 
HETATM   14  C24 UNL     1      10.950 -21.590 -16.643  1.00  0.00     0.071 C 
HETATM   15  C26 UNL     1      10.739 -22.213 -18.967  1.00  0.00     0.043 C 
HETATM   16  C32 UNL     1      12.489 -17.767 -18.209  1.00  0.00     0.119 C 
HETATM   17  O4  UNL     1      14.041 -19.452 -18.294  1.00  0.00    -0.272 OA
BRANCH   9  18
HETATM   18  C2  UNL     1       8.183 -18.787 -18.548  1.00  0.00     0.100 C 
HETATM   19  C1  UNL     1       7.410 -18.472 -19.803  1.00  0.00     0.014 C 
ENDBRANCH   9  18
BRANCH  12  20
HETATM   20  C27 UNL     1      12.889 -22.460 -17.715  1.00  0.00     0.268 C 
BRANCH  20  21
HETATM   21  N7  UNL     1      13.839 -22.945 -18.619  1.00  0.00    -0.076 N 
HETATM   22  C28 UNL     1      13.914 -22.415 -19.935  1.00  0.00     0.271 C 
HETATM   23  C29 UNL     1      15.150 -22.826 -18.027  1.00  0.00     0.271 C 
HETATM   24  C30 UNL     1      13.711 -24.451 -18.740  1.00  0.00     0.271 C 
ENDBRANCH  20  21
ENDBRANCH  12  20
ENDBRANCH   4   7
ENDBRANCH   1   3
BRANCH   1  25
HETATM   25  C8  UNL     1      10.354 -16.842 -14.465  1.00  0.00     0.147 C 
BRANCH  25  26
HETATM   26  N3  UNL     1       8.937 -16.602 -14.302  1.00  0.00    -0.359 N 
HETATM   27  C9  UNL     1       8.153 -16.170 -15.413  1.00  0.00     0.217 C 
HETATM   28  O3  UNL     1       8.717 -16.005 -16.513  1.00  0.00    -0.274 OA
ATOM     29  H3  UNL     1       8.498 -16.741 -13.392  1.00  0.00     0.162 HD
BRANCH  27  30
HETATM   30  C10 UNL     1       6.719 -15.934 -15.232  1.00  0.00     0.104 C 
BRANCH  30  31
HETATM   31  C11 UNL     1       5.912 -17.085 -15.762  1.00  0.00     0.024 C 
BRANCH  31  32
HETATM   32  C12 UNL     1       4.737 -16.582 -16.534  1.00  0.00     0.097 C 
BRANCH  32  33
HETATM   33  N4  UNL     1       3.551 -17.356 -16.268  1.00  0.00    -0.275 NA
HETATM   34  C13 UNL     1       3.351 -18.401 -17.202  1.00  0.00     0.156 C 
HETATM   35  N5  UNL     1       2.732 -18.000 -18.438  1.00  0.00    -0.325 N 
HETATM   36  C20 UNL     1       2.245 -16.676 -18.670  1.00  0.00     0.133 C 
HETATM   37  C21 UNL     1       2.130 -15.812 -17.487  1.00  0.00     0.040 C 
HETATM   38  C22 UNL     1       2.377 -16.505 -16.177  1.00  0.00     0.061 C 
HETATM   39  C23 UNL     1       2.553 -15.555 -15.041  1.00  0.00     0.027 C 
BRANCH  35  40
HETATM   40  C14 UNL     1       2.601 -18.982 -19.499  1.00  0.00     0.174 C 
HETATM   41  S1  UNL     1       3.225 -18.603 -20.948  1.00  0.00    -0.041 SA
BRANCH  40  42
HETATM   42  N6  UNL     1       1.955 -20.211 -19.274  1.00  0.00    -0.362 N 
ATOM     43  H6  UNL     1       1.069 -20.222 -18.770  1.00  0.00     0.162 HD
BRANCH  42  44
HETATM   44  C15 UNL     1       2.522 -21.473 -19.744  1.00  0.00     0.083 C 
HETATM   45  C16 UNL     1       3.624 -21.972 -18.838  1.00  0.00     0.025 C 
HETATM   46  C17 UNL     1       3.531 -23.482 -18.817  1.00  0.00     0.002 C 
HETATM   47  C18 UNL     1       2.207 -23.856 -19.427  1.00  0.00     0.002 C 
HETATM   48  C19 UNL     1       1.491 -22.575 -19.716  1.00  0.00     0.025 C 
ENDBRANCH  42  44
ENDBRANCH  40  42
ENDBRANCH  35  40
ENDBRANCH  32  33
ENDBRANCH  31  32
ENDBRANCH  30  31
ENDBRANCH  27  30
ENDBRANCH  25  26
ENDBRANCH   1  25
TORSDOF 14
ENDMDL
MODEL 5
REMARK VINA RESULT: -8.667275699      1.883      3.899
REMARK  14 active torsions:
REMARK  status: ('A' for Active; 'I' for Inactive)
REMARK    1  A    between atoms: C2_2  and  C3_3 
REMARK       I    between atoms: C3_3  and  N1_5 
REMARK    2  A    between atoms: C4_6  and  C5_7 
REMARK       I    between atoms: C5_7  and  N2_9 
REMARK    3  A    between atoms: N2_9  and  C6_11 
REMARK    4  A    between atoms: C6_11  and  C8_13 
REMARK    5  A    between atoms: C8_13  and  N3_14 
REMARK       I    between atoms: N3_14  and  C9_16 
REMARK    6  A    between atoms: C9_16  and  C10_18 
REMARK    7  A    between atoms: C10_18  and  C11_19 
REMARK    8  A    between atoms: C11_19  and  C12_20 
REMARK    9  A    between atoms: C12_20  and  N4_21 
REMARK   10  A    between atoms: N5_23  and  C14_24 
REMARK   11  A    between atoms: C14_24  and  N6_26 
REMARK   12  A    between atoms: N6_26  and  C15_28 
REMARK   13  A    between atoms: C25_38  and  C27_40 
REMARK   14  A    between atoms: C27_40  and  N7_41 
REMARK       I    between atoms: N8_45  and  C31_46 
ROOT
HETATM    1  C6  UNL     1      10.346 -18.161 -19.425  1.00  0.00     0.098 C 
HETATM    2  C7  UNL     1      10.161 -18.375 -20.942  1.00  0.00     0.034 C 
ENDROOT
BRANCH   1   3
HETATM    3  N2  UNL     1      11.407 -19.063 -19.042  1.00  0.00    -0.353 N 
HETATM    4  C5  UNL     1      12.399 -18.584 -18.123  1.00  0.00     0.243 C 
HETATM    5  O2  UNL     1      12.288 -17.415 -17.710  1.00  0.00    -0.271 OA
ATOM      6  H2  UNL     1      11.450 -20.011 -19.415  1.00  0.00     0.163 HD
BRANCH   4   7
HETATM    7  C4  UNL     1      13.471 -19.540 -17.751  1.00  0.00     0.206 C 
HETATM    8  N1  UNL     1      12.969 -20.622 -16.883  1.00  0.00    -0.241 N 
HETATM    9  C3  UNL     1      12.735 -20.441 -15.501  1.00  0.00     0.238 C 
HETATM   10  N8  UNL     1      12.804 -21.785 -17.714  1.00  0.00    -0.244 N 
HETATM   11  O1  UNL     1      12.366 -21.336 -14.740  1.00  0.00    -0.272 OA
HETATM   12  C25 UNL     1      14.066 -21.783 -18.453  1.00  0.00     0.080 C 
HETATM   13  C31 UNL     1      11.641 -22.540 -17.711  1.00  0.00     0.235 C 
HETATM   14  C24 UNL     1      13.817 -20.315 -19.007  1.00  0.00     0.071 C 
HETATM   15  C26 UNL     1      15.208 -21.621 -17.527  1.00  0.00     0.043 C 
HETATM   16  C32 UNL     1      10.450 -22.188 -16.866  1.00  0.00     0.119 C 
HETATM   17  O4  UNL     1      11.421 -23.591 -18.396  1.00  0.00    -0.272 OA
BRANCH   9  18
HETATM   18  C2  UNL     1      12.945 -19.089 -14.899  1.00  0.00     0.100 C 
HETATM   19  C1  UNL     1      11.948 -18.858 -13.793  1.00  0.00     0.014 C 
ENDBRANCH   9  18
BRANCH  12  20
HETATM   20  C27 UNL     1      14.267 -22.564 -19.643  1.00  0.00     0.268 C 
BRANCH  20  21
HETATM   21  N7  UNL     1      14.835 -23.839 -19.724  1.00  0.00    -0.076 N 
HETATM   22  C28 UNL     1      14.276 -24.921 -18.993  1.00  0.00     0.271 C 
HETATM   23  C29 UNL     1      14.895 -24.236 -21.111  1.00  0.00     0.271 C 
HETATM   24  C30 UNL     1      16.309 -23.768 -19.379  1.00  0.00     0.271 C 
ENDBRANCH  20  21
ENDBRANCH  12  20
ENDBRANCH   4   7
ENDBRANCH   1   3
BRANCH   1  25
HETATM   25  C8  UNL     1       9.064 -18.496 -18.704  1.00  0.00     0.147 C 
BRANCH  25  26
HETATM   26  N3  UNL     1       8.979 -17.666 -17.522  1.00  0.00    -0.359 N 
HETATM   27  C9  UNL     1       8.207 -16.467 -17.545  1.00  0.00     0.217 C 
HETATM   28  O3  UNL     1       7.620 -16.156 -18.601  1.00  0.00    -0.274 OA
ATOM     29  H3  UNL     1       9.470 -17.939 -16.671  1.00  0.00     0.162 HD
BRANCH  27  30
HETATM   30  C10 UNL     1       8.129 -15.639 -16.339  1.00  0.00     0.104 C 
BRANCH  30  31
HETATM   31  C11 UNL     1       6.908 -15.976 -15.533  1.00  0.00     0.024 C 
BRANCH  31  32
HETATM   32  C12 UNL     1       5.721 -15.231 -16.051  1.00  0.00     0.097 C 
BRANCH  32  33
HETATM   33  N4  UNL     1       4.498 -15.965 -15.845  1.00  0.00    -0.275 NA
HETATM   34  C13 UNL     1       4.496 -17.227 -16.485  1.00  0.00     0.156 C 
HETATM   35  N5  UNL     1       4.165 -17.198 -17.886  1.00  0.00    -0.325 N 
HETATM   36  C20 UNL     1       3.754 -16.007 -18.562  1.00  0.00     0.133 C 
HETATM   37  C21 UNL     1       3.394 -14.868 -17.708  1.00  0.00     0.040 C 
HETATM   38  C22 UNL     1       3.342 -15.177 -16.238  1.00  0.00     0.061 C 
HETATM   39  C23 UNL     1       3.275 -13.954 -15.388  1.00  0.00     0.027 C 
BRANCH  35  40
HETATM   40  C14 UNL     1       4.259 -18.431 -18.647  1.00  0.00     0.174 C 
HETATM   41  S1  UNL     1       5.340 -18.482 -19.854  1.00  0.00    -0.041 SA
BRANCH  40  42
HETATM   42  N6  UNL     1       3.438 -19.533 -18.346  1.00  0.00    -0.362 N 
ATOM     43  H6  UNL     1       3.022 -19.604 -17.417  1.00  0.00     0.162 HD
BRANCH  42  44
HETATM   44  C15 UNL     1       3.167 -20.578 -19.330  1.00  0.00     0.083 C 
HETATM   45  C16 UNL     1       3.518 -21.952 -18.808  1.00  0.00     0.025 C 
HETATM   46  C17 UNL     1       2.498 -22.916 -19.377  1.00  0.00     0.002 C 
HETATM   47  C18 UNL     1       1.377 -22.091 -19.951  1.00  0.00     0.002 C 
HETATM   48  C19 UNL     1       1.691 -20.664 -19.637  1.00  0.00     0.025 C 
ENDBRANCH  42  44
ENDBRANCH  40  42
ENDBRANCH  35  40
ENDBRANCH  32  33
ENDBRANCH  31  32
ENDBRANCH  30  31
ENDBRANCH  27  30
ENDBRANCH  25  26
ENDBRANCH   1  25
TORSDOF 14
ENDMDL
