MODEL 1
REMARK VINA RESULT: -8.971457012      0.000      0.000
REMARK  12 active torsions:
REMARK  status: ('A' for Active; 'I' for Inactive)
REMARK    1  A    between atoms: C2_2  and  S1_3 
REMARK    2  A    between atoms: S1_3  and  C4_5 
REMARK    3  A    between atoms: C4_5  and  C5_6 
REMARK    4  A    between atoms: C5_6  and  N1_7 
REMARK    5  A    between atoms: N1_7  and  C8_10 
REMARK    6  A    between atoms: C8_10  and  C9_11 
REMARK    7  A    between atoms: C9_11  and  N2_12 
REMARK    8  A    between atoms: C12_15  and  N3_16 
REMARK       I    between atoms: N3_16  and  C13_18 
REMARK    9  A    between atoms: C13_18  and  C14_20 
REMARK   10  A    between atoms: C14_20  and  C15_21 
REMARK   11  A    between atoms: C27_38  and  C28_39 
REMARK   12  A    between atoms: C28_39  and  C29_40 
ROOT
HETATM    1  C15 UNL     1      -6.877  17.316 -18.836  1.00  0.00     0.086 C 
HETATM    2  C16 UNL     1      -6.172  17.697 -20.130  1.00  0.00     0.014 C 
HETATM    3  C17 UNL     1      -4.878  18.427 -19.858  1.00  0.00     0.002 C 
HETATM    4  C18 UNL     1      -3.952  18.231 -21.020  1.00  0.00     0.020 C 
HETATM    5  C19 UNL     1      -2.771  17.343 -20.705  1.00  0.00     0.125 C 
HETATM    6  N4  UNL     1      -1.916  17.892 -19.671  1.00  0.00    -0.356 N 
HETATM    7  C20 UNL     1      -1.708  19.347 -19.709  1.00  0.00     0.152 C 
HETATM    8  C21 UNL     1      -1.299  17.093 -18.664  1.00  0.00     0.219 C 
HETATM    9  O2  UNL     1      -1.086  17.651 -17.553  1.00  0.00    -0.273 OA
HETATM   10  C22 UNL     1      -0.911  15.674 -18.874  1.00  0.00     0.103 C 
HETATM   11  C23 UNL     1      -1.922  14.710 -18.345  1.00  0.00     0.011 C 
HETATM   12  C24 UNL     1      -1.619  14.233 -16.950  1.00  0.00     0.020 C 
HETATM   13  C25 UNL     1      -2.894  14.143 -16.101  1.00  0.00     0.122 C 
HETATM   14  N5  UNL     1      -3.317  15.450 -15.667  1.00  0.00    -0.359 N 
ATOM     15  H5  UNL     1      -2.649  15.987 -15.114  1.00  0.00     0.162 HD
HETATM   16  C26 UNL     1      -4.555  16.062 -15.926  1.00  0.00     0.240 C 
HETATM   17  O3  UNL     1      -4.620  17.323 -15.841  1.00  0.00    -0.271 OA
HETATM   18  C27 UNL     1      -5.802  15.349 -16.295  1.00  0.00     0.177 C 
HETATM   19  N6  UNL     1      -5.890  15.199 -17.725  1.00  0.00    -0.347 N 
ATOM     20  H6  UNL     1      -5.256  14.510 -18.129  1.00  0.00     0.163 HD
HETATM   21  C32 UNL     1      -6.710  15.853 -18.636  1.00  0.00     0.223 C 
HETATM   22  O4  UNL     1      -7.434  15.148 -19.428  1.00  0.00    -0.273 OA
ENDROOT
BRANCH   1  23
HETATM   23  C14 UNL     1      -8.335  17.588 -18.977  1.00  0.00     0.117 C 
BRANCH  23  24
HETATM   24  C13 UNL     1      -8.885  18.631 -18.113  1.00  0.00     0.218 C 
HETATM   25  N3  UNL     1      -9.554  18.273 -16.920  1.00  0.00    -0.356 N 
ATOM     26  H3  UNL     1      -9.644  17.285 -16.681  1.00  0.00     0.162 HD
HETATM   27  O1  UNL     1      -8.770  19.832 -18.416  1.00  0.00    -0.274 OA
BRANCH  25  28
HETATM   28  C12 UNL     1     -10.122  19.274 -16.017  1.00  0.00     0.087 C 
HETATM   29  C11 UNL     1     -10.304  18.651 -14.631  1.00  0.00     0.055 C 
HETATM   30  C10 UNL     1     -11.495  19.251 -13.949  1.00  0.00     0.274 C 
HETATM   31  N2  UNL     1     -12.745  18.871 -14.595  1.00  0.00     0.090 N 
HETATM   32  C34 UNL     1     -12.508  18.636 -15.986  1.00  0.00     0.274 C 
HETATM   33  C33 UNL     1     -11.492  19.625 -16.555  1.00  0.00     0.055 C 
BRANCH  31  34
HETATM   34  C9  UNL     1     -13.756  19.838 -14.309  1.00  0.00     0.300 C 
BRANCH  34  35
HETATM   35  C8  UNL     1     -14.849  19.931 -15.332  1.00  0.00     0.266 C 
BRANCH  35  36
HETATM   36  N1  UNL     1     -15.100  21.325 -15.692  1.00  0.00    -0.072 N 
HETATM   37  C6  UNL     1     -16.465  21.615 -15.362  1.00  0.00     0.272 C 
HETATM   38  C7  UNL     1     -14.148  22.223 -15.075  1.00  0.00     0.272 C 
BRANCH  36  39
HETATM   39  C5  UNL     1     -14.928  21.450 -17.130  1.00  0.00     0.245 C 
BRANCH  39  40
HETATM   40  C4  UNL     1     -13.785  22.376 -17.459  1.00  0.00     0.091 C 
BRANCH  40  41
HETATM   41  S1  UNL     1     -13.168  22.036 -19.111  1.00  0.00    -0.223 SA
HETATM   42  C3  UNL     1     -11.434  22.459 -19.124  1.00  0.00     0.078 C 
BRANCH  41  43
HETATM   43  C2  UNL     1     -13.978  23.170 -20.213  1.00  0.00     0.058 C 
HETATM   44  C1  UNL     1     -13.020  23.537 -21.333  1.00  0.00     0.015 C 
ENDBRANCH  41  43
ENDBRANCH  40  41
ENDBRANCH  39  40
ENDBRANCH  36  39
ENDBRANCH  35  36
ENDBRANCH  34  35
ENDBRANCH  31  34
ENDBRANCH  25  28
ENDBRANCH  23  24
ENDBRANCH   1  23
BRANCH  18  45
HETATM   45  C28 UNL     1      -7.021  15.968 -15.668  1.00  0.00     0.038 C 
BRANCH  45  46
HETATM   46  C29 UNL     1      -7.353  15.289 -14.337  1.00  0.00    -0.020 C 
HETATM   47  C30 UNL     1      -6.884  13.840 -14.352  1.00  0.00     0.009 C 
HETATM   48  C31 UNL     1      -8.876  15.222 -14.234  1.00  0.00     0.009 C 
ENDBRANCH  45  46
ENDBRANCH  18  45
TORSDOF 12
ENDMDL
MODEL 2
REMARK VINA RESULT: -8.860207320      3.255      5.338
REMARK  12 active torsions:
REMARK  status: ('A' for Active; 'I' for Inactive)
REMARK    1  A    between atoms: C2_2  and  S1_3 
REMARK    2  A    between atoms: S1_3  and  C4_5 
REMARK    3  A    between atoms: C4_5  and  C5_6 
REMARK    4  A    between atoms: C5_6  and  N1_7 
REMARK    5  A    between atoms: N1_7  and  C8_10 
REMARK    6  A    between atoms: C8_10  and  C9_11 
REMARK    7  A    between atoms: C9_11  and  N2_12 
REMARK    8  A    between atoms: C12_15  and  N3_16 
REMARK       I    between atoms: N3_16  and  C13_18 
REMARK    9  A    between atoms: C13_18  and  C14_20 
REMARK   10  A    between atoms: C14_20  and  C15_21 
REMARK   11  A    between atoms: C27_38  and  C28_39 
REMARK   12  A    between atoms: C28_39  and  C29_40 
ROOT
HETATM    1  C15 UNL     1     -10.874  18.850 -18.294  1.00  0.00     0.086 C 
HETATM    2  C16 UNL     1     -10.243  18.471 -19.627  1.00  0.00     0.014 C 
HETATM    3  C17 UNL     1      -8.753  18.722 -19.620  1.00  0.00     0.002 C 
HETATM    4  C18 UNL     1      -8.100  17.810 -20.614  1.00  0.00     0.020 C 
HETATM    5  C19 UNL     1      -7.269  16.721 -19.975  1.00  0.00     0.125 C 
HETATM    6  N4  UNL     1      -6.159  17.243 -19.201  1.00  0.00    -0.356 N 
HETATM    7  C20 UNL     1      -5.468  18.410 -19.768  1.00  0.00     0.152 C 
HETATM    8  C21 UNL     1      -5.740  16.677 -17.961  1.00  0.00     0.219 C 
HETATM    9  O2  UNL     1      -5.216  17.468 -17.130  1.00  0.00    -0.273 OA
HETATM   10  C22 UNL     1      -5.895  15.237 -17.629  1.00  0.00     0.103 C 
HETATM   11  C23 UNL     1      -7.105  14.959 -16.799  1.00  0.00     0.011 C 
HETATM   12  C24 UNL     1      -6.820  14.922 -15.321  1.00  0.00     0.020 C 
HETATM   13  C25 UNL     1      -7.936  15.606 -14.520  1.00  0.00     0.122 C 
HETATM   14  N5  UNL     1      -7.826  17.040 -14.604  1.00  0.00    -0.359 N 
ATOM     15  H5  UNL     1      -6.952  17.451 -14.276  1.00  0.00     0.162 HD
HETATM   16  C26 UNL     1      -8.797  17.930 -15.090  1.00  0.00     0.240 C 
HETATM   17  O3  UNL     1      -8.412  19.073 -15.475  1.00  0.00    -0.271 OA
HETATM   18  C27 UNL     1     -10.248  17.643 -15.191  1.00  0.00     0.177 C 
HETATM   19  N6  UNL     1     -10.554  17.048 -16.467  1.00  0.00    -0.347 N 
ATOM     20  H6  UNL     1     -10.251  16.081 -16.579  1.00  0.00     0.163 HD
HETATM   21  C32 UNL     1     -11.201  17.595 -17.567  1.00  0.00     0.223 C 
HETATM   22  O4  UNL     1     -12.214  16.976 -18.056  1.00  0.00    -0.273 OA
ENDROOT
BRANCH   1  23
HETATM   23  C14 UNL     1     -12.155  19.570 -18.549  1.00  0.00     0.117 C 
BRANCH  23  24
HETATM   24  C13 UNL     1     -12.400  20.760 -17.739  1.00  0.00     0.218 C 
HETATM   25  N3  UNL     1     -13.701  21.019 -17.249  1.00  0.00    -0.356 N 
ATOM     26  H3  UNL     1     -14.452  20.367 -17.474  1.00  0.00     0.162 HD
HETATM   27  O1  UNL     1     -11.476  21.549 -17.472  1.00  0.00    -0.274 OA
BRANCH  25  28
HETATM   28  C12 UNL     1     -14.004  22.193 -16.431  1.00  0.00     0.087 C 
HETATM   29  C11 UNL     1     -13.774  21.850 -14.958  1.00  0.00     0.055 C 
HETATM   30  C10 UNL     1     -14.731  22.614 -14.096  1.00  0.00     0.274 C 
HETATM   31  N2  UNL     1     -16.108  22.168 -14.277  1.00  0.00     0.090 N 
HETATM   32  C34 UNL     1     -16.272  21.666 -15.606  1.00  0.00     0.274 C 
HETATM   33  C33 UNL     1     -15.477  22.491 -16.617  1.00  0.00     0.055 C 
BRANCH  31  34
HETATM   34  C9  UNL     1     -17.011  23.211 -13.907  1.00  0.00     0.300 C 
BRANCH  34  35
HETATM   35  C8  UNL     1     -16.698  23.882 -12.603  1.00  0.00     0.266 C 
BRANCH  35  36
HETATM   36  N1  UNL     1     -16.940  25.321 -12.693  1.00  0.00    -0.072 N 
HETATM   37  C6  UNL     1     -18.051  25.625 -11.840  1.00  0.00     0.272 C 
HETATM   38  C7  UNL     1     -15.750  26.088 -12.396  1.00  0.00     0.272 C 
BRANCH  36  39
HETATM   39  C5  UNL     1     -17.306  25.624 -14.067  1.00  0.00     0.245 C 
BRANCH  39  40
HETATM   40  C4  UNL     1     -18.422  26.634 -14.119  1.00  0.00     0.091 C 
BRANCH  40  41
HETATM   41  S1  UNL     1     -19.127  26.696 -15.770  1.00  0.00    -0.223 SA
HETATM   42  C3  UNL     1     -18.039  25.774 -16.843  1.00  0.00     0.078 C 
BRANCH  41  43
HETATM   43  C2  UNL     1     -19.056  28.389 -16.303  1.00  0.00     0.058 C 
HETATM   44  C1  UNL     1     -19.113  28.431 -17.820  1.00  0.00     0.015 C 
ENDBRANCH  41  43
ENDBRANCH  40  41
ENDBRANCH  39  40
ENDBRANCH  36  39
ENDBRANCH  35  36
ENDBRANCH  34  35
ENDBRANCH  31  34
ENDBRANCH  25  28
ENDBRANCH  23  24
ENDBRANCH   1  23
BRANCH  18  45
HETATM   45  C28 UNL     1     -11.093  18.841 -14.856  1.00  0.00     0.038 C 
BRANCH  45  46
HETATM   46  C29 UNL     1     -12.033  18.534 -13.687  1.00  0.00    -0.020 C 
HETATM   47  C30 UNL     1     -12.385  19.815 -12.942  1.00  0.00     0.009 C 
HETATM   48  C31 UNL     1     -11.246  17.687 -12.688  1.00  0.00     0.009 C 
ENDBRANCH  45  46
ENDBRANCH  18  45
TORSDOF 12
ENDMDL
MODEL 3
REMARK VINA RESULT: -8.482045616      3.596      6.118
REMARK  12 active torsions:
REMARK  status: ('A' for Active; 'I' for Inactive)
REMARK    1  A    between atoms: C2_2  and  S1_3 
REMARK    2  A    between atoms: S1_3  and  C4_5 
REMARK    3  A    between atoms: C4_5  and  C5_6 
REMARK    4  A    between atoms: C5_6  and  N1_7 
REMARK    5  A    between atoms: N1_7  and  C8_10 
REMARK    6  A    between atoms: C8_10  and  C9_11 
REMARK    7  A    between atoms: C9_11  and  N2_12 
REMARK    8  A    between atoms: C12_15  and  N3_16 
REMARK       I    between atoms: N3_16  and  C13_18 
REMARK    9  A    between atoms: C13_18  and  C14_20 
REMARK   10  A    between atoms: C14_20  and  C15_21 
REMARK   11  A    between atoms: C27_38  and  C28_39 
REMARK   12  A    between atoms: C28_39  and  C29_40 
ROOT
HETATM    1  C15 UNL     1     -10.828  18.790 -18.240  1.00  0.00     0.086 C 
HETATM    2  C16 UNL     1     -10.207  18.398 -19.574  1.00  0.00     0.014 C 
HETATM    3  C17 UNL     1      -8.717  18.652 -19.583  1.00  0.00     0.002 C 
HETATM    4  C18 UNL     1      -8.071  17.731 -20.573  1.00  0.00     0.020 C 
HETATM    5  C19 UNL     1      -7.234  16.650 -19.931  1.00  0.00     0.125 C 
HETATM    6  N4  UNL     1      -6.118  17.179 -19.172  1.00  0.00    -0.356 N 
HETATM    7  C20 UNL     1      -5.433  18.342 -19.756  1.00  0.00     0.152 C 
HETATM    8  C21 UNL     1      -5.688  16.627 -17.930  1.00  0.00     0.219 C 
HETATM    9  O2  UNL     1      -5.157  17.426 -17.110  1.00  0.00    -0.273 OA
HETATM   10  C22 UNL     1      -5.838  15.189 -17.583  1.00  0.00     0.103 C 
HETATM   11  C23 UNL     1      -7.041  14.917 -16.740  1.00  0.00     0.011 C 
HETATM   12  C24 UNL     1      -6.743  14.895 -15.264  1.00  0.00     0.020 C 
HETATM   13  C25 UNL     1      -7.853  15.585 -14.460  1.00  0.00     0.122 C 
HETATM   14  N5  UNL     1      -7.745  17.018 -14.558  1.00  0.00    -0.359 N 
ATOM     15  H5  UNL     1      -6.869  17.434 -14.242  1.00  0.00     0.162 HD
HETATM   16  C26 UNL     1      -8.722  17.902 -15.045  1.00  0.00     0.240 C 
HETATM   17  O3  UNL     1      -8.342  19.042 -15.444  1.00  0.00    -0.271 OA
HETATM   18  C27 UNL     1     -10.173  17.612 -15.131  1.00  0.00     0.177 C 
HETATM   19  N6  UNL     1     -10.490  17.005 -16.398  1.00  0.00    -0.347 N 
ATOM     20  H6  UNL     1     -10.186  16.037 -16.504  1.00  0.00     0.163 HD
HETATM   21  C32 UNL     1     -11.147  17.541 -17.499  1.00  0.00     0.223 C 
HETATM   22  O4  UNL     1     -12.162  16.916 -17.973  1.00  0.00    -0.273 OA
ENDROOT
BRANCH   1  23
HETATM   23  C14 UNL     1     -12.111  19.505 -18.491  1.00  0.00     0.117 C 
BRANCH  23  24
HETATM   24  C13 UNL     1     -12.343  20.713 -17.703  1.00  0.00     0.218 C 
HETATM   25  N3  UNL     1     -13.639  20.990 -17.208  1.00  0.00    -0.356 N 
ATOM     26  H3  UNL     1     -14.396  20.337 -17.414  1.00  0.00     0.162 HD
HETATM   27  O1  UNL     1     -11.413  21.501 -17.459  1.00  0.00    -0.274 OA
BRANCH  25  28
HETATM   28  C12 UNL     1     -13.929  22.182 -16.412  1.00  0.00     0.087 C 
HETATM   29  C11 UNL     1     -13.711  21.859 -14.932  1.00  0.00     0.055 C 
HETATM   30  C10 UNL     1     -14.661  22.652 -14.088  1.00  0.00     0.274 C 
HETATM   31  N2  UNL     1     -16.043  22.224 -14.269  1.00  0.00     0.090 N 
HETATM   32  C34 UNL     1     -16.209  21.702 -15.590  1.00  0.00     0.274 C 
HETATM   33  C33 UNL     1     -15.396  22.498 -16.611  1.00  0.00     0.055 C 
BRANCH  31  34
HETATM   34  C9  UNL     1     -16.933  23.286 -13.922  1.00  0.00     0.300 C 
BRANCH  34  35
HETATM   35  C8  UNL     1     -16.675  23.911 -12.583  1.00  0.00     0.266 C 
BRANCH  35  36
HETATM   36  N1  UNL     1     -16.870  25.358 -12.644  1.00  0.00    -0.072 N 
HETATM   37  C6  UNL     1     -15.599  25.975 -12.399  1.00  0.00     0.272 C 
HETATM   38  C7  UNL     1     -17.487  25.768 -13.888  1.00  0.00     0.272 C 
BRANCH  36  39
HETATM   39  C5  UNL     1     -17.786  25.728 -11.577  1.00  0.00     0.245 C 
BRANCH  39  40
HETATM   40  C4  UNL     1     -17.997  24.580 -10.625  1.00  0.00     0.091 C 
BRANCH  40  41
HETATM   41  S1  UNL     1     -19.732  24.113 -10.591  1.00  0.00    -0.223 SA
HETATM   42  C3  UNL     1     -20.556  25.058 -11.862  1.00  0.00     0.078 C 
BRANCH  41  43
HETATM   43  C2  UNL     1     -20.389  24.666  -9.036  1.00  0.00     0.058 C 
HETATM   44  C1  UNL     1     -20.845  26.107  -9.179  1.00  0.00     0.015 C 
ENDBRANCH  41  43
ENDBRANCH  40  41
ENDBRANCH  39  40
ENDBRANCH  36  39
ENDBRANCH  35  36
ENDBRANCH  34  35
ENDBRANCH  31  34
ENDBRANCH  25  28
ENDBRANCH  23  24
ENDBRANCH   1  23
BRANCH  18  45
HETATM   45  C28 UNL     1     -11.017  18.813 -14.800  1.00  0.00     0.038 C 
BRANCH  45  46
HETATM   46  C29 UNL     1     -12.038  18.476 -13.710  1.00  0.00    -0.020 C 
HETATM   47  C30 UNL     1     -12.335  19.709 -12.866  1.00  0.00     0.009 C 
HETATM   48  C31 UNL     1     -11.370  17.484 -12.759  1.00  0.00     0.009 C 
ENDBRANCH  45  46
ENDBRANCH  18  45
TORSDOF 12
ENDMDL
MODEL 4
REMARK VINA RESULT: -8.345142843      1.848      2.901
REMARK  12 active torsions:
REMARK  status: ('A' for Active; 'I' for Inactive)
REMARK    1  A    between atoms: C2_2  and  S1_3 
REMARK    2  A    between atoms: S1_3  and  C4_5 
REMARK    3  A    between atoms: C4_5  and  C5_6 
REMARK    4  A    between atoms: C5_6  and  N1_7 
REMARK    5  A    between atoms: N1_7  and  C8_10 
REMARK    6  A    between atoms: C8_10  and  C9_11 
REMARK    7  A    between atoms: C9_11  and  N2_12 
REMARK    8  A    between atoms: C12_15  and  N3_16 
REMARK       I    between atoms: N3_16  and  C13_18 
REMARK    9  A    between atoms: C13_18  and  C14_20 
REMARK   10  A    between atoms: C14_20  and  C15_21 
REMARK   11  A    between atoms: C27_38  and  C28_39 
REMARK   12  A    between atoms: C28_39  and  C29_40 
ROOT
HETATM    1  C15 UNL     1      -7.051  17.257 -19.126  1.00  0.00     0.086 C 
HETATM    2  C16 UNL     1      -6.166  17.669 -20.294  1.00  0.00     0.014 C 
HETATM    3  C17 UNL     1      -4.937  18.408 -19.819  1.00  0.00     0.002 C 
HETATM    4  C18 UNL     1      -3.845  18.243 -20.833  1.00  0.00     0.020 C 
HETATM    5  C19 UNL     1      -2.712  17.363 -20.359  1.00  0.00     0.125 C 
HETATM    6  N4  UNL     1      -2.029  17.903 -19.200  1.00  0.00    -0.356 N 
HETATM    7  C20 UNL     1      -1.838  19.361 -19.183  1.00  0.00     0.152 C 
HETATM    8  C21 UNL     1      -1.559  17.093 -18.125  1.00  0.00     0.219 C 
HETATM    9  O2  UNL     1      -1.522  17.634 -16.985  1.00  0.00    -0.273 OA
HETATM   10  C22 UNL     1      -1.124  15.683 -18.297  1.00  0.00     0.103 C 
HETATM   11  C23 UNL     1      -2.190  14.698 -17.941  1.00  0.00     0.011 C 
HETATM   12  C24 UNL     1      -2.092  14.200 -16.523  1.00  0.00     0.020 C 
HETATM   13  C25 UNL     1      -3.478  14.081 -15.877  1.00  0.00     0.122 C 
HETATM   14  N5  UNL     1      -3.980  15.375 -15.490  1.00  0.00    -0.359 N 
ATOM     15  H5  UNL     1      -3.409  15.909 -14.835  1.00  0.00     0.162 HD
HETATM   16  C26 UNL     1      -5.173  15.977 -15.922  1.00  0.00     0.240 C 
HETATM   17  O3  UNL     1      -5.268  17.236 -15.827  1.00  0.00    -0.271 OA
HETATM   18  C27 UNL     1      -6.341  15.257 -16.484  1.00  0.00     0.177 C 
HETATM   19  N6  UNL     1      -6.212  15.132 -17.914  1.00  0.00    -0.347 N 
ATOM     20  H6  UNL     1      -5.515  14.457 -18.229  1.00  0.00     0.163 HD
HETATM   21  C32 UNL     1      -6.896  15.792 -18.927  1.00  0.00     0.223 C 
HETATM   22  O4  UNL     1      -7.483  15.094 -19.829  1.00  0.00    -0.273 OA
ENDROOT
BRANCH   1  23
HETATM   23  C14 UNL     1      -8.476  17.515 -19.479  1.00  0.00     0.117 C 
BRANCH  23  24
HETATM   24  C13 UNL     1      -9.129  18.614 -18.771  1.00  0.00     0.218 C 
HETATM   25  N3  UNL     1      -9.974  18.336 -17.672  1.00  0.00    -0.356 N 
ATOM     26  H3  UNL     1     -10.116  17.365 -17.392  1.00  0.00     0.162 HD
HETATM   27  O1  UNL     1      -8.949  19.793 -19.123  1.00  0.00    -0.274 OA
BRANCH  25  28
HETATM   28  C12 UNL     1     -10.652  19.395 -16.925  1.00  0.00     0.087 C 
HETATM   29  C11 UNL     1     -10.253  19.301 -15.451  1.00  0.00     0.055 C 
HETATM   30  C10 UNL     1     -11.387  19.748 -14.581  1.00  0.00     0.274 C 
HETATM   31  N2  UNL     1     -12.512  18.822 -14.628  1.00  0.00     0.090 N 
HETATM   32  C34 UNL     1     -12.536  18.169 -15.900  1.00  0.00     0.274 C 
HETATM   33  C33 UNL     1     -12.137  19.123 -17.025  1.00  0.00     0.055 C 
BRANCH  31  34
HETATM   34  C9  UNL     1     -13.717  19.500 -14.273  1.00  0.00     0.300 C 
BRANCH  34  35
HETATM   35  C8  UNL     1     -13.555  20.961 -13.978  1.00  0.00     0.266 C 
BRANCH  35  36
HETATM   36  N1  UNL     1     -14.491  21.754 -14.774  1.00  0.00    -0.072 N 
HETATM   37  C6  UNL     1     -13.811  22.146 -15.974  1.00  0.00     0.272 C 
HETATM   38  C7  UNL     1     -15.732  21.049 -15.010  1.00  0.00     0.272 C 
BRANCH  36  39
HETATM   39  C5  UNL     1     -14.822  22.947 -14.011  1.00  0.00     0.245 C 
BRANCH  39  40
HETATM   40  C4  UNL     1     -16.309  23.053 -13.792  1.00  0.00     0.091 C 
BRANCH  40  41
HETATM   41  S1  UNL     1     -16.653  24.063 -12.347  1.00  0.00    -0.223 SA
HETATM   42  C3  UNL     1     -18.388  23.875 -11.973  1.00  0.00     0.078 C 
BRANCH  41  43
HETATM   43  C2  UNL     1     -16.413  25.757 -12.826  1.00  0.00     0.058 C 
HETATM   44  C1  UNL     1     -17.521  26.158 -13.784  1.00  0.00     0.015 C 
ENDBRANCH  41  43
ENDBRANCH  40  41
ENDBRANCH  39  40
ENDBRANCH  36  39
ENDBRANCH  35  36
ENDBRANCH  34  35
ENDBRANCH  31  34
ENDBRANCH  25  28
ENDBRANCH  23  24
ENDBRANCH   1  23
BRANCH  18  45
HETATM   45  C28 UNL     1      -7.648  15.852 -16.037  1.00  0.00     0.038 C 
BRANCH  45  46
HETATM   46  C29 UNL     1      -7.845  15.664 -14.531  1.00  0.00    -0.020 C 
HETATM   47  C30 UNL     1      -7.713  14.192 -14.161  1.00  0.00     0.009 C 
HETATM   48  C31 UNL     1      -9.295  16.033 -14.217  1.00  0.00     0.009 C 
ENDBRANCH  45  46
ENDBRANCH  18  45
TORSDOF 12
ENDMDL
MODEL 5
REMARK VINA RESULT: -7.973340113      1.777      2.852
REMARK  12 active torsions:
REMARK  status: ('A' for Active; 'I' for Inactive)
REMARK    1  A    between atoms: C2_2  and  S1_3 
REMARK    2  A    between atoms: S1_3  and  C4_5 
REMARK    3  A    between atoms: C4_5  and  C5_6 
REMARK    4  A    between atoms: C5_6  and  N1_7 
REMARK    5  A    between atoms: N1_7  and  C8_10 
REMARK    6  A    between atoms: C8_10  and  C9_11 
REMARK    7  A    between atoms: C9_11  and  N2_12 
REMARK    8  A    between atoms: C12_15  and  N3_16 
REMARK       I    between atoms: N3_16  and  C13_18 
REMARK    9  A    between atoms: C13_18  and  C14_20 
REMARK   10  A    between atoms: C14_20  and  C15_21 
REMARK   11  A    between atoms: C27_38  and  C28_39 
REMARK   12  A    between atoms: C28_39  and  C29_40 
ROOT
HETATM    1  C15 UNL     1      -6.755  17.169 -18.644  1.00  0.00     0.086 C 
HETATM    2  C16 UNL     1      -6.154  17.526 -19.996  1.00  0.00     0.014 C 
HETATM    3  C17 UNL     1      -4.873  18.313 -19.838  1.00  0.00     0.002 C 
HETATM    4  C18 UNL     1      -4.021  18.108 -21.053  1.00  0.00     0.020 C 
HETATM    5  C19 UNL     1      -2.787  17.276 -20.789  1.00  0.00     0.125 C 
HETATM    6  N4  UNL     1      -1.887  17.895 -19.835  1.00  0.00    -0.356 N 
HETATM    7  C20 UNL     1      -1.740  19.354 -19.937  1.00  0.00     0.152 C 
HETATM    8  C21 UNL     1      -1.173  17.157 -18.845  1.00  0.00     0.219 C 
HETATM    9  O2  UNL     1      -0.909  17.764 -17.771  1.00  0.00    -0.273 OA
HETATM   10  C22 UNL     1      -0.745  15.747 -19.031  1.00  0.00     0.103 C 
HETATM   11  C23 UNL     1      -1.680  14.766 -18.401  1.00  0.00     0.011 C 
HETATM   12  C24 UNL     1      -1.266  14.354 -17.014  1.00  0.00     0.020 C 
HETATM   13  C25 UNL     1      -2.477  14.249 -16.078  1.00  0.00     0.122 C 
HETATM   14  N5  UNL     1      -2.922  15.555 -15.662  1.00  0.00    -0.359 N 
ATOM     15  H5  UNL     1      -2.240  16.136 -15.174  1.00  0.00     0.162 HD
HETATM   16  C26 UNL     1      -4.196  16.111 -15.857  1.00  0.00     0.240 C 
HETATM   17  O3  UNL     1      -4.306  17.371 -15.812  1.00  0.00    -0.271 OA
HETATM   18  C27 UNL     1      -5.436  15.340 -16.115  1.00  0.00     0.177 C 
HETATM   19  N6  UNL     1      -5.614  15.133 -17.530  1.00  0.00    -0.347 N 
ATOM     20  H6  UNL     1      -4.981  14.453 -17.952  1.00  0.00     0.163 HD
HETATM   21  C32 UNL     1      -6.518  15.721 -18.405  1.00  0.00     0.223 C 
HETATM   22  O4  UNL     1      -7.265  14.961 -19.121  1.00  0.00    -0.273 OA
ENDROOT
BRANCH   1  23
HETATM   23  C14 UNL     1      -8.229  17.382 -18.695  1.00  0.00     0.117 C 
BRANCH  23  24
HETATM   24  C13 UNL     1      -8.691  18.757 -18.516  1.00  0.00     0.218 C 
HETATM   25  N3  UNL     1      -9.807  19.019 -17.689  1.00  0.00    -0.356 N 
ATOM     26  H3  UNL     1     -10.276  18.238 -17.229  1.00  0.00     0.162 HD
HETATM   27  O1  UNL     1      -8.111  19.700 -19.082  1.00  0.00    -0.274 OA
BRANCH  25  28
HETATM   28  C12 UNL     1     -10.312  20.375 -17.471  1.00  0.00     0.087 C 
HETATM   29  C11 UNL     1     -11.193  20.386 -16.220  1.00  0.00     0.055 C 
HETATM   30  C10 UNL     1     -12.285  21.399 -16.369  1.00  0.00     0.274 C 
HETATM   31  N2  UNL     1     -13.252  21.016 -17.391  1.00  0.00     0.090 N 
HETATM   32  C34 UNL     1     -12.602  20.218 -18.383  1.00  0.00     0.274 C 
HETATM   33  C33 UNL     1     -11.184  20.716 -18.660  1.00  0.00     0.055 C 
BRANCH  31  34
HETATM   34  C9  UNL     1     -13.921  22.176 -17.889  1.00  0.00     0.300 C 
BRANCH  34  35
HETATM   35  C8  UNL     1     -14.351  22.088 -19.323  1.00  0.00     0.266 C 
BRANCH  35  36
HETATM   36  N1  UNL     1     -14.107  23.355 -20.011  1.00  0.00    -0.072 N 
HETATM   37  C6  UNL     1     -13.597  24.280 -19.043  1.00  0.00     0.272 C 
HETATM   38  C7  UNL     1     -13.250  23.186 -21.165  1.00  0.00     0.272 C 
BRANCH  36  39
HETATM   39  C5  UNL     1     -15.385  23.845 -20.503  1.00  0.00     0.245 C 
BRANCH  39  40
HETATM   40  C4  UNL     1     -15.802  25.094 -19.770  1.00  0.00     0.091 C 
BRANCH  40  41
HETATM   41  S1  UNL     1     -17.503  24.947 -19.214  1.00  0.00    -0.223 SA
HETATM   42  C3  UNL     1     -17.800  26.280 -18.064  1.00  0.00     0.078 C 
BRANCH  41  43
HETATM   43  C2  UNL     1     -17.619  23.437 -18.286  1.00  0.00     0.058 C 
HETATM   44  C1  UNL     1     -17.074  23.675 -16.888  1.00  0.00     0.015 C 
ENDBRANCH  41  43
ENDBRANCH  40  41
ENDBRANCH  39  40
ENDBRANCH  36  39
ENDBRANCH  35  36
ENDBRANCH  34  35
ENDBRANCH  31  34
ENDBRANCH  25  28
ENDBRANCH  23  24
ENDBRANCH   1  23
BRANCH  18  45
HETATM   45  C28 UNL     1      -6.634  15.936 -15.429  1.00  0.00     0.038 C 
BRANCH  45  46
HETATM   46  C29 UNL     1      -7.677  14.859 -15.119  1.00  0.00    -0.020 C 
HETATM   47  C30 UNL     1      -8.881  15.475 -14.418  1.00  0.00     0.009 C 
HETATM   48  C31 UNL     1      -7.053  13.912 -14.094  1.00  0.00     0.009 C 
ENDBRANCH  45  46
ENDBRANCH  18  45
TORSDOF 12
ENDMDL
