MODEL 1
REMARK VINA RESULT: -10.851085040      0.000      0.000
REMARK  12 active torsions:
REMARK  status: ('A' for Active; 'I' for Inactive)
REMARK       I    between atoms: N1_2  and  C2_4 
REMARK    1  A    between atoms: N3_6  and  C3_8 
REMARK    2  A    between atoms: C3_8  and  C4_9 
REMARK       I    between atoms: C4_9  and  N4_11 
REMARK    3  A    between atoms: N4_11  and  C5_13 
REMARK    4  A    between atoms: C5_13  and  C7_15 
REMARK       I    between atoms: N5_16  and  C8_18 
REMARK    5  A    between atoms: C8_18  and  C9_20 
REMARK    6  A    between atoms: C14_25  and  C15_26 
REMARK       I    between atoms: C15_26  and  N6_28 
REMARK    7  A    between atoms: N6_28  and  C16_30 
REMARK    8  A    between atoms: C16_30  and  C17_31 
REMARK    9  A    between atoms: C16_30  and  C25_39 
REMARK   10  A    between atoms: C17_31  and  C18_32 
REMARK   11  A    between atoms: C18_32  and  C19_33 
REMARK       I    between atoms: C25_39  and  N7_41 
REMARK   12  A    between atoms: C29_45  and  C30_46 
REMARK       I    between atoms: C30_46  and  N8_48 
ROOT
HETATM    1  C15 UNL     1      -9.958  17.775 -17.965  1.00  0.00     0.223 C 
HETATM    2  O3  UNL     1     -10.887  16.940 -17.866  1.00  0.00    -0.273 OA
HETATM    3  N6  UNL     1      -9.612  18.557 -16.857  1.00  0.00    -0.347 N 
ATOM      4  H6  UNL     1      -8.862  19.245 -16.918  1.00  0.00     0.163 HD
ENDROOT
BRANCH   1   5
HETATM    5  C14 UNL     1      -9.253  17.912 -19.242  1.00  0.00     0.091 C 
HETATM    6  C9  UNL     1     -10.023  18.514 -20.365  1.00  0.00     0.091 C 
HETATM    7  C10 UNL     1      -9.234  18.311 -21.643  1.00  0.00     0.015 C 
HETATM    8  C11 UNL     1      -7.802  17.919 -21.414  1.00  0.00     0.001 C 
HETATM    9  C12 UNL     1      -7.109  18.659 -20.319  1.00  0.00     0.001 C 
HETATM   10  C13 UNL     1      -7.887  18.576 -19.059  1.00  0.00     0.015 C 
BRANCH   6  11
HETATM   11  C8  UNL     1     -10.485  19.886 -20.204  1.00  0.00     0.226 C 
HETATM   12  N5  UNL     1     -11.865  20.177 -20.140  1.00  0.00    -0.338 N 
HETATM   13  C7  UNL     1     -12.463  20.642 -19.112  1.00  0.00     0.088 C 
ATOM     14  H5  UNL     1     -12.425  20.003 -20.975  1.00  0.00     0.167 HD
HETATM   15  O2  UNL     1      -9.678  20.843 -20.118  1.00  0.00    -0.273 OA
BRANCH  13  16
HETATM   16  C5  UNL     1     -13.926  20.918 -19.146  1.00  0.00     0.119 C 
HETATM   17  C6  UNL     1     -14.603  20.213 -18.002  1.00  0.00     0.038 C 
BRANCH  16  18
HETATM   18  N4  UNL     1     -14.121  22.357 -19.103  1.00  0.00    -0.351 N 
HETATM   19  C4  UNL     1     -14.008  23.186 -20.232  1.00  0.00     0.235 C 
HETATM   20  O1  UNL     1     -13.724  22.699 -21.351  1.00  0.00    -0.272 OA
ATOM     21  H4  UNL     1     -14.352  22.788 -18.208  1.00  0.00     0.163 HD
BRANCH  19  22
HETATM   22  C3  UNL     1     -14.225  24.651 -20.120  1.00  0.00     0.225 C 
BRANCH  22  23
HETATM   23  N3  UNL     1     -15.432  24.900 -19.361  1.00  0.00    -0.356 N 
HETATM   24  C2  UNL     1     -16.609  24.749 -19.826  1.00  0.00     0.184 C 
HETATM   25  N1  UNL     1     -17.723  25.021 -18.993  1.00  0.00    -0.369 N 
HETATM   26  N2  UNL     1     -16.789  24.317 -21.159  1.00  0.00    -0.064 NA
HETATM   27  C1  UNL     1     -17.986  26.338 -18.482  1.00  0.00     0.148 C 
ATOM     28  H1  UNL     1     -18.357  24.261 -18.750  1.00  0.00     0.161 HD
ATOM     29  H3  UNL     1     -15.335  25.215 -18.395  1.00  0.00     0.162 HD
ENDBRANCH  22  23
ENDBRANCH  19  22
ENDBRANCH  16  18
ENDBRANCH  13  16
ENDBRANCH   6  11
ENDBRANCH   1   5
BRANCH   3  30
HETATM   30  C16 UNL     1     -10.359  18.363 -15.596  1.00  0.00     0.176 C 
BRANCH  30  31
HETATM   31  C17 UNL     1      -9.323  18.272 -14.469  1.00  0.00     0.035 C 
BRANCH  31  32
HETATM   32  C18 UNL     1      -8.986  16.880 -14.069  1.00  0.00     0.007 C 
BRANCH  32  33
HETATM   33  C19 UNL     1      -8.559  15.970 -15.170  1.00  0.00    -0.014 C 
HETATM   34  C20 UNL     1      -7.103  16.253 -15.486  1.00  0.00     0.004 C 
HETATM   35  C21 UNL     1      -6.337  14.994 -15.830  1.00  0.00     0.000 C 
HETATM   36  C22 UNL     1      -6.209  14.155 -14.577  1.00  0.00     0.000 C 
HETATM   37  C23 UNL     1      -7.503  14.153 -13.792  1.00  0.00     0.000 C 
HETATM   38  C24 UNL     1      -8.616  14.507 -14.759  1.00  0.00     0.004 C 
ENDBRANCH  32  33
ENDBRANCH  31  32
ENDBRANCH  30  31
BRANCH  30  39
HETATM   39  C25 UNL     1     -11.164  19.568 -15.295  1.00  0.00     0.243 C 
HETATM   40  O4  UNL     1     -11.001  20.570 -16.075  1.00  0.00    -0.271 OA
HETATM   41  N7  UNL     1     -12.085  19.720 -14.245  1.00  0.00    -0.337 N 
HETATM   42  C26 UNL     1     -12.496  18.739 -13.272  1.00  0.00     0.127 C 
HETATM   43  C29 UNL     1     -12.841  20.936 -13.891  1.00  0.00     0.179 C 
HETATM   44  C27 UNL     1     -12.744  19.503 -12.011  1.00  0.00     0.022 C 
HETATM   45  C28 UNL     1     -12.709  20.951 -12.411  1.00  0.00     0.037 C 
BRANCH  43  46
HETATM   46  C30 UNL     1     -14.199  20.858 -14.425  1.00  0.00     0.242 C 
HETATM   47  O5  UNL     1     -14.611  19.799 -14.958  1.00  0.00    -0.271 OA
HETATM   48  N8  UNL     1     -15.101  21.950 -14.369  1.00  0.00    -0.350 N 
HETATM   49  C31 UNL     1     -16.473  21.985 -14.857  1.00  0.00     0.126 C 
HETATM   50  C34 UNL     1     -14.911  23.297 -13.830  1.00  0.00     0.126 C 
HETATM   51  C32 UNL     1     -17.198  22.787 -13.794  1.00  0.00     0.021 C 
HETATM   52  C33 UNL     1     -16.101  23.405 -12.920  1.00  0.00     0.021 C 
ENDBRANCH  43  46
ENDBRANCH  30  39
ENDBRANCH   3  30
TORSDOF 12
ENDMDL
MODEL 2
REMARK VINA RESULT: -10.316194527      2.965      9.515
REMARK  12 active torsions:
REMARK  status: ('A' for Active; 'I' for Inactive)
REMARK       I    between atoms: N1_2  and  C2_4 
REMARK    1  A    between atoms: N3_6  and  C3_8 
REMARK    2  A    between atoms: C3_8  and  C4_9 
REMARK       I    between atoms: C4_9  and  N4_11 
REMARK    3  A    between atoms: N4_11  and  C5_13 
REMARK    4  A    between atoms: C5_13  and  C7_15 
REMARK       I    between atoms: N5_16  and  C8_18 
REMARK    5  A    between atoms: C8_18  and  C9_20 
REMARK    6  A    between atoms: C14_25  and  C15_26 
REMARK       I    between atoms: C15_26  and  N6_28 
REMARK    7  A    between atoms: N6_28  and  C16_30 
REMARK    8  A    between atoms: C16_30  and  C17_31 
REMARK    9  A    between atoms: C16_30  and  C25_39 
REMARK   10  A    between atoms: C17_31  and  C18_32 
REMARK   11  A    between atoms: C18_32  and  C19_33 
REMARK       I    between atoms: C25_39  and  N7_41 
REMARK   12  A    between atoms: C29_45  and  C30_46 
REMARK       I    between atoms: C30_46  and  N8_48 
ROOT
HETATM    1  C15 UNL     1     -10.176  20.150 -19.083  1.00  0.00     0.223 C 
HETATM    2  O3  UNL     1      -9.801  20.992 -18.235  1.00  0.00    -0.273 OA
HETATM    3  N6  UNL     1     -11.543  19.989 -19.337  1.00  0.00    -0.347 N 
ATOM      4  H6  UNL     1     -11.869  19.306 -20.021  1.00  0.00     0.163 HD
ENDROOT
BRANCH   1   5
HETATM    5  C14 UNL     1      -9.172  19.351 -19.792  1.00  0.00     0.091 C 
HETATM    6  C9  UNL     1      -8.275  18.514 -18.950  1.00  0.00     0.091 C 
HETATM    7  C10 UNL     1      -7.150  17.998 -19.824  1.00  0.00     0.015 C 
HETATM    8  C11 UNL     1      -7.412  18.142 -21.296  1.00  0.00     0.001 C 
HETATM    9  C12 UNL     1      -8.798  17.797 -21.730  1.00  0.00     0.001 C 
HETATM   10  C13 UNL     1      -9.797  18.555 -20.938  1.00  0.00     0.015 C 
BRANCH   6  11
HETATM   11  C8  UNL     1      -8.891  17.460 -18.153  1.00  0.00     0.226 C 
HETATM   12  N5  UNL     1      -8.101  16.629 -17.328  1.00  0.00    -0.338 N 
HETATM   13  C7  UNL     1      -8.160  16.603 -16.053  1.00  0.00     0.088 C 
ATOM     14  H5  UNL     1      -7.436  16.004 -17.784  1.00  0.00     0.167 HD
HETATM   15  O2  UNL     1     -10.129  17.262 -18.174  1.00  0.00    -0.273 OA
BRANCH  13  16
HETATM   16  C5  UNL     1      -7.285  15.688 -15.272  1.00  0.00     0.119 C 
HETATM   17  C6  UNL     1      -8.100  14.549 -14.720  1.00  0.00     0.038 C 
BRANCH  16  18
HETATM   18  N4  UNL     1      -6.212  15.231 -16.139  1.00  0.00    -0.351 N 
HETATM   19  C4  UNL     1      -5.022  15.951 -16.341  1.00  0.00     0.235 C 
HETATM   20  O1  UNL     1      -4.839  17.049 -15.765  1.00  0.00    -0.272 OA
ATOM     21  H4  UNL     1      -6.328  14.342 -16.625  1.00  0.00     0.163 HD
BRANCH  19  22
HETATM   22  C3  UNL     1      -3.963  15.425 -17.239  1.00  0.00     0.225 C 
BRANCH  22  23
HETATM   23  N3  UNL     1      -3.917  13.982 -17.131  1.00  0.00    -0.356 N 
HETATM   24  C2  UNL     1      -3.149  13.352 -16.332  1.00  0.00     0.184 C 
HETATM   25  N1  UNL     1      -3.186  11.936 -16.309  1.00  0.00    -0.369 N 
HETATM   26  N2  UNL     1      -2.272  14.068 -15.486  1.00  0.00    -0.064 NA
HETATM   27  C1  UNL     1      -2.812  11.146 -17.449  1.00  0.00     0.148 C 
ATOM     28  H1  UNL     1      -3.486  11.462 -15.457  1.00  0.00     0.161 HD
ATOM     29  H3  UNL     1      -4.537  13.436 -17.730  1.00  0.00     0.162 HD
ENDBRANCH  22  23
ENDBRANCH  19  22
ENDBRANCH  16  18
ENDBRANCH  13  16
ENDBRANCH   6  11
ENDBRANCH   1   5
BRANCH   3  30
HETATM   30  C16 UNL     1     -12.503  20.831 -18.593  1.00  0.00     0.176 C 
BRANCH  30  31
HETATM   31  C17 UNL     1     -13.691  21.094 -19.528  1.00  0.00     0.035 C 
BRANCH  31  32
HETATM   32  C18 UNL     1     -13.384  22.024 -20.647  1.00  0.00     0.007 C 
BRANCH  32  33
HETATM   33  C19 UNL     1     -13.607  23.472 -20.372  1.00  0.00    -0.014 C 
HETATM   34  C20 UNL     1     -14.493  24.036 -21.466  1.00  0.00     0.004 C 
HETATM   35  C21 UNL     1     -15.472  25.062 -20.939  1.00  0.00     0.000 C 
HETATM   36  C22 UNL     1     -16.489  24.353 -20.073  1.00  0.00     0.000 C 
HETATM   37  C23 UNL     1     -15.824  23.312 -19.198  1.00  0.00     0.000 C 
HETATM   38  C24 UNL     1     -14.363  23.698 -19.072  1.00  0.00     0.004 C 
ENDBRANCH  32  33
ENDBRANCH  31  32
ENDBRANCH  30  31
BRANCH  30  39
HETATM   39  C25 UNL     1     -13.061  20.073 -17.451  1.00  0.00     0.243 C 
HETATM   40  O4  UNL     1     -12.983  18.798 -17.523  1.00  0.00    -0.271 OA
HETATM   41  N7  UNL     1     -13.662  20.612 -16.302  1.00  0.00    -0.337 N 
HETATM   42  C26 UNL     1     -13.820  22.001 -15.946  1.00  0.00     0.127 C 
HETATM   43  C29 UNL     1     -14.285  19.870 -15.190  1.00  0.00     0.179 C 
HETATM   44  C27 UNL     1     -15.121  22.083 -15.215  1.00  0.00     0.022 C 
HETATM   45  C28 UNL     1     -15.524  20.658 -14.959  1.00  0.00     0.037 C 
BRANCH  43  46
HETATM   46  C30 UNL     1     -13.356  19.771 -14.067  1.00  0.00     0.242 C 
HETATM   47  O5  UNL     1     -13.539  20.456 -13.030  1.00  0.00    -0.271 OA
HETATM   48  N8  UNL     1     -12.224  18.917 -14.088  1.00  0.00    -0.350 N 
HETATM   49  C31 UNL     1     -11.240  18.732 -13.031  1.00  0.00     0.126 C 
HETATM   50  C34 UNL     1     -11.745  18.022 -15.142  1.00  0.00     0.126 C 
HETATM   51  C32 UNL     1     -10.961  17.242 -13.076  1.00  0.00     0.021 C 
HETATM   52  C33 UNL     1     -11.601  16.739 -14.375  1.00  0.00     0.021 C 
ENDBRANCH  43  46
ENDBRANCH  30  39
ENDBRANCH   3  30
TORSDOF 12
ENDMDL
MODEL 3
REMARK VINA RESULT: -10.315210657      2.401      8.755
REMARK  12 active torsions:
REMARK  status: ('A' for Active; 'I' for Inactive)
REMARK       I    between atoms: N1_2  and  C2_4 
REMARK    1  A    between atoms: N3_6  and  C3_8 
REMARK    2  A    between atoms: C3_8  and  C4_9 
REMARK       I    between atoms: C4_9  and  N4_11 
REMARK    3  A    between atoms: N4_11  and  C5_13 
REMARK    4  A    between atoms: C5_13  and  C7_15 
REMARK       I    between atoms: N5_16  and  C8_18 
REMARK    5  A    between atoms: C8_18  and  C9_20 
REMARK    6  A    between atoms: C14_25  and  C15_26 
REMARK       I    between atoms: C15_26  and  N6_28 
REMARK    7  A    between atoms: N6_28  and  C16_30 
REMARK    8  A    between atoms: C16_30  and  C17_31 
REMARK    9  A    between atoms: C16_30  and  C25_39 
REMARK   10  A    between atoms: C17_31  and  C18_32 
REMARK   11  A    between atoms: C18_32  and  C19_33 
REMARK       I    between atoms: C25_39  and  N7_41 
REMARK   12  A    between atoms: C29_45  and  C30_46 
REMARK       I    between atoms: C30_46  and  N8_48 
ROOT
HETATM    1  C15 UNL     1     -12.126  22.140 -17.102  1.00  0.00     0.223 C 
HETATM    2  O3  UNL     1     -10.960  22.311 -16.678  1.00  0.00    -0.273 OA
HETATM    3  N6  UNL     1     -12.998  21.300 -16.401  1.00  0.00    -0.347 N 
ATOM      4  H6  UNL     1     -13.951  21.144 -16.732  1.00  0.00     0.163 HD
ENDROOT
BRANCH   1   5
HETATM    5  C14 UNL     1     -12.551  22.827 -18.325  1.00  0.00     0.091 C 
HETATM    6  C9  UNL     1     -11.975  22.326 -19.602  1.00  0.00     0.091 C 
HETATM    7  C10 UNL     1     -12.306  23.323 -20.695  1.00  0.00     0.015 C 
HETATM    8  C11 UNL     1     -13.377  24.305 -20.314  1.00  0.00     0.001 C 
HETATM    9  C12 UNL     1     -14.537  23.722 -19.577  1.00  0.00     0.001 C 
HETATM   10  C13 UNL     1     -14.074  22.961 -18.392  1.00  0.00     0.015 C 
BRANCH   6  11
HETATM   11  C8  UNL     1     -12.282  20.955 -19.986  1.00  0.00     0.226 C 
HETATM   12  N5  UNL     1     -11.262  20.091 -20.442  1.00  0.00    -0.338 N 
HETATM   13  C7  UNL     1     -10.868  19.043 -19.827  1.00  0.00     0.088 C 
ATOM     14  H5  UNL     1     -10.807  20.319 -21.325  1.00  0.00     0.167 HD
HETATM   15  O2  UNL     1     -13.451  20.503 -19.924  1.00  0.00    -0.273 OA
BRANCH  13  16
HETATM   16  C5  UNL     1      -9.784  18.195 -20.392  1.00  0.00     0.119 C 
HETATM   17  C6  UNL     1      -9.429  18.675 -21.774  1.00  0.00     0.038 C 
BRANCH  16  18
HETATM   18  N4  UNL     1      -8.650  18.236 -19.483  1.00  0.00    -0.351 N 
HETATM   19  C4  UNL     1      -7.563  17.350 -19.565  1.00  0.00     0.235 C 
HETATM   20  O1  UNL     1      -7.531  16.463 -20.450  1.00  0.00    -0.272 OA
ATOM     21  H4  UNL     1      -8.644  18.943 -18.749  1.00  0.00     0.163 HD
BRANCH  19  22
HETATM   22  C3  UNL     1      -6.433  17.449 -18.606  1.00  0.00     0.225 C 
BRANCH  22  23
HETATM   23  N3  UNL     1      -5.496  18.450 -19.071  1.00  0.00    -0.356 N 
HETATM   24  C2  UNL     1      -4.319  18.187 -19.480  1.00  0.00     0.184 C 
HETATM   25  N1  UNL     1      -3.483  19.246 -19.914  1.00  0.00    -0.369 N 
HETATM   26  N2  UNL     1      -3.860  16.850 -19.494  1.00  0.00    -0.064 NA
HETATM   27  C1  UNL     1      -3.049  20.286 -19.023  1.00  0.00     0.148 C 
ATOM     28  H1  UNL     1      -3.181  19.271 -20.888  1.00  0.00     0.161 HD
ATOM     29  H3  UNL     1      -5.797  19.425 -19.071  1.00  0.00     0.162 HD
ENDBRANCH  22  23
ENDBRANCH  19  22
ENDBRANCH  16  18
ENDBRANCH  13  16
ENDBRANCH   6  11
ENDBRANCH   1   5
BRANCH   3  30
HETATM   30  C16 UNL     1     -12.509  20.643 -15.170  1.00  0.00     0.176 C 
BRANCH  30  31
HETATM   31  C17 UNL     1     -13.692  20.571 -14.197  1.00  0.00     0.035 C 
BRANCH  31  32
HETATM   32  C18 UNL     1     -13.901  21.814 -13.408  1.00  0.00     0.007 C 
BRANCH  32  33
HETATM   33  C19 UNL     1     -14.679  22.893 -14.082  1.00  0.00    -0.014 C 
HETATM   34  C20 UNL     1     -15.949  22.285 -14.646  1.00  0.00     0.004 C 
HETATM   35  C21 UNL     1     -17.132  23.221 -14.530  1.00  0.00     0.000 C 
HETATM   36  C22 UNL     1     -17.494  23.355 -13.067  1.00  0.00     0.000 C 
HETATM   37  C23 UNL     1     -16.251  23.474 -12.210  1.00  0.00     0.000 C 
HETATM   38  C24 UNL     1     -15.132  23.967 -13.107  1.00  0.00     0.004 C 
ENDBRANCH  32  33
ENDBRANCH  31  32
ENDBRANCH  30  31
BRANCH  30  39
HETATM   39  C25 UNL     1     -12.148  19.236 -15.458  1.00  0.00     0.243 C 
HETATM   40  O4  UNL     1     -12.676  18.716 -16.501  1.00  0.00    -0.271 OA
HETATM   41  N7  UNL     1     -11.288  18.422 -14.703  1.00  0.00    -0.337 N 
HETATM   42  C26 UNL     1     -10.525  18.775 -13.532  1.00  0.00     0.127 C 
HETATM   43  C29 UNL     1     -10.975  16.999 -14.937  1.00  0.00     0.179 C 
HETATM   44  C27 UNL     1     -10.496  17.544 -12.684  1.00  0.00     0.022 C 
HETATM   45  C28 UNL     1     -11.039  16.448 -13.558  1.00  0.00     0.037 C 
BRANCH  43  46
HETATM   46  C30 UNL     1      -9.696  16.872 -15.632  1.00  0.00     0.242 C 
HETATM   47  O5  UNL     1      -9.342  17.738 -16.470  1.00  0.00    -0.271 OA
HETATM   48  N8  UNL     1      -8.810  15.790 -15.401  1.00  0.00    -0.350 N 
HETATM   49  C31 UNL     1      -7.513  15.566 -16.026  1.00  0.00     0.126 C 
HETATM   50  C34 UNL     1      -8.948  14.638 -14.510  1.00  0.00     0.126 C 
HETATM   51  C32 UNL     1      -6.669  15.032 -14.886  1.00  0.00     0.021 C 
HETATM   52  C33 UNL     1      -7.653  14.713 -13.754  1.00  0.00     0.021 C 
ENDBRANCH  43  46
ENDBRANCH  30  39
ENDBRANCH   3  30
TORSDOF 12
ENDMDL
MODEL 4
REMARK VINA RESULT: -10.218050757      2.780      8.995
REMARK  12 active torsions:
REMARK  status: ('A' for Active; 'I' for Inactive)
REMARK       I    between atoms: N1_2  and  C2_4 
REMARK    1  A    between atoms: N3_6  and  C3_8 
REMARK    2  A    between atoms: C3_8  and  C4_9 
REMARK       I    between atoms: C4_9  and  N4_11 
REMARK    3  A    between atoms: N4_11  and  C5_13 
REMARK    4  A    between atoms: C5_13  and  C7_15 
REMARK       I    between atoms: N5_16  and  C8_18 
REMARK    5  A    between atoms: C8_18  and  C9_20 
REMARK    6  A    between atoms: C14_25  and  C15_26 
REMARK       I    between atoms: C15_26  and  N6_28 
REMARK    7  A    between atoms: N6_28  and  C16_30 
REMARK    8  A    between atoms: C16_30  and  C17_31 
REMARK    9  A    between atoms: C16_30  and  C25_39 
REMARK   10  A    between atoms: C17_31  and  C18_32 
REMARK   11  A    between atoms: C18_32  and  C19_33 
REMARK       I    between atoms: C25_39  and  N7_41 
REMARK   12  A    between atoms: C29_45  and  C30_46 
REMARK       I    between atoms: C30_46  and  N8_48 
ROOT
HETATM    1  C15 UNL     1     -10.189  20.176 -19.129  1.00  0.00     0.223 C 
HETATM    2  O3  UNL     1      -9.807  21.060 -18.328  1.00  0.00    -0.273 OA
HETATM    3  N6  UNL     1     -11.559  19.979 -19.335  1.00  0.00    -0.347 N 
ATOM      4  H6  UNL     1     -11.891  19.262 -19.980  1.00  0.00     0.163 HD
ENDROOT
BRANCH   1   5
HETATM    5  C14 UNL     1      -9.190  19.367 -19.833  1.00  0.00     0.091 C 
HETATM    6  C9  UNL     1      -8.247  18.590 -18.984  1.00  0.00     0.091 C 
HETATM    7  C10 UNL     1      -7.139  18.058 -19.871  1.00  0.00     0.015 C 
HETATM    8  C11 UNL     1      -7.452  18.128 -21.338  1.00  0.00     0.001 C 
HETATM    9  C12 UNL     1      -8.843  17.732 -21.708  1.00  0.00     0.001 C 
HETATM   10  C13 UNL     1      -9.834  18.505 -20.920  1.00  0.00     0.015 C 
BRANCH   6  11
HETATM   11  C8  UNL     1      -8.812  17.562 -18.119  1.00  0.00     0.226 C 
HETATM   12  N5  UNL     1      -7.997  16.876 -17.192  1.00  0.00    -0.338 N 
HETATM   13  C7  UNL     1      -8.113  16.957 -15.923  1.00  0.00     0.088 C 
ATOM     14  H5  UNL     1      -7.263  16.272 -17.563  1.00  0.00     0.167 HD
HETATM   15  O2  UNL     1     -10.028  17.259 -18.170  1.00  0.00    -0.273 OA
BRANCH  13  16
HETATM   16  C5  UNL     1      -7.203  16.190 -15.028  1.00  0.00     0.119 C 
HETATM   17  C6  UNL     1      -8.000  15.211 -14.209  1.00  0.00     0.038 C 
BRANCH  16  18
HETATM   18  N4  UNL     1      -6.198  15.536 -15.850  1.00  0.00    -0.351 N 
HETATM   19  C4  UNL     1      -4.977  16.137 -16.200  1.00  0.00     0.235 C 
HETATM   20  O1  UNL     1      -4.703  17.295 -15.808  1.00  0.00    -0.272 OA
ATOM     21  H4  UNL     1      -6.389  14.593 -16.189  1.00  0.00     0.163 HD
BRANCH  19  22
HETATM   22  C3  UNL     1      -3.991  15.410 -17.041  1.00  0.00     0.225 C 
BRANCH  22  23
HETATM   23  N3  UNL     1      -3.836  16.103 -18.303  1.00  0.00    -0.356 N 
HETATM   24  C2  UNL     1      -2.744  16.628 -18.697  1.00  0.00     0.184 C 
HETATM   25  N1  UNL     1      -2.705  17.283 -19.953  1.00  0.00    -0.369 N 
HETATM   26  N2  UNL     1      -1.592  16.554 -17.882  1.00  0.00    -0.064 NA
HETATM   27  C1  UNL     1      -3.484  18.461 -20.222  1.00  0.00     0.148 C 
ATOM     28  H1  UNL     1      -2.105  16.909 -20.688  1.00  0.00     0.161 HD
ATOM     29  H3  UNL     1      -4.651  16.175 -18.914  1.00  0.00     0.162 HD
ENDBRANCH  22  23
ENDBRANCH  19  22
ENDBRANCH  16  18
ENDBRANCH  13  16
ENDBRANCH   6  11
ENDBRANCH   1   5
BRANCH   3  30
HETATM   30  C16 UNL     1     -12.514  20.834 -18.599  1.00  0.00     0.176 C 
BRANCH  30  31
HETATM   31  C17 UNL     1     -13.697  21.100 -19.538  1.00  0.00     0.035 C 
BRANCH  31  32
HETATM   32  C18 UNL     1     -13.384  22.032 -20.654  1.00  0.00     0.007 C 
BRANCH  32  33
HETATM   33  C19 UNL     1     -13.612  23.480 -20.379  1.00  0.00    -0.014 C 
HETATM   34  C20 UNL     1     -14.510  24.038 -21.466  1.00  0.00     0.004 C 
HETATM   35  C21 UNL     1     -15.489  25.060 -20.933  1.00  0.00     0.000 C 
HETATM   36  C22 UNL     1     -16.496  24.347 -20.058  1.00  0.00     0.000 C 
HETATM   37  C23 UNL     1     -15.818  23.311 -19.187  1.00  0.00     0.000 C 
HETATM   38  C24 UNL     1     -14.358  23.704 -19.073  1.00  0.00     0.004 C 
ENDBRANCH  32  33
ENDBRANCH  31  32
ENDBRANCH  30  31
BRANCH  30  39
HETATM   39  C25 UNL     1     -13.081  20.088 -17.453  1.00  0.00     0.243 C 
HETATM   40  O4  UNL     1     -13.018  18.811 -17.519  1.00  0.00    -0.271 OA
HETATM   41  N7  UNL     1     -13.676  20.639 -16.306  1.00  0.00    -0.337 N 
HETATM   42  C26 UNL     1     -13.817  22.031 -15.957  1.00  0.00     0.127 C 
HETATM   43  C29 UNL     1     -14.307  19.909 -15.191  1.00  0.00     0.179 C 
HETATM   44  C27 UNL     1     -15.118  22.132 -15.226  1.00  0.00     0.022 C 
HETATM   45  C28 UNL     1     -15.537  20.713 -14.964  1.00  0.00     0.037 C 
BRANCH  43  46
HETATM   46  C30 UNL     1     -13.380  19.805 -14.067  1.00  0.00     0.242 C 
HETATM   47  O5  UNL     1     -13.562  20.489 -13.030  1.00  0.00    -0.271 OA
HETATM   48  N8  UNL     1     -12.251  18.947 -14.090  1.00  0.00    -0.350 N 
HETATM   49  C31 UNL     1     -11.269  18.757 -13.031  1.00  0.00     0.126 C 
HETATM   50  C34 UNL     1     -11.775  18.052 -15.144  1.00  0.00     0.126 C 
HETATM   51  C32 UNL     1     -10.995  17.266 -13.079  1.00  0.00     0.021 C 
HETATM   52  C33 UNL     1     -11.636  16.767 -14.380  1.00  0.00     0.021 C 
ENDBRANCH  43  46
ENDBRANCH  30  39
ENDBRANCH   3  30
TORSDOF 12
ENDMDL
MODEL 5
REMARK VINA RESULT: -10.199886214      3.880      9.482
REMARK  12 active torsions:
REMARK  status: ('A' for Active; 'I' for Inactive)
REMARK       I    between atoms: N1_2  and  C2_4 
REMARK    1  A    between atoms: N3_6  and  C3_8 
REMARK    2  A    between atoms: C3_8  and  C4_9 
REMARK       I    between atoms: C4_9  and  N4_11 
REMARK    3  A    between atoms: N4_11  and  C5_13 
REMARK    4  A    between atoms: C5_13  and  C7_15 
REMARK       I    between atoms: N5_16  and  C8_18 
REMARK    5  A    between atoms: C8_18  and  C9_20 
REMARK    6  A    between atoms: C14_25  and  C15_26 
REMARK       I    between atoms: C15_26  and  N6_28 
REMARK    7  A    between atoms: N6_28  and  C16_30 
REMARK    8  A    between atoms: C16_30  and  C17_31 
REMARK    9  A    between atoms: C16_30  and  C25_39 
REMARK   10  A    between atoms: C17_31  and  C18_32 
REMARK   11  A    between atoms: C18_32  and  C19_33 
REMARK       I    between atoms: C25_39  and  N7_41 
REMARK   12  A    between atoms: C29_45  and  C30_46 
REMARK       I    between atoms: C30_46  and  N8_48 
ROOT
HETATM    1  C15 UNL     1      -8.425  18.418 -19.839  1.00  0.00     0.223 C 
HETATM    2  O3  UNL     1      -9.131  17.921 -20.746  1.00  0.00    -0.273 OA
HETATM    3  N6  UNL     1      -9.043  19.005 -18.729  1.00  0.00    -0.347 N 
ATOM      4  H6  UNL     1      -8.486  19.419 -17.981  1.00  0.00     0.163 HD
ENDROOT
BRANCH   1   5
HETATM    5  C14 UNL     1      -6.965  18.373 -19.961  1.00  0.00     0.091 C 
HETATM    6  C9  UNL     1      -6.227  17.691 -18.864  1.00  0.00     0.091 C 
HETATM    7  C10 UNL     1      -4.751  17.994 -19.026  1.00  0.00     0.015 C 
HETATM    8  C11 UNL     1      -4.392  18.553 -20.373  1.00  0.00     0.001 C 
HETATM    9  C12 UNL     1      -5.064  17.894 -21.532  1.00  0.00     0.001 C 
HETATM   10  C13 UNL     1      -6.534  17.876 -21.342  1.00  0.00     0.015 C 
BRANCH   6  11
HETATM   11  C8  UNL     1      -6.488  16.273 -18.658  1.00  0.00     0.226 C 
HETATM   12  N5  UNL     1      -5.907  15.586 -17.570  1.00  0.00    -0.338 N 
HETATM   13  C7  UNL     1      -6.560  15.086 -16.593  1.00  0.00     0.088 C 
ATOM     14  H5  UNL     1      -4.892  15.481 -17.563  1.00  0.00     0.167 HD
HETATM   15  O2  UNL     1      -7.230  15.624 -19.434  1.00  0.00    -0.273 OA
BRANCH  13  16
HETATM   16  C5  UNL     1      -5.853  14.377 -15.492  1.00  0.00     0.119 C 
HETATM   17  C6  UNL     1      -6.857  13.798 -14.531  1.00  0.00     0.038 C 
BRANCH  16  18
HETATM   18  N4  UNL     1      -4.997  13.360 -16.078  1.00  0.00    -0.351 N 
HETATM   19  C4  UNL     1      -3.604  13.324 -15.896  1.00  0.00     0.235 C 
HETATM   20  O1  UNL     1      -3.032  14.197 -15.203  1.00  0.00    -0.272 OA
ATOM     21  H4  UNL     1      -5.429  12.634 -16.650  1.00  0.00     0.163 HD
BRANCH  19  22
HETATM   22  C3  UNL     1      -2.787  12.252 -16.522  1.00  0.00     0.225 C 
BRANCH  22  23
HETATM   23  N3  UNL     1      -3.578  11.044 -16.621  1.00  0.00    -0.356 N 
HETATM   24  C2  UNL     1      -3.394  10.011 -15.898  1.00  0.00     0.184 C 
HETATM   25  N1  UNL     1      -4.228   8.880 -16.080  1.00  0.00    -0.369 N 
HETATM   26  N2  UNL     1      -2.364  10.003 -14.930  1.00  0.00    -0.064 NA
HETATM   27  C1  UNL     1      -4.246   8.138 -17.310  1.00  0.00     0.148 C 
ATOM     28  H1  UNL     1      -4.834   8.584 -15.315  1.00  0.00     0.161 HD
ATOM     29  H3  UNL     1      -4.329  11.017 -17.312  1.00  0.00     0.162 HD
ENDBRANCH  22  23
ENDBRANCH  19  22
ENDBRANCH  16  18
ENDBRANCH  13  16
ENDBRANCH   6  11
ENDBRANCH   1   5
BRANCH   3  30
HETATM   30  C16 UNL     1     -10.520  19.011 -18.664  1.00  0.00     0.176 C 
BRANCH  30  31
HETATM   31  C17 UNL     1     -10.910  18.552 -17.253  1.00  0.00     0.035 C 
BRANCH  31  32
HETATM   32  C18 UNL     1     -10.271  19.337 -16.164  1.00  0.00     0.007 C 
BRANCH  32  33
HETATM   33  C19 UNL     1     -10.555  18.876 -14.774  1.00  0.00    -0.014 C 
HETATM   34  C20 UNL     1     -11.499  17.691 -14.847  1.00  0.00     0.004 C 
HETATM   35  C21 UNL     1     -11.188  16.647 -13.798  1.00  0.00     0.000 C 
HETATM   36  C22 UNL     1      -9.869  15.994 -14.148  1.00  0.00     0.000 C 
HETATM   37  C23 UNL     1      -8.865  17.024 -14.620  1.00  0.00     0.000 C 
HETATM   38  C24 UNL     1      -9.306  18.367 -14.073  1.00  0.00     0.004 C 
ENDBRANCH  32  33
ENDBRANCH  31  32
ENDBRANCH  30  31
BRANCH  30  39
HETATM   39  C25 UNL     1     -11.025  20.398 -18.781  1.00  0.00     0.243 C 
HETATM   40  O4  UNL     1     -10.160  21.295 -19.071  1.00  0.00    -0.271 OA
HETATM   41  N7  UNL     1     -12.352  20.822 -18.608  1.00  0.00    -0.337 N 
HETATM   42  C26 UNL     1     -13.518  20.017 -18.341  1.00  0.00     0.127 C 
HETATM   43  C29 UNL     1     -12.858  22.207 -18.652  1.00  0.00     0.179 C 
HETATM   44  C27 UNL     1     -14.393  20.854 -17.463  1.00  0.00     0.022 C 
HETATM   45  C28 UNL     1     -13.781  22.227 -17.487  1.00  0.00     0.037 C 
BRANCH  43  46
HETATM   46  C30 UNL     1     -13.450  22.487 -19.959  1.00  0.00     0.242 C 
HETATM   47  O5  UNL     1     -13.351  21.651 -20.891  1.00  0.00    -0.271 OA
HETATM   48  N8  UNL     1     -14.149  23.688 -20.235  1.00  0.00    -0.350 N 
HETATM   49  C31 UNL     1     -14.784  24.069 -21.490  1.00  0.00     0.126 C 
HETATM   50  C34 UNL     1     -14.414  24.839 -19.372  1.00  0.00     0.126 C 
HETATM   51  C32 UNL     1     -16.060  24.753 -21.037  1.00  0.00     0.021 C 
HETATM   52  C33 UNL     1     -15.902  24.971 -19.528  1.00  0.00     0.021 C 
ENDBRANCH  43  46
ENDBRANCH  30  39
ENDBRANCH   3  30
TORSDOF 12
ENDMDL
