MODEL 1
REMARK VINA RESULT: -10.225501732      0.000      0.000
REMARK  11 active torsions:
REMARK  status: ('A' for Active; 'I' for Inactive)
REMARK    1  A    between atoms: C2_2  and  C3_3 
REMARK    2  A    between atoms: C3_3  and  N1_4 
REMARK    3  A    between atoms: C3_3  and  C11_18 
REMARK       I    between atoms: N1_4  and  C4_6 
REMARK    4  A    between atoms: C4_6  and  C5_8 
REMARK    5  A    between atoms: C5_8  and  N2_9 
REMARK       I    between atoms: C11_18  and  N4_20 
REMARK    6  A    between atoms: C13_22  and  C14_23 
REMARK    7  A    between atoms: C15_24  and  C17_26 
REMARK    8  A    between atoms: C17_26  and  C18_27 
REMARK    9  A    between atoms: C24_33  and  C25_34 
REMARK       I    between atoms: C25_34  and  N5_36 
REMARK   10  A    between atoms: N5_36  and  C26_38 
REMARK   11  A    between atoms: C26_38  and  C28_40 
REMARK       I    between atoms: C28_40  and  N6_42 
REMARK       I    between atoms: N7_47  and  C33_48 
ROOT
HETATM    1  C11 UNL     1      -7.457  18.174 -20.457  1.00  0.00     0.242 C 
HETATM    2  O3  UNL     1      -7.500  18.201 -21.743  1.00  0.00    -0.271 OA
HETATM    3  N4  UNL     1      -8.709  18.325 -19.830  1.00  0.00    -0.346 N 
HETATM    4  C12 UNL     1      -8.729  18.336 -18.366  1.00  0.00     0.162 C 
HETATM    5  C13 UNL     1     -10.021  17.733 -17.956  1.00  0.00    -0.039 C 
HETATM    6  C21 UNL     1     -11.130  18.690 -18.337  1.00  0.00     0.127 C 
HETATM    7  C22 UNL     1     -11.135  18.886 -19.823  1.00  0.00     0.063 C 
HETATM    8  C23 UNL     1      -9.926  18.425 -20.543  1.00  0.00     0.135 C 
HETATM    9  C24 UNL     1     -11.118  20.357 -19.546  1.00  0.00     0.188 C 
HETATM   10  N7  UNL     1     -10.942  20.086 -18.131  1.00  0.00    -0.329 N 
HETATM   11  C33 UNL     1     -10.693  20.944 -17.045  1.00  0.00     0.217 C 
HETATM   12  C34 UNL     1     -10.538  22.427 -17.148  1.00  0.00     0.117 C 
HETATM   13  O6  UNL     1     -10.588  20.462 -15.896  1.00  0.00    -0.274 OA
ENDROOT
BRANCH   1  14
HETATM   14  C3  UNL     1      -6.167  17.991 -19.796  1.00  0.00     0.176 C 
BRANCH  14  15
HETATM   15  C2  UNL     1      -4.945  18.283 -20.587  1.00  0.00     0.030 C 
HETATM   16  C1  UNL     1      -3.929  19.024 -19.704  1.00  0.00     0.007 C 
ENDBRANCH  14  15
BRANCH  14  17
HETATM   17  N1  UNL     1      -6.134  16.579 -19.338  1.00  0.00    -0.347 N 
HETATM   18  C4  UNL     1      -5.791  16.354 -17.993  1.00  0.00     0.233 C 
HETATM   19  O1  UNL     1      -5.539  17.304 -17.227  1.00  0.00    -0.272 OA
ATOM     20  H1  UNL     1      -6.351  15.808 -19.969  1.00  0.00     0.163 HD
BRANCH  18  21
HETATM   21  C5  UNL     1      -5.735  14.978 -17.501  1.00  0.00     0.216 C 
BRANCH  21  22
HETATM   22  N2  UNL     1      -4.785  14.727 -16.477  1.00  0.00    -0.220 NA
HETATM   23  C6  UNL     1      -5.112  15.353 -15.215  1.00  0.00     0.114 C 
HETATM   24  C7  UNL     1      -6.498  14.970 -14.742  1.00  0.00     0.017 C 
HETATM   25  C8  UNL     1      -6.718  13.500 -14.607  1.00  0.00     0.010 C 
HETATM   26  C9  UNL     1      -5.510  12.738 -14.116  1.00  0.00     0.104 C 
HETATM   27  C10 UNL     1      -4.607  12.515 -15.272  1.00  0.00     0.232 C 
HETATM   28  O2  UNL     1      -3.941  11.441 -15.331  1.00  0.00    -0.272 OA
HETATM   29  N3  UNL     1      -4.407  13.417 -16.360  1.00  0.00    -0.289 N 
ATOM     30  H3  UNL     1      -3.912  13.030 -17.164  1.00  0.00     0.184 HD
ENDBRANCH  21  22
ENDBRANCH  18  21
ENDBRANCH  14  17
ENDBRANCH   1  14
BRANCH   5  31
HETATM   31  C14 UNL     1     -10.140  17.072 -16.691  1.00  0.00     0.009 C 
HETATM   32  C15 UNL     1      -9.531  17.195 -15.517  1.00  0.00    -0.083 C 
HETATM   33  C16 UNL     1      -8.463  18.162 -15.207  1.00  0.00     0.043 C 
BRANCH  32  34
HETATM   34  C17 UNL     1     -10.024  16.311 -14.432  1.00  0.00     0.037 C 
BRANCH  34  35
HETATM   35  C18 UNL     1     -11.239  16.838 -13.762  1.00  0.00    -0.019 C 
HETATM   36  C19 UNL     1     -12.162  17.504 -14.836  1.00  0.00     0.010 C 
HETATM   37  C20 UNL     1     -11.059  17.925 -12.750  1.00  0.00     0.010 C 
ENDBRANCH  34  35
ENDBRANCH  32  34
ENDBRANCH   5  31
BRANCH   9  38
HETATM   38  C25 UNL     1     -12.350  21.101 -19.912  1.00  0.00     0.241 C 
HETATM   39  O4  UNL     1     -13.452  20.528 -19.728  1.00  0.00    -0.271 OA
HETATM   40  N5  UNL     1     -12.333  22.397 -20.449  1.00  0.00    -0.346 N 
ATOM     41  H5  UNL     1     -11.419  22.827 -20.591  1.00  0.00     0.163 HD
BRANCH  40  42
HETATM   42  C26 UNL     1     -13.486  23.180 -20.819  1.00  0.00     0.172 C 
HETATM   43  C27 UNL     1     -13.078  24.256 -21.830  1.00  0.00     0.042 C 
BRANCH  42  44
HETATM   44  C28 UNL     1     -14.095  23.878 -19.679  1.00  0.00     0.242 C 
HETATM   45  O5  UNL     1     -13.539  23.904 -18.530  1.00  0.00    -0.271 OA
HETATM   46  N6  UNL     1     -15.313  24.544 -19.813  1.00  0.00    -0.345 N 
HETATM   47  C29 UNL     1     -16.371  24.838 -20.767  1.00  0.00     0.133 C 
HETATM   48  C32 UNL     1     -16.163  25.363 -18.961  1.00  0.00     0.093 A 
HETATM   49  C30 UNL     1     -17.228  24.365 -19.580  1.00  0.00     0.029 A 
HETATM   50  C31 UNL     1     -17.368  25.011 -18.302  1.00  0.00     0.034 A 
ENDBRANCH  42  44
ENDBRANCH  40  42
ENDBRANCH   9  38
TORSDOF 11
ENDMDL
MODEL 2
REMARK VINA RESULT: -9.991603185      1.640      1.994
REMARK  11 active torsions:
REMARK  status: ('A' for Active; 'I' for Inactive)
REMARK    1  A    between atoms: C2_2  and  C3_3 
REMARK    2  A    between atoms: C3_3  and  N1_4 
REMARK    3  A    between atoms: C3_3  and  C11_18 
REMARK       I    between atoms: N1_4  and  C4_6 
REMARK    4  A    between atoms: C4_6  and  C5_8 
REMARK    5  A    between atoms: C5_8  and  N2_9 
REMARK       I    between atoms: C11_18  and  N4_20 
REMARK    6  A    between atoms: C13_22  and  C14_23 
REMARK    7  A    between atoms: C15_24  and  C17_26 
REMARK    8  A    between atoms: C17_26  and  C18_27 
REMARK    9  A    between atoms: C24_33  and  C25_34 
REMARK       I    between atoms: C25_34  and  N5_36 
REMARK   10  A    between atoms: N5_36  and  C26_38 
REMARK   11  A    between atoms: C26_38  and  C28_40 
REMARK       I    between atoms: C28_40  and  N6_42 
REMARK       I    between atoms: N7_47  and  C33_48 
ROOT
HETATM    1  C11 UNL     1      -7.740  18.087 -20.606  1.00  0.00     0.242 C 
HETATM    2  O3  UNL     1      -7.857  18.097 -21.887  1.00  0.00    -0.271 OA
HETATM    3  N4  UNL     1      -8.949  18.281 -19.910  1.00  0.00    -0.346 N 
HETATM    4  C12 UNL     1      -8.883  18.312 -18.447  1.00  0.00     0.162 C 
HETATM    5  C13 UNL     1     -10.166  17.751 -17.954  1.00  0.00    -0.039 C 
HETATM    6  C21 UNL     1     -11.267  18.734 -18.285  1.00  0.00     0.127 C 
HETATM    7  C22 UNL     1     -11.354  18.911 -19.772  1.00  0.00     0.063 C 
HETATM    8  C23 UNL     1     -10.201  18.407 -20.553  1.00  0.00     0.135 C 
HETATM    9  C24 UNL     1     -11.280  20.385 -19.517  1.00  0.00     0.188 C 
HETATM   10  N7  UNL     1     -11.029  20.127 -18.111  1.00  0.00    -0.329 N 
HETATM   11  C33 UNL     1     -10.694  20.993 -17.054  1.00  0.00     0.217 C 
HETATM   12  C34 UNL     1     -10.505  22.468 -17.188  1.00  0.00     0.117 C 
HETATM   13  O6  UNL     1     -10.536  20.523 -15.906  1.00  0.00    -0.274 OA
ENDROOT
BRANCH   1  14
HETATM   14  C3  UNL     1      -6.419  17.876 -20.018  1.00  0.00     0.176 C 
BRANCH  14  15
HETATM   15  C2  UNL     1      -5.242  18.008 -20.913  1.00  0.00     0.030 C 
HETATM   16  C1  UNL     1      -4.122  18.760 -20.177  1.00  0.00     0.007 C 
ENDBRANCH  14  15
BRANCH  14  17
HETATM   17  N1  UNL     1      -6.442  16.513 -19.428  1.00  0.00    -0.347 N 
HETATM   18  C4  UNL     1      -5.999  16.385 -18.100  1.00  0.00     0.233 C 
HETATM   19  O1  UNL     1      -5.618  17.380 -17.453  1.00  0.00    -0.272 OA
ATOM     20  H1  UNL     1      -6.765  15.706 -19.962  1.00  0.00     0.163 HD
BRANCH  18  21
HETATM   21  C5  UNL     1      -5.994  15.060 -17.483  1.00  0.00     0.216 C 
BRANCH  21  22
HETATM   22  N2  UNL     1      -4.980  14.833 -16.516  1.00  0.00    -0.220 NA
HETATM   23  C6  UNL     1      -5.260  15.428 -15.229  1.00  0.00     0.114 C 
HETATM   24  C7  UNL     1      -6.601  14.984 -14.686  1.00  0.00     0.017 C 
HETATM   25  C8  UNL     1      -6.756  13.504 -14.563  1.00  0.00     0.010 C 
HETATM   26  C9  UNL     1      -5.493  12.785 -14.151  1.00  0.00     0.104 C 
HETATM   27  C10 UNL     1      -4.648  12.614 -15.359  1.00  0.00     0.232 C 
HETATM   28  O2  UNL     1      -3.944  11.569 -15.471  1.00  0.00    -0.272 OA
HETATM   29  N3  UNL     1      -4.544  13.537 -16.442  1.00  0.00    -0.289 N 
ATOM     30  H3  UNL     1      -4.080  13.182 -17.277  1.00  0.00     0.184 HD
ENDBRANCH  21  22
ENDBRANCH  18  21
ENDBRANCH  14  17
ENDBRANCH   1  14
BRANCH   5  31
HETATM   31  C14 UNL     1     -10.229  17.111 -16.675  1.00  0.00     0.009 C 
HETATM   32  C15 UNL     1      -9.560  17.242 -15.535  1.00  0.00    -0.083 C 
HETATM   33  C16 UNL     1      -8.463  18.197 -15.295  1.00  0.00     0.043 C 
BRANCH  32  34
HETATM   34  C17 UNL     1     -10.009  16.381 -14.413  1.00  0.00     0.037 C 
BRANCH  34  35
HETATM   35  C18 UNL     1     -11.184  16.933 -13.696  1.00  0.00    -0.019 C 
HETATM   36  C19 UNL     1     -12.112  17.661 -14.724  1.00  0.00     0.010 C 
HETATM   37  C20 UNL     1     -10.938  17.984 -12.660  1.00  0.00     0.010 C 
ENDBRANCH  34  35
ENDBRANCH  32  34
ENDBRANCH   5  31
BRANCH   9  38
HETATM   38  C25 UNL     1     -12.510  21.159 -19.823  1.00  0.00     0.241 C 
HETATM   39  O4  UNL     1     -12.812  21.319 -21.031  1.00  0.00    -0.271 OA
HETATM   40  N5  UNL     1     -13.335  21.711 -18.832  1.00  0.00    -0.346 N 
ATOM     41  H5  UNL     1     -13.053  21.566 -17.862  1.00  0.00     0.163 HD
BRANCH  40  42
HETATM   42  C26 UNL     1     -14.544  22.465 -19.054  1.00  0.00     0.172 C 
HETATM   43  C27 UNL     1     -14.194  23.917 -19.396  1.00  0.00     0.042 C 
BRANCH  42  44
HETATM   44  C28 UNL     1     -15.419  22.506 -17.874  1.00  0.00     0.242 C 
HETATM   45  O5  UNL     1     -16.544  23.108 -17.889  1.00  0.00    -0.271 OA
HETATM   46  N6  UNL     1     -15.047  21.880 -16.685  1.00  0.00    -0.345 N 
HETATM   47  C29 UNL     1     -13.973  21.118 -16.065  1.00  0.00     0.133 C 
HETATM   48  C32 UNL     1     -15.650  21.663 -15.378  1.00  0.00     0.093 A 
HETATM   49  C30 UNL     1     -14.206  22.166 -14.963  1.00  0.00     0.029 A 
HETATM   50  C31 UNL     1     -15.384  22.323 -14.151  1.00  0.00     0.034 A 
ENDBRANCH  42  44
ENDBRANCH  40  42
ENDBRANCH   9  38
TORSDOF 11
ENDMDL
MODEL 3
REMARK VINA RESULT: -9.890126397      1.208      1.601
REMARK  11 active torsions:
REMARK  status: ('A' for Active; 'I' for Inactive)
REMARK    1  A    between atoms: C2_2  and  C3_3 
REMARK    2  A    between atoms: C3_3  and  N1_4 
REMARK    3  A    between atoms: C3_3  and  C11_18 
REMARK       I    between atoms: N1_4  and  C4_6 
REMARK    4  A    between atoms: C4_6  and  C5_8 
REMARK    5  A    between atoms: C5_8  and  N2_9 
REMARK       I    between atoms: C11_18  and  N4_20 
REMARK    6  A    between atoms: C13_22  and  C14_23 
REMARK    7  A    between atoms: C15_24  and  C17_26 
REMARK    8  A    between atoms: C17_26  and  C18_27 
REMARK    9  A    between atoms: C24_33  and  C25_34 
REMARK       I    between atoms: C25_34  and  N5_36 
REMARK   10  A    between atoms: N5_36  and  C26_38 
REMARK   11  A    between atoms: C26_38  and  C28_40 
REMARK       I    between atoms: C28_40  and  N6_42 
REMARK       I    between atoms: N7_47  and  C33_48 
ROOT
HETATM    1  C11 UNL     1      -7.031  18.135 -19.974  1.00  0.00     0.242 C 
HETATM    2  O3  UNL     1      -6.978  18.114 -21.260  1.00  0.00    -0.271 OA
HETATM    3  N4  UNL     1      -8.332  18.256 -19.448  1.00  0.00    -0.346 N 
HETATM    4  C12 UNL     1      -8.462  18.318 -17.990  1.00  0.00     0.162 C 
HETATM    5  C13 UNL     1      -9.758  17.677 -17.654  1.00  0.00    -0.039 C 
HETATM    6  C21 UNL     1     -10.870  18.574 -18.152  1.00  0.00     0.127 C 
HETATM    7  C22 UNL     1     -10.771  18.718 -19.641  1.00  0.00     0.063 C 
HETATM    8  C23 UNL     1      -9.494  18.282 -20.252  1.00  0.00     0.135 C 
HETATM    9  C24 UNL     1     -10.830  20.197 -19.419  1.00  0.00     0.188 C 
HETATM   10  N7  UNL     1     -10.751  19.983 -17.986  1.00  0.00    -0.329 N 
HETATM   11  C33 UNL     1     -10.617  20.889 -16.917  1.00  0.00     0.217 C 
HETATM   12  C34 UNL     1     -10.512  22.371 -17.065  1.00  0.00     0.117 C 
HETATM   13  O6  UNL     1     -10.581  20.452 -15.747  1.00  0.00    -0.274 OA
ENDROOT
BRANCH   1  14
HETATM   14  C3  UNL     1      -5.788  18.027 -19.213  1.00  0.00     0.176 C 
BRANCH  14  15
HETATM   15  C2  UNL     1      -4.517  18.267 -19.941  1.00  0.00     0.030 C 
HETATM   16  C1  UNL     1      -3.733  19.390 -19.246  1.00  0.00     0.007 C 
ENDBRANCH  14  15
BRANCH  14  17
HETATM   17  N1  UNL     1      -5.776  16.661 -18.632  1.00  0.00    -0.347 N 
HETATM   18  C4  UNL     1      -5.480  16.554 -17.261  1.00  0.00     0.233 C 
HETATM   19  O1  UNL     1      -5.252  17.568 -16.574  1.00  0.00    -0.272 OA
ATOM     20  H1  UNL     1      -5.974  15.837 -19.200  1.00  0.00     0.163 HD
BRANCH  18  21
HETATM   21  C5  UNL     1      -5.446  15.227 -16.650  1.00  0.00     0.216 C 
BRANCH  21  22
HETATM   22  N2  UNL     1      -4.566  15.078 -15.546  1.00  0.00    -0.220 NA
HETATM   23  C6  UNL     1      -4.389  13.707 -15.123  1.00  0.00     0.114 C 
HETATM   24  C7  UNL     1      -3.941  12.822 -16.266  1.00  0.00     0.017 C 
HETATM   25  C8  UNL     1      -2.685  13.271 -16.938  1.00  0.00     0.010 C 
HETATM   26  C9  UNL     1      -1.667  13.876 -16.000  1.00  0.00     0.104 C 
HETATM   27  C10 UNL     1      -2.057  15.284 -15.745  1.00  0.00     0.232 C 
HETATM   28  O2  UNL     1      -1.150  16.152 -15.589  1.00  0.00    -0.272 OA
HETATM   29  N3  UNL     1      -3.393  15.777 -15.656  1.00  0.00    -0.289 N 
ATOM     30  H3  UNL     1      -3.488  16.792 -15.676  1.00  0.00     0.184 HD
ENDBRANCH  21  22
ENDBRANCH  18  21
ENDBRANCH  14  17
ENDBRANCH   1  14
BRANCH   5  31
HETATM   31  C14 UNL     1      -9.946  17.057 -16.377  1.00  0.00     0.009 C 
HETATM   32  C15 UNL     1      -9.408  17.221 -15.174  1.00  0.00    -0.083 C 
HETATM   33  C16 UNL     1      -8.363  18.205 -14.835  1.00  0.00     0.043 C 
BRANCH  32  34
HETATM   34  C17 UNL     1      -9.958  16.369 -14.092  1.00  0.00     0.037 C 
BRANCH  34  35
HETATM   35  C18 UNL     1     -11.214  16.908 -13.514  1.00  0.00    -0.019 C 
HETATM   36  C19 UNL     1     -12.091  17.500 -14.667  1.00  0.00     0.010 C 
HETATM   37  C20 UNL     1     -11.105  18.049 -12.552  1.00  0.00     0.010 C 
ENDBRANCH  34  35
ENDBRANCH  32  34
ENDBRANCH   5  31
BRANCH   9  38
HETATM   38  C25 UNL     1     -12.059  20.877 -19.903  1.00  0.00     0.241 C 
HETATM   39  O4  UNL     1     -13.130  20.221 -19.894  1.00  0.00    -0.271 OA
HETATM   40  N5  UNL     1     -12.071  22.202 -20.366  1.00  0.00    -0.346 N 
ATOM     41  H5  UNL     1     -11.181  22.700 -20.366  1.00  0.00     0.163 HD
BRANCH  40  42
HETATM   42  C26 UNL     1     -13.224  22.927 -20.842  1.00  0.00     0.172 C 
HETATM   43  C27 UNL     1     -12.795  23.936 -21.911  1.00  0.00     0.042 C 
BRANCH  42  44
HETATM   44  C28 UNL     1     -13.898  23.689 -19.784  1.00  0.00     0.242 C 
HETATM   45  O5  UNL     1     -13.501  23.654 -18.570  1.00  0.00    -0.271 OA
HETATM   46  N6  UNL     1     -15.005  24.487 -20.070  1.00  0.00    -0.345 N 
HETATM   47  C29 UNL     1     -15.887  24.897 -21.152  1.00  0.00     0.133 C 
HETATM   48  C32 UNL     1     -15.865  25.398 -19.327  1.00  0.00     0.093 A 
HETATM   49  C30 UNL     1     -16.942  24.525 -20.095  1.00  0.00     0.029 A 
HETATM   50  C31 UNL     1     -17.179  25.184 -18.838  1.00  0.00     0.034 A 
ENDBRANCH  42  44
ENDBRANCH  40  42
ENDBRANCH   9  38
TORSDOF 11
ENDMDL
MODEL 4
REMARK VINA RESULT: -9.789350199      2.058      4.348
REMARK  11 active torsions:
REMARK  status: ('A' for Active; 'I' for Inactive)
REMARK    1  A    between atoms: C2_2  and  C3_3 
REMARK    2  A    between atoms: C3_3  and  N1_4 
REMARK    3  A    between atoms: C3_3  and  C11_18 
REMARK       I    between atoms: N1_4  and  C4_6 
REMARK    4  A    between atoms: C4_6  and  C5_8 
REMARK    5  A    between atoms: C5_8  and  N2_9 
REMARK       I    between atoms: C11_18  and  N4_20 
REMARK    6  A    between atoms: C13_22  and  C14_23 
REMARK    7  A    between atoms: C15_24  and  C17_26 
REMARK    8  A    between atoms: C17_26  and  C18_27 
REMARK    9  A    between atoms: C24_33  and  C25_34 
REMARK       I    between atoms: C25_34  and  N5_36 
REMARK   10  A    between atoms: N5_36  and  C26_38 
REMARK   11  A    between atoms: C26_38  and  C28_40 
REMARK       I    between atoms: C28_40  and  N6_42 
REMARK       I    between atoms: N7_47  and  C33_48 
ROOT
HETATM    1  C11 UNL     1      -8.120  17.416 -19.281  1.00  0.00     0.242 C 
HETATM    2  O3  UNL     1      -8.134  17.117 -20.532  1.00  0.00    -0.271 OA
HETATM    3  N4  UNL     1      -9.350  17.888 -18.782  1.00  0.00    -0.346 N 
HETATM    4  C12 UNL     1      -9.395  18.277 -17.370  1.00  0.00     0.162 C 
HETATM    5  C13 UNL     1     -10.768  17.977 -16.894  1.00  0.00    -0.039 C 
HETATM    6  C21 UNL     1     -11.721  18.943 -17.564  1.00  0.00     0.127 C 
HETATM    7  C22 UNL     1     -11.669  18.751 -19.050  1.00  0.00     0.063 C 
HETATM    8  C23 UNL     1     -10.525  17.964 -19.563  1.00  0.00     0.135 C 
HETATM    9  C24 UNL     1     -11.448  20.228 -19.150  1.00  0.00     0.188 C 
HETATM   10  N7  UNL     1     -11.340  20.308 -17.705  1.00  0.00    -0.329 N 
HETATM   11  C33 UNL     1     -10.991  21.375 -16.858  1.00  0.00     0.217 C 
HETATM   12  C34 UNL     1     -10.624  22.747 -17.322  1.00  0.00     0.117 C 
HETATM   13  O6  UNL     1     -10.979  21.195 -15.621  1.00  0.00    -0.274 OA
ENDROOT
BRANCH   1  14
HETATM   14  C3  UNL     1      -6.882  17.238 -18.525  1.00  0.00     0.176 C 
BRANCH  14  15
HETATM   15  C2  UNL     1      -6.964  17.328 -17.045  1.00  0.00     0.030 C 
HETATM   16  C1  UNL     1      -6.081  16.239 -16.417  1.00  0.00     0.007 C 
ENDBRANCH  14  15
BRANCH  14  17
HETATM   17  N1  UNL     1      -5.938  18.267 -19.031  1.00  0.00    -0.347 N 
HETATM   18  C4  UNL     1      -4.686  17.814 -19.484  1.00  0.00     0.233 C 
HETATM   19  O1  UNL     1      -4.397  16.602 -19.467  1.00  0.00    -0.272 OA
ATOM     20  H1  UNL     1      -6.186  19.256 -19.051  1.00  0.00     0.163 HD
BRANCH  18  21
HETATM   21  C5  UNL     1      -3.720  18.793 -19.980  1.00  0.00     0.216 C 
BRANCH  21  22
HETATM   22  N2  UNL     1      -3.131  19.631 -18.998  1.00  0.00    -0.220 NA
HETATM   23  C6  UNL     1      -1.686  19.658 -19.047  1.00  0.00     0.114 C 
HETATM   24  C7  UNL     1      -1.180  20.037 -20.422  1.00  0.00     0.017 C 
HETATM   25  C8  UNL     1      -1.691  21.345 -20.929  1.00  0.00     0.010 C 
HETATM   26  C9  UNL     1      -1.848  22.400 -19.859  1.00  0.00     0.104 C 
HETATM   27  C10 UNL     1      -3.130  22.151 -19.154  1.00  0.00     0.232 C 
HETATM   28  O2  UNL     1      -3.801  23.139 -18.736  1.00  0.00    -0.272 OA
HETATM   29  N3  UNL     1      -3.702  20.871 -18.890  1.00  0.00    -0.289 N 
ATOM     30  H3  UNL     1      -4.673  20.881 -18.577  1.00  0.00     0.184 HD
ENDBRANCH  21  22
ENDBRANCH  18  21
ENDBRANCH  14  17
ENDBRANCH   1  14
BRANCH   5  31
HETATM   31  C14 UNL     1     -11.005  17.686 -15.512  1.00  0.00     0.009 C 
HETATM   32  C15 UNL     1     -10.495  16.821 -14.643  1.00  0.00    -0.083 C 
HETATM   33  C16 UNL     1      -9.433  15.841 -14.938  1.00  0.00     0.043 C 
BRANCH  32  34
HETATM   34  C17 UNL     1     -11.016  16.905 -13.257  1.00  0.00     0.037 C 
BRANCH  34  35
HETATM   35  C18 UNL     1     -11.107  18.298 -12.756  1.00  0.00    -0.019 C 
HETATM   36  C19 UNL     1     -10.919  18.293 -11.202  1.00  0.00     0.010 C 
HETATM   37  C20 UNL     1     -12.404  19.021 -12.938  1.00  0.00     0.010 C 
ENDBRANCH  34  35
ENDBRANCH  32  34
ENDBRANCH   5  31
BRANCH   9  38
HETATM   38  C25 UNL     1     -12.554  21.010 -19.759  1.00  0.00     0.241 C 
HETATM   39  O4  UNL     1     -13.700  20.498 -19.755  1.00  0.00    -0.271 OA
HETATM   40  N5  UNL     1     -12.372  22.278 -20.332  1.00  0.00    -0.346 N 
ATOM     41  H5  UNL     1     -11.425  22.658 -20.324  1.00  0.00     0.163 HD
BRANCH  40  42
HETATM   42  C26 UNL     1     -13.397  23.096 -20.933  1.00  0.00     0.172 C 
HETATM   43  C27 UNL     1     -12.768  24.044 -21.959  1.00  0.00     0.042 C 
BRANCH  42  44
HETATM   44  C28 UNL     1     -14.105  23.935 -19.957  1.00  0.00     0.242 C 
HETATM   45  O5  UNL     1     -13.633  24.158 -18.792  1.00  0.00    -0.271 OA
HETATM   46  N6  UNL     1     -15.328  24.524 -20.272  1.00  0.00    -0.345 N 
HETATM   47  C29 UNL     1     -16.325  24.627 -21.327  1.00  0.00     0.133 C 
HETATM   48  C32 UNL     1     -16.260  25.430 -19.615  1.00  0.00     0.093 A 
HETATM   49  C30 UNL     1     -17.250  24.309 -20.140  1.00  0.00     0.029 A 
HETATM   50  C31 UNL     1     -17.498  25.136 -18.989  1.00  0.00     0.034 A 
ENDBRANCH  42  44
ENDBRANCH  40  42
ENDBRANCH   9  38
TORSDOF 11
ENDMDL
MODEL 5
REMARK VINA RESULT: -9.752998756      3.308     12.014
REMARK  11 active torsions:
REMARK  status: ('A' for Active; 'I' for Inactive)
REMARK    1  A    between atoms: C2_2  and  C3_3 
REMARK    2  A    between atoms: C3_3  and  N1_4 
REMARK    3  A    between atoms: C3_3  and  C11_18 
REMARK       I    between atoms: N1_4  and  C4_6 
REMARK    4  A    between atoms: C4_6  and  C5_8 
REMARK    5  A    between atoms: C5_8  and  N2_9 
REMARK       I    between atoms: C11_18  and  N4_20 
REMARK    6  A    between atoms: C13_22  and  C14_23 
REMARK    7  A    between atoms: C15_24  and  C17_26 
REMARK    8  A    between atoms: C17_26  and  C18_27 
REMARK    9  A    between atoms: C24_33  and  C25_34 
REMARK       I    between atoms: C25_34  and  N5_36 
REMARK   10  A    between atoms: N5_36  and  C26_38 
REMARK   11  A    between atoms: C26_38  and  C28_40 
REMARK       I    between atoms: C28_40  and  N6_42 
REMARK       I    between atoms: N7_47  and  C33_48 
ROOT
HETATM    1  C11 UNL     1     -13.899  23.754 -19.971  1.00  0.00     0.242 C 
HETATM    2  O3  UNL     1     -13.104  24.289 -20.829  1.00  0.00    -0.271 OA
HETATM    3  N4  UNL     1     -13.252  23.124 -18.891  1.00  0.00    -0.346 N 
HETATM    4  C12 UNL     1     -14.098  22.466 -17.893  1.00  0.00     0.162 C 
HETATM    5  C13 UNL     1     -13.393  22.588 -16.593  1.00  0.00    -0.039 C 
HETATM    6  C21 UNL     1     -12.155  21.718 -16.646  1.00  0.00     0.127 C 
HETATM    7  C22 UNL     1     -11.249  22.198 -17.738  1.00  0.00     0.063 C 
HETATM    8  C23 UNL     1     -11.849  23.135 -18.716  1.00  0.00     0.135 C 
HETATM    9  C24 UNL     1     -11.227  20.785 -18.229  1.00  0.00     0.188 C 
HETATM   10  N7  UNL     1     -12.238  20.431 -17.250  1.00  0.00    -0.329 N 
HETATM   11  C33 UNL     1     -12.960  19.241 -17.049  1.00  0.00     0.217 C 
HETATM   12  C34 UNL     1     -12.822  18.009 -17.882  1.00  0.00     0.117 C 
HETATM   13  O6  UNL     1     -13.786  19.178 -16.112  1.00  0.00    -0.274 OA
ENDROOT
BRANCH   1  14
HETATM   14  C3  UNL     1     -15.342  23.852 -20.187  1.00  0.00     0.176 C 
BRANCH  14  15
HETATM   15  C2  UNL     1     -15.820  23.932 -21.590  1.00  0.00     0.030 C 
HETATM   16  C1  UNL     1     -16.183  25.387 -21.924  1.00  0.00     0.007 C 
ENDBRANCH  14  15
BRANCH  14  17
HETATM   17  N1  UNL     1     -15.790  25.054 -19.440  1.00  0.00    -0.347 N 
HETATM   18  C4  UNL     1     -17.020  24.962 -18.764  1.00  0.00     0.233 C 
HETATM   19  O1  UNL     1     -17.688  23.911 -18.788  1.00  0.00    -0.272 OA
ATOM     20  H1  UNL     1     -15.232  25.908 -19.419  1.00  0.00     0.163 HD
BRANCH  18  21
HETATM   21  C5  UNL     1     -17.506  26.127 -18.026  1.00  0.00     0.216 C 
BRANCH  21  22
HETATM   22  N2  UNL     1     -18.903  26.160 -17.776  1.00  0.00    -0.220 NA
HETATM   23  C6  UNL     1     -19.245  26.594 -16.440  1.00  0.00     0.114 C 
HETATM   24  C7  UNL     1     -18.629  27.937 -16.113  1.00  0.00     0.017 C 
HETATM   25  C8  UNL     1     -18.986  29.028 -17.067  1.00  0.00     0.010 C 
HETATM   26  C9  UNL     1     -20.401  28.949 -17.592  1.00  0.00     0.104 C 
HETATM   27  C10 UNL     1     -20.426  27.954 -18.692  1.00  0.00     0.232 C 
HETATM   28  O2  UNL     1     -21.200  28.146 -19.674  1.00  0.00    -0.272 OA
HETATM   29  N3  UNL     1     -19.642  26.763 -18.758  1.00  0.00    -0.289 N 
ATOM     30  H3  UNL     1     -19.632  26.295 -19.665  1.00  0.00     0.184 HD
ENDBRANCH  21  22
ENDBRANCH  18  21
ENDBRANCH  14  17
ENDBRANCH   1  14
BRANCH   5  31
HETATM   31  C14 UNL     1     -14.133  22.591 -15.368  1.00  0.00     0.009 C 
HETATM   32  C15 UNL     1     -15.407  22.394 -15.050  1.00  0.00    -0.083 C 
HETATM   33  C16 UNL     1     -16.486  22.084 -16.006  1.00  0.00     0.043 C 
BRANCH  32  34
HETATM   34  C17 UNL     1     -15.734  22.441 -13.604  1.00  0.00     0.037 C 
BRANCH  34  35
HETATM   35  C18 UNL     1     -16.577  23.606 -13.239  1.00  0.00    -0.019 C 
HETATM   36  C19 UNL     1     -15.650  24.788 -12.800  1.00  0.00     0.010 C 
HETATM   37  C20 UNL     1     -17.507  23.456 -12.076  1.00  0.00     0.010 C 
ENDBRANCH  34  35
ENDBRANCH  32  34
ENDBRANCH   5  31
BRANCH   9  38
HETATM   38  C25 UNL     1      -9.929  20.073 -18.102  1.00  0.00     0.241 C 
HETATM   39  O4  UNL     1      -9.214  20.339 -17.105  1.00  0.00    -0.271 OA
HETATM   40  N5  UNL     1      -9.475  19.132 -19.039  1.00  0.00    -0.346 N 
ATOM     41  H5  UNL     1     -10.080  18.948 -19.840  1.00  0.00     0.163 HD
BRANCH  40  42
HETATM   42  C26 UNL     1      -8.234  18.400 -18.977  1.00  0.00     0.172 C 
HETATM   43  C27 UNL     1      -7.884  17.855 -20.365  1.00  0.00     0.042 C 
BRANCH  42  44
HETATM   44  C28 UNL     1      -8.294  17.246 -18.070  1.00  0.00     0.242 C 
HETATM   45  O5  UNL     1      -9.404  16.713 -17.730  1.00  0.00    -0.271 OA
HETATM   46  N6  UNL     1      -7.131  16.686 -17.544  1.00  0.00    -0.345 N 
HETATM   47  C29 UNL     1      -5.683  16.834 -17.523  1.00  0.00     0.133 C 
HETATM   48  C32 UNL     1      -6.802  15.549 -16.696  1.00  0.00     0.093 A 
HETATM   49  C30 UNL     1      -5.944  16.694 -16.013  1.00  0.00     0.029 A 
HETATM   50  C31 UNL     1      -6.445  15.534 -15.324  1.00  0.00     0.034 A 
ENDBRANCH  42  44
ENDBRANCH  40  42
ENDBRANCH   9  38
TORSDOF 11
ENDMDL
