MODEL 1
REMARK VINA RESULT: -9.065165010      0.000      0.000
REMARK  14 active torsions:
REMARK  status: ('A' for Active; 'I' for Inactive)
REMARK    1  A    between atoms: C2_2  and  C3_3 
REMARK    2  A    between atoms: C3_3  and  C6_6 
REMARK    3  A    between atoms: C6_6  and  C7_7 
REMARK    4  A    between atoms: C7_7  and  N1_8 
REMARK    5  A    between atoms: C7_7  and  C27_40 
REMARK       I    between atoms: N1_8  and  C8_10 
REMARK    6  A    between atoms: C8_10  and  C9_12 
REMARK    7  A    between atoms: N2_19  and  C15_20 
REMARK    8  A    between atoms: C15_20  and  O3_21 
REMARK    9  A    between atoms: C15_20  and  C16_23 
REMARK   10  A    between atoms: C16_23  and  N3_24 
REMARK       I    between atoms: N3_24  and  C17_26 
REMARK   11  A    between atoms: C17_26  and  C18_28 
REMARK   12  A    between atoms: C18_28  and  N4_30 
REMARK   13  A    between atoms: C27_40  and  O5_41 
REMARK   14  A    between atoms: C27_40  and  N5_43 
ROOT
HETATM    1  C9  UNL     1     -14.849  21.998  -7.552  1.00  0.00     0.210 C 
HETATM    2  C10 UNL     1     -14.421  22.005  -8.970  1.00  0.00     0.183 A 
HETATM    3  O2  UNL     1     -13.373  22.659  -9.526  1.00  0.00    -0.373 OA
HETATM    4  C11 UNL     1     -13.335  21.210  -9.383  1.00  0.00     0.155 A 
HETATM    5  C12 UNL     1     -12.387  20.783  -8.328  1.00  0.00     0.059 C 
HETATM    6  C13 UNL     1     -12.464  21.685  -7.104  1.00  0.00     0.085 C 
HETATM    7  C14 UNL     1     -12.042  23.097  -7.459  1.00  0.00     0.032 C 
HETATM    8  N2  UNL     1     -13.805  21.744  -6.572  1.00  0.00    -0.343 N 
ENDROOT
BRANCH   1   9
HETATM    9  C8  UNL     1     -15.937  20.944  -7.533  1.00  0.00     0.247 C 
HETATM   10  N1  UNL     1     -15.661  19.660  -7.060  1.00  0.00    -0.322 N 
ATOM     11  H1  UNL     1     -14.716  19.453  -6.737  1.00  0.00     0.169 HD
HETATM   12  O1  UNL     1     -17.060  21.282  -7.950  1.00  0.00    -0.271 OA
BRANCH  10  13
HETATM   13  C7  UNL     1     -16.712  18.547  -7.006  1.00  0.00     0.083 C 
BRANCH  13  14
HETATM   14  C6  UNL     1     -16.576  17.748  -8.182  1.00  0.00     0.016 C 
BRANCH  14  15
HETATM   15  C3  UNL     1     -17.496  17.553  -9.292  1.00  0.00    -0.028 C 
HETATM   16  C4  UNL     1     -17.290  18.134 -10.621  1.00  0.00     0.019 C 
HETATM   17  C5  UNL     1     -18.815  18.325  -8.792  1.00  0.00     0.019 C 
BRANCH  15  18
HETATM   18  C2  UNL     1     -18.050  16.141  -9.407  1.00  0.00     0.008 C 
HETATM   19  C1  UNL     1     -19.363  16.102  -8.658  1.00  0.00     0.006 C 
ENDBRANCH  15  18
ENDBRANCH  14  15
ENDBRANCH  13  14
BRANCH  13  20
HETATM   20  C27 UNL     1     -16.888  18.261  -5.613  1.00  0.00     0.165 C 
BRANCH  20  21
HETATM   21  O5  UNL     1     -15.632  18.091  -5.026  1.00  0.00    -0.344 OA
ATOM     22  H5  UNL     1     -15.715  17.491  -4.294  1.00  0.00     0.219 HD
ENDBRANCH  20  21
BRANCH  20  23
HETATM   23  N5  UNL     1     -17.818  18.084  -4.622  1.00  0.00    -0.360 N 
HETATM   24  C28 UNL     1     -19.205  17.673  -5.038  1.00  0.00     0.125 C 
HETATM   25  C29 UNL     1     -20.022  18.937  -4.971  1.00  0.00     0.020 C 
HETATM   26  C30 UNL     1     -19.943  19.515  -3.598  1.00  0.00     0.003 C 
HETATM   27  C31 UNL     1     -19.196  18.591  -2.670  1.00  0.00     0.020 C 
HETATM   28  C32 UNL     1     -17.784  18.283  -3.199  1.00  0.00     0.125 C 
ENDBRANCH  20  23
ENDBRANCH  13  20
ENDBRANCH  10  13
ENDBRANCH   1   9
BRANCH   8  29
HETATM   29  C15 UNL     1     -14.036  21.576  -5.223  1.00  0.00     0.144 C 
BRANCH  29  30
HETATM   30  O3  UNL     1     -13.574  20.411  -4.782  1.00  0.00    -0.347 OA
ATOM     31  H3  UNL     1     -13.462  20.408  -3.838  1.00  0.00     0.219 HD
ENDBRANCH  29  30
BRANCH  29  32
HETATM   32  C16 UNL     1     -14.631  22.316  -4.146  1.00  0.00     0.102 C 
HETATM   33  C21 UNL     1     -15.082  21.354  -3.007  1.00  0.00     0.046 C 
HETATM   34  C22 UNL     1     -16.379  21.467  -3.641  1.00  0.00     0.004 A 
HETATM   35  C23 UNL     1     -15.957  22.867  -4.023  1.00  0.00     0.035 A 
HETATM   36  C24 UNL     1     -17.334  22.487  -3.710  1.00  0.00    -0.037 A 
HETATM   37  C25 UNL     1     -18.387  22.759  -4.734  1.00  0.00     0.015 C 
HETATM   38  C26 UNL     1     -17.964  22.797  -2.311  1.00  0.00     0.015 C 
BRANCH  32  39
HETATM   39  N3  UNL     1     -13.529  23.066  -3.473  1.00  0.00    -0.342 N 
HETATM   40  C17 UNL     1     -13.216  24.405  -3.544  1.00  0.00     0.249 C 
HETATM   41  O4  UNL     1     -13.847  25.238  -4.216  1.00  0.00    -0.271 OA
ATOM     42  H3  UNL     1     -12.922  22.506  -2.876  1.00  0.00     0.163 HD
BRANCH  40  43
HETATM   43  C18 UNL     1     -12.036  24.993  -2.781  1.00  0.00     0.272 C 
HETATM   44  C19 UNL     1     -12.538  25.729  -1.582  1.00  0.00     0.050 C 
BRANCH  43  45
HETATM   45  N4  UNL     1     -11.282  25.865  -3.641  1.00  0.00    -0.067 N 
HETATM   46  C20 UNL     1     -10.594  25.144  -4.658  1.00  0.00     0.267 C 
ATOM     47  H42 UNL     1     -11.873  26.594  -4.040  1.00  0.00     0.277 HD
ATOM     48  H41 UNL     1     -10.642  26.452  -3.105  1.00  0.00     0.277 HD
ENDBRANCH  43  45
ENDBRANCH  40  43
ENDBRANCH  32  39
ENDBRANCH  29  32
ENDBRANCH   8  29
TORSDOF 14
ENDMDL
MODEL 2
REMARK VINA RESULT: -9.048358474      2.595      8.414
REMARK  14 active torsions:
REMARK  status: ('A' for Active; 'I' for Inactive)
REMARK    1  A    between atoms: C2_2  and  C3_3 
REMARK    2  A    between atoms: C3_3  and  C6_6 
REMARK    3  A    between atoms: C6_6  and  C7_7 
REMARK    4  A    between atoms: C7_7  and  N1_8 
REMARK    5  A    between atoms: C7_7  and  C27_40 
REMARK       I    between atoms: N1_8  and  C8_10 
REMARK    6  A    between atoms: C8_10  and  C9_12 
REMARK    7  A    between atoms: N2_19  and  C15_20 
REMARK    8  A    between atoms: C15_20  and  O3_21 
REMARK    9  A    between atoms: C15_20  and  C16_23 
REMARK   10  A    between atoms: C16_23  and  N3_24 
REMARK       I    between atoms: N3_24  and  C17_26 
REMARK   11  A    between atoms: C17_26  and  C18_28 
REMARK   12  A    between atoms: C18_28  and  N4_30 
REMARK   13  A    between atoms: C27_40  and  O5_41 
REMARK   14  A    between atoms: C27_40  and  N5_43 
ROOT
HETATM    1  C9  UNL     1     -17.623  17.825  -7.344  1.00  0.00     0.210 C 
HETATM    2  C10 UNL     1     -16.880  17.378  -8.546  1.00  0.00     0.183 A 
HETATM    3  O2  UNL     1     -17.212  16.399  -9.421  1.00  0.00    -0.373 OA
HETATM    4  C11 UNL     1     -17.291  17.796  -9.826  1.00  0.00     0.155 A 
HETATM    5  C12 UNL     1     -18.694  18.256  -9.954  1.00  0.00     0.059 C 
HETATM    6  C13 UNL     1     -19.566  17.719  -8.828  1.00  0.00     0.085 C 
HETATM    7  C14 UNL     1     -19.645  16.208  -8.891  1.00  0.00     0.032 C 
HETATM    8  N2  UNL     1     -19.042  18.082  -7.532  1.00  0.00    -0.343 N 
ENDROOT
BRANCH   1   9
HETATM    9  C8  UNL     1     -16.857  19.058  -6.913  1.00  0.00     0.247 C 
HETATM   10  N1  UNL     1     -16.571  19.269  -5.563  1.00  0.00    -0.322 N 
ATOM     11  H1  UNL     1     -16.893  18.579  -4.883  1.00  0.00     0.169 HD
HETATM   12  O1  UNL     1     -16.507  19.850  -7.807  1.00  0.00    -0.271 OA
BRANCH  10  13
HETATM   13  C7  UNL     1     -15.797  20.489  -5.054  1.00  0.00     0.083 C 
BRANCH  13  14
HETATM   14  C6  UNL     1     -16.434  20.957  -3.865  1.00  0.00     0.016 C 
BRANCH  14  15
HETATM   15  C3  UNL     1     -17.003  22.261  -3.559  1.00  0.00    -0.028 C 
HETATM   16  C4  UNL     1     -18.394  22.455  -3.141  1.00  0.00     0.019 C 
HETATM   17  C5  UNL     1     -16.981  22.995  -4.990  1.00  0.00     0.019 C 
BRANCH  15  18
HETATM   18  C2  UNL     1     -16.077  23.183  -2.780  1.00  0.00     0.008 C 
HETATM   19  C1  UNL     1     -15.423  24.118  -3.770  1.00  0.00     0.006 C 
ENDBRANCH  15  18
ENDBRANCH  14  15
ENDBRANCH  13  14
BRANCH  13  20
HETATM   20  C27 UNL     1     -14.436  20.261  -5.441  1.00  0.00     0.165 C 
BRANCH  20  21
HETATM   21  O5  UNL     1     -13.893  19.271  -4.617  1.00  0.00    -0.344 OA
ATOM     22  H5  UNL     1     -13.101  19.607  -4.216  1.00  0.00     0.219 HD
ENDBRANCH  20  21
BRANCH  20  23
HETATM   23  N5  UNL     1     -13.447  20.642  -6.310  1.00  0.00    -0.360 N 
HETATM   24  C28 UNL     1     -13.029  22.087  -6.294  1.00  0.00     0.125 C 
HETATM   25  C29 UNL     1     -13.708  22.702  -7.490  1.00  0.00     0.020 C 
HETATM   26  C30 UNL     1     -13.314  21.966  -8.726  1.00  0.00     0.003 C 
HETATM   27  C31 UNL     1     -12.256  20.935  -8.422  1.00  0.00     0.020 C 
HETATM   28  C32 UNL     1     -12.728  19.946  -7.342  1.00  0.00     0.125 C 
ENDBRANCH  20  23
ENDBRANCH  13  20
ENDBRANCH  10  13
ENDBRANCH   1   9
BRANCH   8  29
HETATM   29  C15 UNL     1     -19.863  18.621  -6.564  1.00  0.00     0.144 C 
BRANCH  29  30
HETATM   30  O3  UNL     1     -20.134  19.901  -6.800  1.00  0.00    -0.347 OA
ATOM     31  H3  UNL     1     -21.064  20.049  -6.929  1.00  0.00     0.219 HD
ENDBRANCH  29  30
BRANCH  29  32
HETATM   32  C16 UNL     1     -20.526  18.185  -5.368  1.00  0.00     0.102 C 
HETATM   33  C21 UNL     1     -21.119  19.401  -4.597  1.00  0.00     0.046 C 
HETATM   34  C22 UNL     1     -19.902  19.298  -3.818  1.00  0.00     0.004 A 
HETATM   35  C23 UNL     1     -19.976  17.813  -4.088  1.00  0.00     0.035 A 
HETATM   36  C24 UNL     1     -19.447  18.391  -2.853  1.00  0.00    -0.037 A 
HETATM   37  C25 UNL     1     -18.057  18.028  -2.446  1.00  0.00     0.015 C 
HETATM   38  C26 UNL     1     -20.310  18.444  -1.548  1.00  0.00     0.015 C 
BRANCH  32  39
HETATM   39  N3  UNL     1     -21.769  17.476  -5.793  1.00  0.00    -0.342 N 
HETATM   40  C17 UNL     1     -21.977  16.132  -6.009  1.00  0.00     0.249 C 
HETATM   41  O4  UNL     1     -21.106  15.257  -5.868  1.00  0.00    -0.271 OA
ATOM     42  H3  UNL     1     -22.582  18.074  -5.945  1.00  0.00     0.163 HD
BRANCH  40  43
HETATM   43  C18 UNL     1     -23.331  15.592  -6.451  1.00  0.00     0.272 C 
HETATM   44  C19 UNL     1     -24.028  16.621  -7.280  1.00  0.00     0.050 C 
BRANCH  43  45
HETATM   45  N4  UNL     1     -24.118  15.242  -5.298  1.00  0.00    -0.067 N 
HETATM   46  C20 UNL     1     -25.146  16.194  -5.048  1.00  0.00     0.267 C 
ATOM     47  H42 UNL     1     -24.498  14.299  -5.381  1.00  0.00     0.277 HD
ATOM     48  H41 UNL     1     -23.530  15.106  -4.476  1.00  0.00     0.277 HD
ENDBRANCH  43  45
ENDBRANCH  40  43
ENDBRANCH  32  39
ENDBRANCH  29  32
ENDBRANCH   8  29
TORSDOF 14
ENDMDL
MODEL 3
REMARK VINA RESULT: -8.969348040      2.584      5.404
REMARK  14 active torsions:
REMARK  status: ('A' for Active; 'I' for Inactive)
REMARK    1  A    between atoms: C2_2  and  C3_3 
REMARK    2  A    between atoms: C3_3  and  C6_6 
REMARK    3  A    between atoms: C6_6  and  C7_7 
REMARK    4  A    between atoms: C7_7  and  N1_8 
REMARK    5  A    between atoms: C7_7  and  C27_40 
REMARK       I    between atoms: N1_8  and  C8_10 
REMARK    6  A    between atoms: C8_10  and  C9_12 
REMARK    7  A    between atoms: N2_19  and  C15_20 
REMARK    8  A    between atoms: C15_20  and  O3_21 
REMARK    9  A    between atoms: C15_20  and  C16_23 
REMARK   10  A    between atoms: C16_23  and  N3_24 
REMARK       I    between atoms: N3_24  and  C17_26 
REMARK   11  A    between atoms: C17_26  and  C18_28 
REMARK   12  A    between atoms: C18_28  and  N4_30 
REMARK   13  A    between atoms: C27_40  and  O5_41 
REMARK   14  A    between atoms: C27_40  and  N5_43 
ROOT
HETATM    1  C9  UNL     1     -17.686  20.150  -4.420  1.00  0.00     0.210 C 
HETATM    2  C10 UNL     1     -18.218  21.217  -3.541  1.00  0.00     0.183 A 
HETATM    3  O2  UNL     1     -17.527  22.127  -2.813  1.00  0.00    -0.373 OA
HETATM    4  C11 UNL     1     -18.265  22.549  -3.996  1.00  0.00     0.155 A 
HETATM    5  C12 UNL     1     -17.361  22.899  -5.117  1.00  0.00     0.059 C 
HETATM    6  C13 UNL     1     -16.202  21.919  -5.230  1.00  0.00     0.085 C 
HETATM    7  C14 UNL     1     -15.330  21.983  -3.993  1.00  0.00     0.032 C 
HETATM    8  N2  UNL     1     -16.667  20.560  -5.374  1.00  0.00    -0.343 N 
ENDROOT
BRANCH   1   9
HETATM    9  C8  UNL     1     -18.933  19.613  -5.092  1.00  0.00     0.247 C 
HETATM   10  N1  UNL     1     -19.444  18.366  -4.726  1.00  0.00    -0.322 N 
ATOM     11  H1  UNL     1     -18.957  17.832  -4.006  1.00  0.00     0.169 HD
HETATM   12  O1  UNL     1     -19.460  20.328  -5.963  1.00  0.00    -0.271 OA
BRANCH  10  13
HETATM   13  C7  UNL     1     -20.703  17.762  -5.357  1.00  0.00     0.083 C 
BRANCH  13  14
HETATM   14  C6  UNL     1     -20.331  17.149  -6.592  1.00  0.00     0.016 C 
BRANCH  14  15
HETATM   15  C3  UNL     1     -20.894  17.310  -7.924  1.00  0.00    -0.028 C 
HETATM   16  C4  UNL     1     -20.942  18.593  -8.629  1.00  0.00     0.019 C 
HETATM   17  C5  UNL     1     -22.455  17.005  -7.681  1.00  0.00     0.019 C 
BRANCH  15  18
HETATM   18  C2  UNL     1     -20.558  16.183  -8.888  1.00  0.00     0.008 C 
HETATM   19  C1  UNL     1     -20.519  14.897  -8.095  1.00  0.00     0.006 C 
ENDBRANCH  15  18
ENDBRANCH  14  15
ENDBRANCH  13  14
BRANCH  13  20
HETATM   20  C27 UNL     1     -21.531  17.377  -4.253  1.00  0.00     0.165 C 
BRANCH  20  21
HETATM   21  O5  UNL     1     -20.833  16.458  -3.466  1.00  0.00    -0.344 OA
ATOM     22  H5  UNL     1     -21.455  15.862  -3.066  1.00  0.00     0.219 HD
ENDBRANCH  20  21
BRANCH  20  23
HETATM   23  N5  UNL     1     -22.755  17.557  -3.664  1.00  0.00    -0.360 N 
HETATM   24  C28 UNL     1     -23.959  17.021  -4.391  1.00  0.00     0.125 C 
HETATM   25  C29 UNL     1     -24.587  18.226  -5.042  1.00  0.00     0.020 C 
HETATM   26  C30 UNL     1     -24.905  19.250  -4.005  1.00  0.00     0.003 C 
HETATM   27  C31 UNL     1     -24.637  18.713  -2.622  1.00  0.00     0.020 C 
HETATM   28  C32 UNL     1     -23.179  18.242  -2.475  1.00  0.00     0.125 C 
ENDBRANCH  20  23
ENDBRANCH  13  20
ENDBRANCH  10  13
ENDBRANCH   1   9
BRANCH   8  29
HETATM   29  C15 UNL     1     -16.150  19.737  -6.352  1.00  0.00     0.144 C 
BRANCH  29  30
HETATM   30  O3  UNL     1     -15.661  18.610  -5.844  1.00  0.00    -0.347 OA
ATOM     31  H3  UNL     1     -15.691  17.896  -6.471  1.00  0.00     0.219 HD
ENDBRANCH  29  30
BRANCH  29  32
HETATM   32  C16 UNL     1     -15.998  19.746  -7.779  1.00  0.00     0.102 C 
HETATM   33  C21 UNL     1     -17.252  20.372  -8.457  1.00  0.00     0.046 C 
HETATM   34  C22 UNL     1     -17.653  18.991  -8.630  1.00  0.00     0.004 A 
HETATM   35  C23 UNL     1     -16.177  18.684  -8.736  1.00  0.00     0.035 A 
HETATM   36  C24 UNL     1     -17.215  17.956  -9.465  1.00  0.00    -0.037 A 
HETATM   37  C25 UNL     1     -17.289  16.475  -9.290  1.00  0.00     0.015 C 
HETATM   38  C26 UNL     1     -17.510  18.256 -10.973  1.00  0.00     0.015 C 
BRANCH  32  39
HETATM   39  N3  UNL     1     -14.956  20.767  -8.099  1.00  0.00    -0.342 N 
HETATM   40  C17 UNL     1     -13.599  20.730  -7.865  1.00  0.00     0.249 C 
HETATM   41  O4  UNL     1     -13.006  19.781  -7.326  1.00  0.00    -0.271 OA
ATOM     42  H3  UNL     1     -15.298  21.612  -8.555  1.00  0.00     0.163 HD
BRANCH  40  43
HETATM   43  C18 UNL     1     -12.687  21.884  -8.263  1.00  0.00     0.272 C 
HETATM   44  C19 UNL     1     -11.273  21.405  -8.311  1.00  0.00     0.050 C 
BRANCH  43  45
HETATM   45  N4  UNL     1     -12.831  22.966  -7.326  1.00  0.00    -0.067 N 
HETATM   46  C20 UNL     1     -11.637  23.189  -6.584  1.00  0.00     0.267 C 
ATOM     47  H42 UNL     1     -13.143  23.820  -7.790  1.00  0.00     0.277 HD
ATOM     48  H41 UNL     1     -13.629  22.818  -6.708  1.00  0.00     0.277 HD
ENDBRANCH  43  45
ENDBRANCH  40  43
ENDBRANCH  32  39
ENDBRANCH  29  32
ENDBRANCH   8  29
TORSDOF 14
ENDMDL
MODEL 4
REMARK VINA RESULT: -8.947344108      2.241      8.683
REMARK  14 active torsions:
REMARK  status: ('A' for Active; 'I' for Inactive)
REMARK    1  A    between atoms: C2_2  and  C3_3 
REMARK    2  A    between atoms: C3_3  and  C6_6 
REMARK    3  A    between atoms: C6_6  and  C7_7 
REMARK    4  A    between atoms: C7_7  and  N1_8 
REMARK    5  A    between atoms: C7_7  and  C27_40 
REMARK       I    between atoms: N1_8  and  C8_10 
REMARK    6  A    between atoms: C8_10  and  C9_12 
REMARK    7  A    between atoms: N2_19  and  C15_20 
REMARK    8  A    between atoms: C15_20  and  O3_21 
REMARK    9  A    between atoms: C15_20  and  C16_23 
REMARK   10  A    between atoms: C16_23  and  N3_24 
REMARK       I    between atoms: N3_24  and  C17_26 
REMARK   11  A    between atoms: C17_26  and  C18_28 
REMARK   12  A    between atoms: C18_28  and  N4_30 
REMARK   13  A    between atoms: C27_40  and  O5_41 
REMARK   14  A    between atoms: C27_40  and  N5_43 
ROOT
HETATM    1  C9  UNL     1     -18.864  19.719  -4.631  1.00  0.00     0.210 C 
HETATM    2  C10 UNL     1     -19.527  20.079  -3.355  1.00  0.00     0.183 A 
HETATM    3  O2  UNL     1     -20.530  19.428  -2.719  1.00  0.00    -0.373 OA
HETATM    4  C11 UNL     1     -19.182  19.407  -2.167  1.00  0.00     0.155 A 
HETATM    5  C12 UNL     1     -18.543  18.079  -2.317  1.00  0.00     0.059 C 
HETATM    6  C13 UNL     1     -18.838  17.464  -3.678  1.00  0.00     0.085 C 
HETATM    7  C14 UNL     1     -20.322  17.203  -3.833  1.00  0.00     0.032 C 
HETATM    8  N2  UNL     1     -18.428  18.337  -4.754  1.00  0.00    -0.343 N 
ENDROOT
BRANCH   1   9
HETATM    9  C8  UNL     1     -17.715  20.702  -4.704  1.00  0.00     0.247 C 
HETATM   10  N1  UNL     1     -16.457  20.350  -4.209  1.00  0.00    -0.322 N 
ATOM     11  H1  UNL     1     -16.338  19.424  -3.798  1.00  0.00     0.169 HD
HETATM   12  O1  UNL     1     -17.950  21.812  -5.218  1.00  0.00    -0.271 OA
BRANCH  10  13
HETATM   13  C7  UNL     1     -15.249  21.290  -4.255  1.00  0.00     0.083 C 
BRANCH  13  14
HETATM   14  C6  UNL     1     -15.181  21.989  -3.011  1.00  0.00     0.016 C 
BRANCH  14  15
HETATM   15  C3  UNL     1     -15.107  23.417  -2.743  1.00  0.00    -0.028 C 
HETATM   16  C4  UNL     1     -15.933  24.093  -1.741  1.00  0.00     0.019 C 
HETATM   17  C5  UNL     1     -15.655  24.058  -4.113  1.00  0.00     0.019 C 
BRANCH  15  18
HETATM   18  C2  UNL     1     -13.694  23.982  -2.740  1.00  0.00     0.008 C 
HETATM   19  C1  UNL     1     -13.651  25.113  -3.742  1.00  0.00     0.006 C 
ENDBRANCH  15  18
ENDBRANCH  14  15
ENDBRANCH  13  14
BRANCH  13  20
HETATM   20  C27 UNL     1     -14.289  20.631  -5.090  1.00  0.00     0.165 C 
BRANCH  20  21
HETATM   21  O5  UNL     1     -14.270  19.271  -4.768  1.00  0.00    -0.344 OA
ATOM     22  H5  UNL     1     -13.498  19.091  -4.245  1.00  0.00     0.219 HD
ENDBRANCH  20  21
BRANCH  20  23
HETATM   23  N5  UNL     1     -13.370  20.817  -6.090  1.00  0.00    -0.360 N 
HETATM   24  C28 UNL     1     -12.742  22.179  -6.210  1.00  0.00     0.125 C 
HETATM   25  C29 UNL     1     -13.465  22.840  -7.355  1.00  0.00     0.020 C 
HETATM   26  C30 UNL     1     -13.340  22.000  -8.581  1.00  0.00     0.003 C 
HETATM   27  C31 UNL     1     -12.418  20.832  -8.339  1.00  0.00     0.020 C 
HETATM   28  C32 UNL     1     -12.896  19.975  -7.154  1.00  0.00     0.125 C 
ENDBRANCH  20  23
ENDBRANCH  13  20
ENDBRANCH  10  13
ENDBRANCH   1   9
BRANCH   8  29
HETATM   29  C15 UNL     1     -17.686  17.853  -5.811  1.00  0.00     0.144 C 
BRANCH  29  30
HETATM   30  O3  UNL     1     -16.585  17.232  -5.400  1.00  0.00    -0.347 OA
ATOM     31  H3  UNL     1     -16.042  17.793  -4.860  1.00  0.00     0.219 HD
ENDBRANCH  29  30
BRANCH  29  32
HETATM   32  C16 UNL     1     -17.772  17.819  -7.244  1.00  0.00     0.102 C 
HETATM   33  C21 UNL     1     -16.469  17.224  -7.854  1.00  0.00     0.046 C 
HETATM   34  C22 UNL     1     -16.104  18.615  -8.029  1.00  0.00     0.004 A 
HETATM   35  C23 UNL     1     -17.583  18.873  -8.208  1.00  0.00     0.035 A 
HETATM   36  C24 UNL     1     -16.535  19.624  -8.899  1.00  0.00    -0.037 A 
HETATM   37  C25 UNL     1     -16.516  21.109  -8.743  1.00  0.00     0.015 C 
HETATM   38  C26 UNL     1     -16.162  19.313 -10.387  1.00  0.00     0.015 C 
BRANCH  32  39
HETATM   39  N3  UNL     1     -18.766  16.761  -7.595  1.00  0.00    -0.342 N 
HETATM   40  C17 UNL     1     -20.142  16.815  -7.569  1.00  0.00     0.249 C 
HETATM   41  O4  UNL     1     -20.798  17.815  -7.235  1.00  0.00    -0.271 OA
ATOM     42  H3  UNL     1     -18.369  15.872  -7.896  1.00  0.00     0.163 HD
BRANCH  40  43
HETATM   43  C18 UNL     1     -20.997  15.617  -7.963  1.00  0.00     0.272 C 
HETATM   44  C19 UNL     1     -20.653  15.198  -9.355  1.00  0.00     0.050 C 
BRANCH  43  45
HETATM   45  N4  UNL     1     -22.391  15.955  -7.858  1.00  0.00    -0.067 N 
HETATM   46  C20 UNL     1     -23.055  15.174  -6.869  1.00  0.00     0.267 C 
ATOM     47  H42 UNL     1     -22.519  16.953  -7.688  1.00  0.00     0.277 HD
ATOM     48  H41 UNL     1     -22.858  15.885  -8.762  1.00  0.00     0.277 HD
ENDBRANCH  43  45
ENDBRANCH  40  43
ENDBRANCH  32  39
ENDBRANCH  29  32
ENDBRANCH   8  29
TORSDOF 14
ENDMDL
MODEL 5
REMARK VINA RESULT: -8.928726837      2.338      6.053
REMARK  14 active torsions:
REMARK  status: ('A' for Active; 'I' for Inactive)
REMARK    1  A    between atoms: C2_2  and  C3_3 
REMARK    2  A    between atoms: C3_3  and  C6_6 
REMARK    3  A    between atoms: C6_6  and  C7_7 
REMARK    4  A    between atoms: C7_7  and  N1_8 
REMARK    5  A    between atoms: C7_7  and  C27_40 
REMARK       I    between atoms: N1_8  and  C8_10 
REMARK    6  A    between atoms: C8_10  and  C9_12 
REMARK    7  A    between atoms: N2_19  and  C15_20 
REMARK    8  A    between atoms: C15_20  and  O3_21 
REMARK    9  A    between atoms: C15_20  and  C16_23 
REMARK   10  A    between atoms: C16_23  and  N3_24 
REMARK       I    between atoms: N3_24  and  C17_26 
REMARK   11  A    between atoms: C17_26  and  C18_28 
REMARK   12  A    between atoms: C18_28  and  N4_30 
REMARK   13  A    between atoms: C27_40  and  O5_41 
REMARK   14  A    between atoms: C27_40  and  N5_43 
ROOT
HETATM    1  C9  UNL     1     -16.774  20.297  -4.267  1.00  0.00     0.210 C 
HETATM    2  C10 UNL     1     -17.342  21.365  -3.410  1.00  0.00     0.183 A 
HETATM    3  O2  UNL     1     -16.838  22.597  -3.161  1.00  0.00    -0.373 OA
HETATM    4  C11 UNL     1     -18.024  22.449  -3.993  1.00  0.00     0.155 A 
HETATM    5  C12 UNL     1     -17.736  22.723  -5.421  1.00  0.00     0.059 C 
HETATM    6  C13 UNL     1     -16.404  22.126  -5.850  1.00  0.00     0.085 C 
HETATM    7  C14 UNL     1     -15.263  22.773  -5.092  1.00  0.00     0.032 C 
HETATM    8  N2  UNL     1     -16.353  20.705  -5.598  1.00  0.00    -0.343 N 
ENDROOT
BRANCH   1   9
HETATM    9  C8  UNL     1     -17.880  19.262  -4.294  1.00  0.00     0.247 C 
HETATM   10  N1  UNL     1     -19.146  19.602  -4.774  1.00  0.00    -0.322 N 
ATOM     11  H1  UNL     1     -19.304  20.557  -5.096  1.00  0.00     0.169 HD
HETATM   12  O1  UNL     1     -17.600  18.123  -3.878  1.00  0.00    -0.271 OA
BRANCH  10  13
HETATM   13  C7  UNL     1     -20.309  18.607  -4.837  1.00  0.00     0.083 C 
BRANCH  13  14
HETATM   14  C6  UNL     1     -21.129  18.807  -3.685  1.00  0.00     0.016 C 
BRANCH  14  15
HETATM   15  C3  UNL     1     -20.974  18.305  -2.328  1.00  0.00    -0.028 C 
HETATM   16  C4  UNL     1     -19.896  18.728  -1.430  1.00  0.00     0.019 C 
HETATM   17  C5  UNL     1     -20.615  16.755  -2.569  1.00  0.00     0.019 C 
BRANCH  15  18
HETATM   18  C2  UNL     1     -22.279  18.153  -1.562  1.00  0.00     0.008 C 
HETATM   19  C1  UNL     1     -23.410  18.245  -2.560  1.00  0.00     0.006 C 
ENDBRANCH  15  18
ENDBRANCH  14  15
ENDBRANCH  13  14
BRANCH  13  20
HETATM   20  C27 UNL     1     -20.569  18.419  -6.234  1.00  0.00     0.165 C 
BRANCH  20  21
HETATM   21  O5  UNL     1     -20.163  19.562  -6.926  1.00  0.00    -0.344 OA
ATOM     22  H5  UNL     1     -20.930  19.992  -7.285  1.00  0.00     0.219 HD
ENDBRANCH  20  21
BRANCH  20  23
HETATM   23  N5  UNL     1     -21.069  17.546  -7.165  1.00  0.00    -0.360 N 
HETATM   24  C28 UNL     1     -22.396  16.900  -6.867  1.00  0.00     0.125 C 
HETATM   25  C29 UNL     1     -22.053  15.511  -6.396  1.00  0.00     0.020 C 
HETATM   26  C30 UNL     1     -21.253  14.808  -7.440  1.00  0.00     0.003 C 
HETATM   27  C31 UNL     1     -21.155  15.643  -8.692  1.00  0.00     0.020 C 
HETATM   28  C32 UNL     1     -20.550  17.026  -8.400  1.00  0.00     0.125 C 
ENDBRANCH  20  23
ENDBRANCH  13  20
ENDBRANCH  10  13
ENDBRANCH   1   9
BRANCH   8  29
HETATM   29  C15 UNL     1     -15.921  19.830  -6.572  1.00  0.00     0.144 C 
BRANCH  29  30
HETATM   30  O3  UNL     1     -15.479  18.689  -6.054  1.00  0.00    -0.347 OA
ATOM     31  H3  UNL     1     -15.365  18.019  -6.718  1.00  0.00     0.219 HD
ENDBRANCH  29  30
BRANCH  29  32
HETATM   32  C16 UNL     1     -15.822  19.798  -8.004  1.00  0.00     0.102 C 
HETATM   33  C21 UNL     1     -17.079  20.449  -8.653  1.00  0.00     0.046 C 
HETATM   34  C22 UNL     1     -17.531  19.077  -8.774  1.00  0.00     0.004 A 
HETATM   35  C23 UNL     1     -16.071  18.718  -8.925  1.00  0.00     0.035 A 
HETATM   36  C24 UNL     1     -17.159  18.008  -9.596  1.00  0.00    -0.037 A 
HETATM   37  C25 UNL     1     -17.275  16.535  -9.379  1.00  0.00     0.015 C 
HETATM   38  C26 UNL     1     -17.500  18.278 -11.100  1.00  0.00     0.015 C 
BRANCH  32  39
HETATM   39  N3  UNL     1     -14.759  20.774  -8.388  1.00  0.00    -0.342 N 
HETATM   40  C17 UNL     1     -13.410  20.748  -8.112  1.00  0.00     0.249 C 
HETATM   41  O4  UNL     1     -12.844  19.850  -7.467  1.00  0.00    -0.271 OA
ATOM     42  H3  UNL     1     -15.078  21.574  -8.934  1.00  0.00     0.163 HD
BRANCH  40  43
HETATM   43  C18 UNL     1     -12.474  21.850  -8.591  1.00  0.00     0.272 C 
HETATM   44  C19 UNL     1     -11.061  21.372  -8.508  1.00  0.00     0.050 C 
BRANCH  43  45
HETATM   45  N4  UNL     1     -12.663  23.033  -7.794  1.00  0.00    -0.067 N 
HETATM   46  C20 UNL     1     -11.724  23.109  -6.726  1.00  0.00     0.267 C 
ATOM     47  H42 UNL     1     -12.639  23.875  -8.368  1.00  0.00     0.277 HD
ATOM     48  H41 UNL     1     -13.621  23.100  -7.451  1.00  0.00     0.277 HD
ENDBRANCH  43  45
ENDBRANCH  40  43
ENDBRANCH  32  39
ENDBRANCH  29  32
ENDBRANCH   8  29
TORSDOF 14
ENDMDL
