MODEL 1
REMARK VINA RESULT: -9.165069692      0.000      0.000
REMARK  13 active torsions:
REMARK  status: ('A' for Active; 'I' for Inactive)
REMARK    1  A    between atoms: C2_2  and  C3_3 
REMARK    2  A    between atoms: C3_3  and  C5_5 
REMARK       I    between atoms: C5_5  and  N1_7 
REMARK       I    between atoms: N2_10  and  C8_11 
REMARK    3  A    between atoms: C8_11  and  C9_13 
REMARK    4  A    between atoms: C9_13  and  C10_14 
REMARK    5  A    between atoms: C9_13  and  N3_18 
REMARK    6  A    between atoms: C10_14  and  C11_15 
REMARK       I    between atoms: N3_18  and  C14_20 
REMARK    7  A    between atoms: C14_20  and  C15_22 
REMARK    8  A    between atoms: C15_22  and  N4_23 
REMARK    9  A    between atoms: C15_22  and  C24_38 
REMARK       I    between atoms: N4_23  and  C16_25 
REMARK   10  A    between atoms: C16_25  and  C17_27 
REMARK   11  A    between atoms: C17_27  and  N5_29 
REMARK       I    between atoms: N5_29  and  C19_31 
REMARK   12  A    between atoms: C19_31  and  O6_33 
REMARK   13  A    between atoms: O6_33  and  C20_34 
ROOT
HETATM    1  N3  UNL     1     -15.040  21.925  -5.051  1.00  0.00    -0.343 N 
ATOM      2  H3  UNL     1     -14.450  21.631  -4.273  1.00  0.00     0.163 HD
HETATM    3  C14 UNL     1     -14.461  22.224  -6.309  1.00  0.00     0.265 C 
HETATM    4  O3  UNL     1     -15.315  22.567  -7.219  1.00  0.00    -0.266 OA
ENDROOT
BRANCH   1   5
HETATM    5  C9  UNL     1     -16.512  22.040  -4.871  1.00  0.00     0.177 C 
BRANCH   5   6
HETATM    6  C8  UNL     1     -16.893  20.744  -4.185  1.00  0.00     0.243 C 
HETATM    7  N2  UNL     1     -17.517  19.681  -4.931  1.00  0.00    -0.336 N 
HETATM    8  C7  UNL     1     -17.929  18.462  -4.311  1.00  0.00     0.147 C 
HETATM    9  C28 UNL     1     -17.670  19.860  -6.347  1.00  0.00     0.176 C 
HETATM   10  C6  UNL     1     -19.181  17.843  -4.819  1.00  0.00     0.155 C 
HETATM   11  N1  UNL     1     -19.239  17.927  -6.279  1.00  0.00    -0.285 N 
HETATM   12  C5  UNL     1     -19.634  16.788  -7.010  1.00  0.00     0.230 C 
HETATM   13  C30 UNL     1     -18.876  19.157  -6.887  1.00  0.00     0.249 C 
HETATM   14  O1  UNL     1     -19.932  15.726  -6.393  1.00  0.00    -0.273 OA
HETATM   15  O7  UNL     1     -19.549  19.619  -7.834  1.00  0.00    -0.271 OA
HETATM   16  C29 UNL     1     -16.469  19.223  -7.086  1.00  0.00     0.042 C 
HETATM   17  O2  UNL     1     -16.684  20.535  -2.969  1.00  0.00    -0.271 OA
BRANCH  12  18
HETATM   18  C3  UNL     1     -19.717  16.767  -8.469  1.00  0.00     0.074 C 
HETATM   19  C4  UNL     1     -20.725  15.759  -8.979  1.00  0.00     0.020 C 
BRANCH  18  20
HETATM   20  C2  UNL     1     -18.345  16.461  -9.068  1.00  0.00     0.009 C 
HETATM   21  C1  UNL     1     -17.881  17.485 -10.045  1.00  0.00     0.006 C 
ENDBRANCH  18  20
ENDBRANCH  12  18
ENDBRANCH   5   6
BRANCH   5  22
HETATM   22  C10 UNL     1     -16.805  23.147  -3.928  1.00  0.00     0.038 C 
BRANCH  22  23
HETATM   23  C11 UNL     1     -15.664  23.733  -3.191  1.00  0.00    -0.020 C 
HETATM   24  C12 UNL     1     -15.854  24.053  -1.754  1.00  0.00     0.009 C 
HETATM   25  C13 UNL     1     -15.263  25.044  -3.885  1.00  0.00     0.009 C 
ENDBRANCH  22  23
ENDBRANCH   5  22
ENDBRANCH   1   5
BRANCH   3  26
HETATM   26  C15 UNL     1     -13.038  22.178  -6.649  1.00  0.00     0.087 C 
BRANCH  26  27
HETATM   27  N4  UNL     1     -12.359  23.420  -6.409  1.00  0.00    -0.324 N 
HETATM   28  C16 UNL     1     -12.011  23.913  -5.146  1.00  0.00     0.244 C 
HETATM   29  O4  UNL     1     -12.277  23.293  -4.108  1.00  0.00    -0.271 OA
ATOM     30  H4  UNL     1     -12.111  23.986  -7.220  1.00  0.00     0.169 HD
BRANCH  28  31
HETATM   31  C17 UNL     1     -11.301  25.218  -5.042  1.00  0.00     0.175 C 
HETATM   32  C18 UNL     1     -10.944  25.436  -3.584  1.00  0.00     0.042 C 
BRANCH  31  33
HETATM   33  N5  UNL     1     -10.174  25.344  -5.904  1.00  0.00    -0.324 N 
HETATM   34  C19 UNL     1     -10.060  26.423  -6.820  1.00  0.00     0.362 C 
HETATM   35  O5  UNL     1     -10.976  27.314  -6.903  1.00  0.00    -0.238 OA
ATOM     36  H5  UNL     1      -9.434  24.645  -5.863  1.00  0.00     0.165 HD
BRANCH  34  37
HETATM   37  O6  UNL     1      -8.998  26.616  -7.676  1.00  0.00    -0.294 OA
BRANCH  37  38
HETATM   38  C20 UNL     1      -7.995  27.539  -7.435  1.00  0.00     0.061 C 
HETATM   39  C21 UNL     1      -6.650  27.019  -7.909  1.00  0.00     0.046 C 
HETATM   40  C22 UNL     1      -8.299  28.740  -8.352  1.00  0.00     0.046 C 
HETATM   41  C23 UNL     1      -7.861  28.050  -6.055  1.00  0.00     0.046 C 
ENDBRANCH  37  38
ENDBRANCH  34  37
ENDBRANCH  31  33
ENDBRANCH  28  31
ENDBRANCH  26  27
BRANCH  26  42
HETATM   42  C24 UNL     1     -12.652  21.525  -7.928  1.00  0.00    -0.003 C 
HETATM   43  C25 UNL     1     -13.080  22.244  -9.175  1.00  0.00     0.021 C 
HETATM   44  C26 UNL     1     -11.094  21.634  -7.963  1.00  0.00     0.021 C 
HETATM   45  C27 UNL     1     -12.932  20.062  -7.928  1.00  0.00     0.021 C 
ENDBRANCH  26  42
ENDBRANCH   3  26
TORSDOF 13
ENDMDL
MODEL 2
REMARK VINA RESULT: -8.818410440      3.275     11.434
REMARK  13 active torsions:
REMARK  status: ('A' for Active; 'I' for Inactive)
REMARK    1  A    between atoms: C2_2  and  C3_3 
REMARK    2  A    between atoms: C3_3  and  C5_5 
REMARK       I    between atoms: C5_5  and  N1_7 
REMARK       I    between atoms: N2_10  and  C8_11 
REMARK    3  A    between atoms: C8_11  and  C9_13 
REMARK    4  A    between atoms: C9_13  and  C10_14 
REMARK    5  A    between atoms: C9_13  and  N3_18 
REMARK    6  A    between atoms: C10_14  and  C11_15 
REMARK       I    between atoms: N3_18  and  C14_20 
REMARK    7  A    between atoms: C14_20  and  C15_22 
REMARK    8  A    between atoms: C15_22  and  N4_23 
REMARK    9  A    between atoms: C15_22  and  C24_38 
REMARK       I    between atoms: N4_23  and  C16_25 
REMARK   10  A    between atoms: C16_25  and  C17_27 
REMARK   11  A    between atoms: C17_27  and  N5_29 
REMARK       I    between atoms: N5_29  and  C19_31 
REMARK   12  A    between atoms: C19_31  and  O6_33 
REMARK   13  A    between atoms: O6_33  and  C20_34 
ROOT
HETATM    1  N3  UNL     1     -17.610  19.060  -6.382  1.00  0.00    -0.343 N 
ATOM      2  H3  UNL     1     -17.088  18.184  -6.361  1.00  0.00     0.163 HD
HETATM    3  C14 UNL     1     -18.764  19.221  -5.577  1.00  0.00     0.265 C 
HETATM    4  O3  UNL     1     -19.326  20.382  -5.680  1.00  0.00    -0.266 OA
ENDROOT
BRANCH   1   5
HETATM    5  C9  UNL     1     -17.161  20.174  -7.259  1.00  0.00     0.177 C 
BRANCH   5   6
HETATM    6  C8  UNL     1     -15.651  20.141  -7.137  1.00  0.00     0.243 C 
HETATM    7  N2  UNL     1     -14.974  21.021  -6.218  1.00  0.00    -0.336 N 
HETATM    8  C7  UNL     1     -13.551  21.049  -6.107  1.00  0.00     0.147 C 
HETATM    9  C28 UNL     1     -15.783  21.846  -5.366  1.00  0.00     0.176 C 
HETATM   10  C6  UNL     1     -12.925  22.374  -5.856  1.00  0.00     0.155 C 
HETATM   11  N1  UNL     1     -13.707  23.134  -4.880  1.00  0.00    -0.285 N 
HETATM   12  C5  UNL     1     -13.031  23.804  -3.840  1.00  0.00     0.230 C 
HETATM   13  C30 UNL     1     -15.119  23.143  -5.026  1.00  0.00     0.249 C 
HETATM   14  O1  UNL     1     -11.771  23.738  -3.776  1.00  0.00    -0.273 OA
HETATM   15  O7  UNL     1     -15.765  24.202  -4.872  1.00  0.00    -0.271 OA
HETATM   16  C29 UNL     1     -15.999  21.137  -4.007  1.00  0.00     0.042 C 
HETATM   17  O2  UNL     1     -14.935  19.364  -7.807  1.00  0.00    -0.271 OA
BRANCH  12  18
HETATM   18  C3  UNL     1     -13.720  24.583  -2.814  1.00  0.00     0.074 C 
HETATM   19  C4  UNL     1     -12.793  25.530  -2.083  1.00  0.00     0.020 C 
BRANCH  18  20
HETATM   20  C2  UNL     1     -14.389  23.648  -1.807  1.00  0.00     0.009 C 
HETATM   21  C1  UNL     1     -15.781  24.045  -1.458  1.00  0.00     0.006 C 
ENDBRANCH  18  20
ENDBRANCH  12  18
ENDBRANCH   5   6
BRANCH   5  22
HETATM   22  C10 UNL     1     -17.503  19.859  -8.667  1.00  0.00     0.038 C 
BRANCH  22  23
HETATM   23  C11 UNL     1     -18.149  18.555  -8.935  1.00  0.00    -0.020 C 
HETATM   24  C12 UNL     1     -17.626  17.736 -10.056  1.00  0.00     0.009 C 
HETATM   25  C13 UNL     1     -19.636  18.806  -9.229  1.00  0.00     0.009 C 
ENDBRANCH  22  23
ENDBRANCH   5  22
ENDBRANCH   1   5
BRANCH   3  26
HETATM   26  C15 UNL     1     -19.348  18.224  -4.677  1.00  0.00     0.087 C 
BRANCH  26  27
HETATM   27  N4  UNL     1     -20.555  17.640  -5.188  1.00  0.00    -0.324 N 
HETATM   28  C16 UNL     1     -20.617  16.704  -6.227  1.00  0.00     0.244 C 
HETATM   29  O4  UNL     1     -19.598  16.301  -6.803  1.00  0.00    -0.271 OA
ATOM     30  H4  UNL     1     -21.435  17.929  -4.761  1.00  0.00     0.169 HD
BRANCH  28  31
HETATM   31  C17 UNL     1     -21.941  16.173  -6.654  1.00  0.00     0.175 C 
HETATM   32  C18 UNL     1     -21.740  14.743  -7.115  1.00  0.00     0.042 C 
BRANCH  31  33
HETATM   33  N5  UNL     1     -22.967  16.291  -5.672  1.00  0.00    -0.324 N 
HETATM   34  C19 UNL     1     -24.125  17.078  -5.901  1.00  0.00     0.362 C 
HETATM   35  O5  UNL     1     -24.278  17.716  -7.001  1.00  0.00    -0.238 OA
ATOM     36  H5  UNL     1     -22.866  15.799  -4.785  1.00  0.00     0.165 HD
BRANCH  34  37
HETATM   37  O6  UNL     1     -25.159  17.231  -5.005  1.00  0.00    -0.294 OA
BRANCH  37  38
HETATM   38  C20 UNL     1     -25.180  18.225  -4.041  1.00  0.00     0.061 C 
HETATM   39  C21 UNL     1     -26.034  19.399  -4.488  1.00  0.00     0.046 C 
HETATM   40  C22 UNL     1     -25.932  17.628  -2.836  1.00  0.00     0.046 C 
HETATM   41  C23 UNL     1     -23.877  18.727  -3.556  1.00  0.00     0.046 C 
ENDBRANCH  37  38
ENDBRANCH  34  37
ENDBRANCH  31  33
ENDBRANCH  28  31
ENDBRANCH  26  27
BRANCH  26  42
HETATM   42  C24 UNL     1     -19.410  18.552  -3.228  1.00  0.00    -0.003 C 
HETATM   43  C25 UNL     1     -20.380  17.736  -2.422  1.00  0.00     0.021 C 
HETATM   44  C26 UNL     1     -18.017  18.112  -2.672  1.00  0.00     0.021 C 
HETATM   45  C27 UNL     1     -19.474  20.019  -2.977  1.00  0.00     0.021 C 
ENDBRANCH  26  42
ENDBRANCH   3  26
TORSDOF 13
ENDMDL
MODEL 3
REMARK VINA RESULT: -8.631400870      3.303     12.066
REMARK  13 active torsions:
REMARK  status: ('A' for Active; 'I' for Inactive)
REMARK    1  A    between atoms: C2_2  and  C3_3 
REMARK    2  A    between atoms: C3_3  and  C5_5 
REMARK       I    between atoms: C5_5  and  N1_7 
REMARK       I    between atoms: N2_10  and  C8_11 
REMARK    3  A    between atoms: C8_11  and  C9_13 
REMARK    4  A    between atoms: C9_13  and  C10_14 
REMARK    5  A    between atoms: C9_13  and  N3_18 
REMARK    6  A    between atoms: C10_14  and  C11_15 
REMARK       I    between atoms: N3_18  and  C14_20 
REMARK    7  A    between atoms: C14_20  and  C15_22 
REMARK    8  A    between atoms: C15_22  and  N4_23 
REMARK    9  A    between atoms: C15_22  and  C24_38 
REMARK       I    between atoms: N4_23  and  C16_25 
REMARK   10  A    between atoms: C16_25  and  C17_27 
REMARK   11  A    between atoms: C17_27  and  N5_29 
REMARK       I    between atoms: N5_29  and  C19_31 
REMARK   12  A    between atoms: C19_31  and  O6_33 
REMARK   13  A    between atoms: O6_33  and  C20_34 
ROOT
HETATM    1  N3  UNL     1     -18.026  18.912  -6.128  1.00  0.00    -0.343 N 
ATOM      2  H3  UNL     1     -17.587  18.011  -6.319  1.00  0.00     0.163 HD
HETATM    3  C14 UNL     1     -19.062  19.009  -5.167  1.00  0.00     0.265 C 
HETATM    4  O3  UNL     1     -19.524  20.207  -5.003  1.00  0.00    -0.266 OA
ENDROOT
BRANCH   1   5
HETATM    5  C9  UNL     1     -17.581  20.129  -6.859  1.00  0.00     0.177 C 
BRANCH   5   6
HETATM    6  C8  UNL     1     -16.069  20.035  -6.826  1.00  0.00     0.243 C 
HETATM    7  N2  UNL     1     -15.302  20.926  -5.992  1.00  0.00    -0.336 N 
HETATM    8  C7  UNL     1     -13.875  20.896  -5.967  1.00  0.00     0.147 C 
HETATM    9  C28 UNL     1     -16.022  21.823  -5.134  1.00  0.00     0.176 C 
HETATM   10  C6  UNL     1     -13.181  22.202  -5.818  1.00  0.00     0.155 C 
HETATM   11  N1  UNL     1     -13.870  23.040  -4.835  1.00  0.00    -0.285 N 
HETATM   12  C5  UNL     1     -13.104  23.726  -3.870  1.00  0.00     0.230 C 
HETATM   13  C30 UNL     1     -15.287  23.103  -4.896  1.00  0.00     0.249 C 
HETATM   14  O1  UNL     1     -11.846  23.608  -3.878  1.00  0.00    -0.273 OA
HETATM   15  O7  UNL     1     -15.878  24.196  -4.756  1.00  0.00    -0.271 OA
HETATM   16  C29 UNL     1     -16.184  21.187  -3.732  1.00  0.00     0.042 C 
HETATM   17  O2  UNL     1     -15.429  19.198  -7.499  1.00  0.00    -0.271 OA
BRANCH  12  18
HETATM   18  C3  UNL     1     -13.696  24.580  -2.844  1.00  0.00     0.074 C 
HETATM   19  C4  UNL     1     -12.687  25.516  -2.213  1.00  0.00     0.020 C 
BRANCH  18  20
HETATM   20  C2  UNL     1     -14.342  23.722  -1.757  1.00  0.00     0.009 C 
HETATM   21  C1  UNL     1     -15.730  24.141  -1.413  1.00  0.00     0.006 C 
ENDBRANCH  18  20
ENDBRANCH  12  18
ENDBRANCH   5   6
BRANCH   5  22
HETATM   22  C10 UNL     1     -18.004  20.031  -8.276  1.00  0.00     0.038 C 
BRANCH  22  23
HETATM   23  C11 UNL     1     -18.677  18.784  -8.702  1.00  0.00    -0.020 C 
HETATM   24  C12 UNL     1     -18.241  18.158  -9.975  1.00  0.00     0.009 C 
HETATM   25  C13 UNL     1     -20.180  19.071  -8.845  1.00  0.00     0.009 C 
ENDBRANCH  22  23
ENDBRANCH   5  22
ENDBRANCH   1   5
BRANCH   3  26
HETATM   26  C15 UNL     1     -19.626  17.913  -4.377  1.00  0.00     0.087 C 
BRANCH  26  27
HETATM   27  N4  UNL     1     -20.742  17.273  -5.014  1.00  0.00    -0.324 N 
HETATM   28  C16 UNL     1     -20.657  16.445  -6.140  1.00  0.00     0.244 C 
HETATM   29  O4  UNL     1     -19.574  16.199  -6.688  1.00  0.00    -0.271 OA
ATOM     30  H4  UNL     1     -21.667  17.434  -4.616  1.00  0.00     0.169 HD
BRANCH  28  31
HETATM   31  C17 UNL     1     -21.898  15.839  -6.696  1.00  0.00     0.175 C 
HETATM   32  C18 UNL     1     -21.486  14.756  -7.673  1.00  0.00     0.042 C 
BRANCH  31  33
HETATM   33  N5  UNL     1     -22.814  15.367  -5.712  1.00  0.00    -0.324 N 
HETATM   34  C19 UNL     1     -24.051  16.023  -5.478  1.00  0.00     0.362 C 
HETATM   35  O5  UNL     1     -24.377  17.068  -6.141  1.00  0.00    -0.238 OA
ATOM     36  H5  UNL     1     -22.576  14.541  -5.165  1.00  0.00     0.165 HD
BRANCH  34  37
HETATM   37  O6  UNL     1     -24.989  15.620  -4.553  1.00  0.00    -0.294 OA
BRANCH  37  38
HETATM   38  C20 UNL     1     -26.151  14.953  -4.900  1.00  0.00     0.061 C 
HETATM   39  C21 UNL     1     -25.912  14.017  -6.072  1.00  0.00     0.046 C 
HETATM   40  C22 UNL     1     -26.476  14.025  -3.714  1.00  0.00     0.046 C 
HETATM   41  C23 UNL     1     -27.350  15.775  -5.170  1.00  0.00     0.046 C 
ENDBRANCH  37  38
ENDBRANCH  34  37
ENDBRANCH  31  33
ENDBRANCH  28  31
ENDBRANCH  26  27
BRANCH  26  42
HETATM   42  C24 UNL     1     -19.820  18.138  -2.920  1.00  0.00    -0.003 C 
HETATM   43  C25 UNL     1     -20.988  19.007  -2.550  1.00  0.00     0.021 C 
HETATM   44  C26 UNL     1     -20.221  16.735  -2.361  1.00  0.00     0.021 C 
HETATM   45  C27 UNL     1     -18.549  18.477  -2.221  1.00  0.00     0.021 C 
ENDBRANCH  26  42
ENDBRANCH   3  26
TORSDOF 13
ENDMDL
MODEL 4
REMARK VINA RESULT: -8.613331371      3.495     11.820
REMARK  13 active torsions:
REMARK  status: ('A' for Active; 'I' for Inactive)
REMARK    1  A    between atoms: C2_2  and  C3_3 
REMARK    2  A    between atoms: C3_3  and  C5_5 
REMARK       I    between atoms: C5_5  and  N1_7 
REMARK       I    between atoms: N2_10  and  C8_11 
REMARK    3  A    between atoms: C8_11  and  C9_13 
REMARK    4  A    between atoms: C9_13  and  C10_14 
REMARK    5  A    between atoms: C9_13  and  N3_18 
REMARK    6  A    between atoms: C10_14  and  C11_15 
REMARK       I    between atoms: N3_18  and  C14_20 
REMARK    7  A    between atoms: C14_20  and  C15_22 
REMARK    8  A    between atoms: C15_22  and  N4_23 
REMARK    9  A    between atoms: C15_22  and  C24_38 
REMARK       I    between atoms: N4_23  and  C16_25 
REMARK   10  A    between atoms: C16_25  and  C17_27 
REMARK   11  A    between atoms: C17_27  and  N5_29 
REMARK       I    between atoms: N5_29  and  C19_31 
REMARK   12  A    between atoms: C19_31  and  O6_33 
REMARK   13  A    between atoms: O6_33  and  C20_34 
ROOT
HETATM    1  N3  UNL     1     -18.742  18.852  -5.817  1.00  0.00    -0.343 N 
ATOM      2  H3  UNL     1     -18.399  17.927  -6.073  1.00  0.00     0.163 HD
HETATM    3  C14 UNL     1     -19.756  18.990  -4.838  1.00  0.00     0.265 C 
HETATM    4  O3  UNL     1     -20.091  20.215  -4.589  1.00  0.00    -0.266 OA
ENDROOT
BRANCH   1   5
HETATM    5  C9  UNL     1     -18.178  20.064  -6.470  1.00  0.00     0.177 C 
BRANCH   5   6
HETATM    6  C8  UNL     1     -16.683  19.817  -6.456  1.00  0.00     0.243 C 
HETATM    7  N2  UNL     1     -15.803  20.710  -5.746  1.00  0.00    -0.336 N 
HETATM    8  C7  UNL     1     -14.386  20.533  -5.745  1.00  0.00     0.147 C 
HETATM    9  C28 UNL     1     -16.400  21.769  -4.983  1.00  0.00     0.176 C 
HETATM   10  C6  UNL     1     -13.558  21.768  -5.761  1.00  0.00     0.155 C 
HETATM   11  N1  UNL     1     -14.127  22.779  -4.868  1.00  0.00    -0.285 N 
HETATM   12  C5  UNL     1     -13.265  23.485  -4.004  1.00  0.00     0.230 C 
HETATM   13  C30 UNL     1     -15.531  22.984  -4.909  1.00  0.00     0.249 C 
HETATM   14  O1  UNL     1     -12.026  23.235  -4.023  1.00  0.00    -0.273 OA
HETATM   15  O7  UNL     1     -16.003  24.141  -4.884  1.00  0.00    -0.271 OA
HETATM   16  C29 UNL     1     -16.582  21.315  -3.514  1.00  0.00     0.042 C 
HETATM   17  O2  UNL     1     -16.152  18.846  -7.040  1.00  0.00    -0.271 OA
BRANCH  12  18
HETATM   18  C3  UNL     1     -13.734  24.507  -3.072  1.00  0.00     0.074 C 
HETATM   19  C4  UNL     1     -12.639  25.470  -2.665  1.00  0.00     0.020 C 
BRANCH  18  20
HETATM   20  C2  UNL     1     -14.321  23.848  -1.824  1.00  0.00     0.009 C 
HETATM   21  C1  UNL     1     -15.712  24.285  -1.518  1.00  0.00     0.006 C 
ENDBRANCH  18  20
ENDBRANCH  12  18
ENDBRANCH   5   6
BRANCH   5  22
HETATM   22  C10 UNL     1     -18.611  20.104  -7.887  1.00  0.00     0.038 C 
BRANCH  22  23
HETATM   23  C11 UNL     1     -19.147  18.855  -8.470  1.00  0.00    -0.020 C 
HETATM   24  C12 UNL     1     -18.509  18.331  -9.703  1.00  0.00     0.009 C 
HETATM   25  C13 UNL     1     -20.631  19.077  -8.804  1.00  0.00     0.009 C 
ENDBRANCH  22  23
ENDBRANCH   5  22
ENDBRANCH   1   5
BRANCH   3  26
HETATM   26  C15 UNL     1     -20.427  17.907  -4.116  1.00  0.00     0.087 C 
BRANCH  26  27
HETATM   27  N4  UNL     1     -21.673  17.517  -4.712  1.00  0.00    -0.324 N 
HETATM   28  C16 UNL     1     -21.801  16.785  -5.899  1.00  0.00     0.244 C 
HETATM   29  O4  UNL     1     -20.813  16.411  -6.544  1.00  0.00    -0.271 OA
ATOM     30  H4  UNL     1     -22.531  17.795  -4.235  1.00  0.00     0.169 HD
BRANCH  28  31
HETATM   31  C17 UNL     1     -23.160  16.443  -6.402  1.00  0.00     0.175 C 
HETATM   32  C18 UNL     1     -23.132  14.999  -6.864  1.00  0.00     0.042 C 
BRANCH  31  33
HETATM   33  N5  UNL     1     -24.213  16.700  -5.477  1.00  0.00    -0.324 N 
HETATM   34  C19 UNL     1     -25.249  17.623  -5.774  1.00  0.00     0.362 C 
HETATM   35  O5  UNL     1     -25.264  18.260  -6.884  1.00  0.00    -0.238 OA
ATOM     36  H5  UNL     1     -24.221  16.211  -4.583  1.00  0.00     0.165 HD
BRANCH  34  37
HETATM   37  O6  UNL     1     -26.302  17.915  -4.935  1.00  0.00    -0.294 OA
BRANCH  37  38
HETATM   38  C20 UNL     1     -26.216  18.848  -3.915  1.00  0.00     0.061 C 
HETATM   39  C21 UNL     1     -27.505  19.641  -3.791  1.00  0.00     0.046 C 
HETATM   40  C22 UNL     1     -26.126  18.036  -2.608  1.00  0.00     0.046 C 
HETATM   41  C23 UNL     1     -25.070  19.781  -3.945  1.00  0.00     0.046 C 
ENDBRANCH  37  38
ENDBRANCH  34  37
ENDBRANCH  31  33
ENDBRANCH  28  31
ENDBRANCH  26  27
BRANCH  26  42
HETATM   42  C24 UNL     1     -20.476  17.990  -2.632  1.00  0.00    -0.003 C 
HETATM   43  C25 UNL     1     -21.805  18.376  -2.050  1.00  0.00     0.021 C 
HETATM   44  C26 UNL     1     -20.287  16.514  -2.156  1.00  0.00     0.021 C 
HETATM   45  C27 UNL     1     -19.312  18.726  -2.064  1.00  0.00     0.021 C 
ENDBRANCH  26  42
ENDBRANCH   3  26
TORSDOF 13
ENDMDL
MODEL 5
REMARK VINA RESULT: -8.421359671      2.442      4.990
REMARK  13 active torsions:
REMARK  status: ('A' for Active; 'I' for Inactive)
REMARK    1  A    between atoms: C2_2  and  C3_3 
REMARK    2  A    between atoms: C3_3  and  C5_5 
REMARK       I    between atoms: C5_5  and  N1_7 
REMARK       I    between atoms: N2_10  and  C8_11 
REMARK    3  A    between atoms: C8_11  and  C9_13 
REMARK    4  A    between atoms: C9_13  and  C10_14 
REMARK    5  A    between atoms: C9_13  and  N3_18 
REMARK    6  A    between atoms: C10_14  and  C11_15 
REMARK       I    between atoms: N3_18  and  C14_20 
REMARK    7  A    between atoms: C14_20  and  C15_22 
REMARK    8  A    between atoms: C15_22  and  N4_23 
REMARK    9  A    between atoms: C15_22  and  C24_38 
REMARK       I    between atoms: N4_23  and  C16_25 
REMARK   10  A    between atoms: C16_25  and  C17_27 
REMARK   11  A    between atoms: C17_27  and  N5_29 
REMARK       I    between atoms: N5_29  and  C19_31 
REMARK   12  A    between atoms: C19_31  and  O6_33 
REMARK   13  A    between atoms: O6_33  and  C20_34 
ROOT
HETATM    1  N3  UNL     1     -14.288  21.822  -7.571  1.00  0.00    -0.343 N 
ATOM      2  H3  UNL     1     -14.757  22.712  -7.403  1.00  0.00     0.163 HD
HETATM    3  C14 UNL     1     -12.908  21.794  -7.889  1.00  0.00     0.265 C 
HETATM    4  O3  UNL     1     -12.426  20.605  -8.061  1.00  0.00    -0.266 OA
ENDROOT
BRANCH   1   5
HETATM    5  C9  UNL     1     -15.051  20.548  -7.483  1.00  0.00     0.177 C 
BRANCH   5   6
HETATM    6  C8  UNL     1     -16.489  21.000  -7.331  1.00  0.00     0.243 C 
HETATM    7  N2  UNL     1     -17.554  20.032  -7.267  1.00  0.00    -0.336 N 
HETATM    8  C7  UNL     1     -18.925  20.422  -7.167  1.00  0.00     0.147 C 
HETATM    9  C28 UNL     1     -17.194  18.643  -7.254  1.00  0.00     0.176 C 
HETATM   10  C6  UNL     1     -19.913  19.582  -7.894  1.00  0.00     0.155 C 
HETATM   11  N1  UNL     1     -19.588  18.163  -7.747  1.00  0.00    -0.285 N 
HETATM   12  C5  UNL     1     -20.624  17.255  -7.450  1.00  0.00     0.230 C 
HETATM   13  C30 UNL     1     -18.230  17.776  -7.897  1.00  0.00     0.249 C 
HETATM   14  O1  UNL     1     -21.807  17.683  -7.323  1.00  0.00    -0.273 OA
HETATM   15  O7  UNL     1     -17.932  16.749  -8.544  1.00  0.00    -0.271 OA
HETATM   16  C29 UNL     1     -17.101  18.142  -5.793  1.00  0.00     0.042 C 
HETATM   17  O2  UNL     1     -16.814  22.206  -7.249  1.00  0.00    -0.271 OA
BRANCH  12  18
HETATM   18  C3  UNL     1     -20.402  15.821  -7.278  1.00  0.00     0.074 C 
HETATM   19  C4  UNL     1     -20.647  15.038  -8.551  1.00  0.00     0.020 C 
BRANCH  18  20
HETATM   20  C2  UNL     1     -21.304  15.281  -6.169  1.00  0.00     0.009 C 
HETATM   21  C1  UNL     1     -20.873  15.686  -4.801  1.00  0.00     0.006 C 
ENDBRANCH  18  20
ENDBRANCH  12  18
ENDBRANCH   5   6
BRANCH   5  22
HETATM   22  C10 UNL     1     -14.944  19.823  -8.772  1.00  0.00     0.038 C 
BRANCH  22  23
HETATM   23  C11 UNL     1     -15.877  20.213  -9.851  1.00  0.00    -0.020 C 
HETATM   24  C12 UNL     1     -16.456  19.138 -10.694  1.00  0.00     0.009 C 
HETATM   25  C13 UNL     1     -15.141  21.169 -10.803  1.00  0.00     0.009 C 
ENDBRANCH  22  23
ENDBRANCH   5  22
ENDBRANCH   1   5
BRANCH   3  26
HETATM   26  C15 UNL     1     -12.020  22.949  -8.031  1.00  0.00     0.087 C 
BRANCH  26  27
HETATM   27  N4  UNL     1     -12.046  23.826  -6.895  1.00  0.00    -0.324 N 
HETATM   28  C16 UNL     1     -11.105  23.823  -5.858  1.00  0.00     0.244 C 
HETATM   29  O4  UNL     1     -10.151  23.034  -5.845  1.00  0.00    -0.271 OA
ATOM     30  H4  UNL     1     -12.807  24.502  -6.838  1.00  0.00     0.169 HD
BRANCH  28  31
HETATM   31  C17 UNL     1     -11.249  24.794  -4.739  1.00  0.00     0.175 C 
HETATM   32  C18 UNL     1     -10.876  26.166  -5.265  1.00  0.00     0.042 C 
BRANCH  31  33
HETATM   33  N5  UNL     1     -12.527  24.781  -4.109  1.00  0.00    -0.324 N 
HETATM   34  C19 UNL     1     -12.662  24.571  -2.712  1.00  0.00     0.362 C 
HETATM   35  O5  UNL     1     -11.633  24.378  -1.974  1.00  0.00    -0.238 OA
ATOM     36  H5  UNL     1     -13.363  24.925  -4.674  1.00  0.00     0.165 HD
BRANCH  34  37
HETATM   37  O6  UNL     1     -13.861  24.554  -2.034  1.00  0.00    -0.294 OA
BRANCH  37  38
HETATM   38  C20 UNL     1     -14.995  23.930  -2.524  1.00  0.00     0.061 C 
HETATM   39  C21 UNL     1     -16.151  24.054  -1.547  1.00  0.00     0.046 C 
HETATM   40  C22 UNL     1     -15.430  24.751  -3.754  1.00  0.00     0.046 C 
HETATM   41  C23 UNL     1     -14.864  22.520  -2.948  1.00  0.00     0.046 C 
ENDBRANCH  37  38
ENDBRANCH  34  37
ENDBRANCH  31  33
ENDBRANCH  28  31
ENDBRANCH  26  27
BRANCH  26  42
HETATM   42  C24 UNL     1     -12.017  23.664  -9.335  1.00  0.00    -0.003 C 
HETATM   43  C25 UNL     1     -13.371  23.984  -9.900  1.00  0.00     0.021 C 
HETATM   44  C26 UNL     1     -11.421  25.070  -9.005  1.00  0.00     0.021 C 
HETATM   45  C27 UNL     1     -11.063  23.066 -10.311  1.00  0.00     0.021 C 
ENDBRANCH  26  42
ENDBRANCH   3  26
TORSDOF 13
ENDMDL
