MODEL 1
REMARK VINA RESULT: -4.470740919      0.000      0.000
REMARK  5 active torsions:
REMARK  status: ('A' for Active; 'I' for Inactive)
REMARK    1  A    between atoms: C2_2  and  C3_3 
REMARK    2  A    between atoms: C3_3  and  N1_4 
REMARK    3  A    between atoms: N1_4  and  C4_6 
REMARK    4  A    between atoms: C4_6  and  C5_7 
REMARK    5  A    between atoms: C5_7  and  N2_8 
ROOT
HETATM    1  N2  UNL     1     -24.716 -19.288 -16.726  1.00  0.00     0.044 N 
HETATM    2  C6  UNL     1     -24.396 -20.467 -15.987  1.00  0.00     0.304 A 
HETATM    3  C7  UNL     1     -24.292 -19.063 -15.394  1.00  0.00     0.280 A 
HETATM    4  C8  UNL     1     -25.462 -18.593 -14.631  1.00  0.00     0.114 A 
HETATM    5  N3  UNL     1     -26.474 -18.595 -15.417  1.00  0.00    -0.291 N 
ATOM      6  H3  UNL     1     -27.416 -18.314 -15.145  1.00  0.00     0.183 HD
HETATM    7  N4  UNL     1     -26.123 -19.028 -16.681  1.00  0.00     0.073 NA
ENDROOT
BRANCH   1   8
HETATM    8  C5  UNL     1     -24.056 -18.840 -17.884  1.00  0.00     0.282 C 
BRANCH   8   9
HETATM    9  C4  UNL     1     -24.722 -18.891 -19.196  1.00  0.00     0.144 C 
BRANCH   9  10
HETATM   10  N1  UNL     1     -24.164 -18.131 -20.262  1.00  0.00    -0.417 N 
ATOM     11  H1  UNL     1     -24.643 -18.033 -21.157  1.00  0.00     0.153 HD
BRANCH  10  12
HETATM   12  C3  UNL     1     -22.905 -17.516 -20.019  1.00  0.00     0.140 C 
BRANCH  12  13
HETATM   13  C2  UNL     1     -22.330 -16.863 -21.207  1.00  0.00    -0.018 C 
HETATM   14  C1  UNL     1     -23.040 -16.743 -22.302  1.00  0.00     0.008 C 
ENDBRANCH  12  13
ENDBRANCH  10  12
ENDBRANCH   9  10
ENDBRANCH   8   9
ENDBRANCH   1   8
TORSDOF 5
ENDMDL
MODEL 2
REMARK VINA RESULT: -4.444812534      1.176      1.342
REMARK  5 active torsions:
REMARK  status: ('A' for Active; 'I' for Inactive)
REMARK    1  A    between atoms: C2_2  and  C3_3 
REMARK    2  A    between atoms: C3_3  and  N1_4 
REMARK    3  A    between atoms: N1_4  and  C4_6 
REMARK    4  A    between atoms: C4_6  and  C5_7 
REMARK    5  A    between atoms: C5_7  and  N2_8 
ROOT
HETATM    1  N2  UNL     1     -26.107 -19.961 -17.653  1.00  0.00     0.044 N 
HETATM    2  C6  UNL     1     -25.889 -21.198 -16.975  1.00  0.00     0.304 A 
HETATM    3  C7  UNL     1     -25.561 -19.842 -16.352  1.00  0.00     0.280 A 
HETATM    4  C8  UNL     1     -26.602 -19.257 -15.488  1.00  0.00     0.114 A 
HETATM    5  N3  UNL     1     -27.660 -19.100 -16.193  1.00  0.00    -0.291 N 
ATOM      6  H3  UNL     1     -28.536 -18.712 -15.842  1.00  0.00     0.183 HD
HETATM    7  N4  UNL     1     -27.461 -19.526 -17.492  1.00  0.00     0.073 NA
ENDROOT
BRANCH   1   8
HETATM    8  C5  UNL     1     -25.481 -19.557 -18.846  1.00  0.00     0.282 C 
BRANCH   8   9
HETATM    9  C4  UNL     1     -24.446 -18.510 -18.835  1.00  0.00     0.144 C 
BRANCH   9  10
HETATM   10  N1  UNL     1     -23.872 -18.120 -20.077  1.00  0.00    -0.417 N 
ATOM     11  H1  UNL     1     -24.322 -18.338 -20.966  1.00  0.00     0.153 HD
BRANCH  10  12
HETATM   12  C3  UNL     1     -22.639 -17.413 -20.019  1.00  0.00     0.140 C 
BRANCH  12  13
HETATM   13  C2  UNL     1     -22.312 -16.697 -21.263  1.00  0.00    -0.018 C 
HETATM   14  C1  UNL     1     -23.097 -16.797 -22.307  1.00  0.00     0.008 C 
ENDBRANCH  12  13
ENDBRANCH  10  12
ENDBRANCH   9  10
ENDBRANCH   8   9
ENDBRANCH   1   8
TORSDOF 5
ENDMDL
MODEL 3
REMARK VINA RESULT: -4.411952363      4.600      5.471
REMARK  5 active torsions:
REMARK  status: ('A' for Active; 'I' for Inactive)
REMARK    1  A    between atoms: C2_2  and  C3_3 
REMARK    2  A    between atoms: C3_3  and  N1_4 
REMARK    3  A    between atoms: N1_4  and  C4_6 
REMARK    4  A    between atoms: C4_6  and  C5_7 
REMARK    5  A    between atoms: C5_7  and  N2_8 
ROOT
HETATM    1  N2  UNL     1     -19.353 -19.685 -16.948  1.00  0.00     0.044 N 
HETATM    2  C6  UNL     1     -18.911 -20.425 -15.809  1.00  0.00     0.304 A 
HETATM    3  C7  UNL     1     -19.224 -21.081 -17.153  1.00  0.00     0.280 A 
HETATM    4  C8  UNL     1     -18.077 -21.289 -18.055  1.00  0.00     0.114 A 
HETATM    5  N3  UNL     1     -17.556 -20.146 -18.306  1.00  0.00    -0.291 N 
ATOM      6  H3  UNL     1     -16.745 -20.001 -18.907  1.00  0.00     0.183 HD
HETATM    7  N4  UNL     1     -18.239 -19.135 -17.658  1.00  0.00     0.073 NA
ENDROOT
BRANCH   1   8
HETATM    8  C5  UNL     1     -20.548 -18.950 -17.037  1.00  0.00     0.282 C 
BRANCH   8   9
HETATM    9  C4  UNL     1     -20.730 -17.934 -18.086  1.00  0.00     0.144 C 
BRANCH   9  10
HETATM   10  N1  UNL     1     -21.993 -17.860 -18.737  1.00  0.00    -0.417 N 
ATOM     11  H1  UNL     1     -22.801 -18.382 -18.398  1.00  0.00     0.153 HD
BRANCH  10  12
HETATM   12  C3  UNL     1     -22.074 -17.024 -19.885  1.00  0.00     0.140 C 
BRANCH  12  13
HETATM   13  C2  UNL     1     -23.069 -17.474 -20.873  1.00  0.00    -0.018 C 
HETATM   14  C1  UNL     1     -23.075 -16.966 -22.081  1.00  0.00     0.008 C 
ENDBRANCH  12  13
ENDBRANCH  10  12
ENDBRANCH   9  10
ENDBRANCH   8   9
ENDBRANCH   1   8
TORSDOF 5
ENDMDL
MODEL 4
REMARK VINA RESULT: -4.273578938      0.894      1.031
REMARK  5 active torsions:
REMARK  status: ('A' for Active; 'I' for Inactive)
REMARK    1  A    between atoms: C2_2  and  C3_3 
REMARK    2  A    between atoms: C3_3  and  N1_4 
REMARK    3  A    between atoms: N1_4  and  C4_6 
REMARK    4  A    between atoms: C4_6  and  C5_7 
REMARK    5  A    between atoms: C5_7  and  N2_8 
ROOT
HETATM    1  N2  UNL     1     -24.606 -19.299 -16.737  1.00  0.00     0.044 N 
HETATM    2  C6  UNL     1     -24.061 -19.208 -15.420  1.00  0.00     0.304 A 
HETATM    3  C7  UNL     1     -25.364 -18.522 -15.828  1.00  0.00     0.280 A 
HETATM    4  C8  UNL     1     -26.604 -19.264 -15.541  1.00  0.00     0.114 A 
HETATM    5  N3  UNL     1     -26.554 -20.378 -16.171  1.00  0.00    -0.291 N 
ATOM      6  H3  UNL     1     -27.287 -21.088 -16.148  1.00  0.00     0.183 HD
HETATM    7  N4  UNL     1     -25.378 -20.494 -16.886  1.00  0.00     0.073 NA
ENDROOT
BRANCH   1   8
HETATM    8  C5  UNL     1     -23.996 -18.824 -17.912  1.00  0.00     0.282 C 
BRANCH   8   9
HETATM    9  C4  UNL     1     -24.716 -18.848 -19.196  1.00  0.00     0.144 C 
BRANCH   9  10
HETATM   10  N1  UNL     1     -24.160 -18.131 -20.292  1.00  0.00    -0.417 N 
ATOM     11  H1  UNL     1     -24.645 -18.060 -21.186  1.00  0.00     0.153 HD
BRANCH  10  12
HETATM   12  C3  UNL     1     -22.894 -17.518 -20.079  1.00  0.00     0.140 C 
BRANCH  12  13
HETATM   13  C2  UNL     1     -22.368 -16.826 -21.267  1.00  0.00    -0.018 C 
HETATM   14  C1  UNL     1     -23.090 -16.747 -22.358  1.00  0.00     0.008 C 
ENDBRANCH  12  13
ENDBRANCH  10  12
ENDBRANCH   9  10
ENDBRANCH   8   9
ENDBRANCH   1   8
TORSDOF 5
ENDMDL
MODEL 5
REMARK VINA RESULT: -4.273001198      3.641      4.497
REMARK  5 active torsions:
REMARK  status: ('A' for Active; 'I' for Inactive)
REMARK    1  A    between atoms: C2_2  and  C3_3 
REMARK    2  A    between atoms: C3_3  and  N1_4 
REMARK    3  A    between atoms: N1_4  and  C4_6 
REMARK    4  A    between atoms: C4_6  and  C5_7 
REMARK    5  A    between atoms: C5_7  and  N2_8 
ROOT
HETATM    1  N2  UNL     1     -20.584 -19.258 -16.654  1.00  0.00     0.044 N 
HETATM    2  C6  UNL     1     -20.686 -19.451 -15.243  1.00  0.00     0.304 A 
HETATM    3  C7  UNL     1     -20.746 -20.604 -16.243  1.00  0.00     0.280 A 
HETATM    4  C8  UNL     1     -19.475 -21.301 -16.506  1.00  0.00     0.114 A 
HETATM    5  N3  UNL     1     -18.641 -20.445 -16.968  1.00  0.00    -0.291 N 
ATOM      6  H3  UNL     1     -17.680 -20.660 -17.235  1.00  0.00     0.183 HD
HETATM    7  N4  UNL     1     -19.214 -19.191 -17.058  1.00  0.00     0.073 NA
ENDROOT
BRANCH   1   8
HETATM    8  C5  UNL     1     -21.485 -18.529 -17.450  1.00  0.00     0.282 C 
BRANCH   8   9
HETATM    9  C4  UNL     1     -21.002 -17.701 -18.568  1.00  0.00     0.144 C 
BRANCH   9  10
HETATM   10  N1  UNL     1     -21.960 -17.183 -19.483  1.00  0.00    -0.417 N 
ATOM     11  H1  UNL     1     -21.775 -16.345 -20.033  1.00  0.00     0.153 HD
BRANCH  10  12
HETATM   12  C3  UNL     1     -23.189 -17.891 -19.592  1.00  0.00     0.140 C 
BRANCH  12  13
HETATM   13  C2  UNL     1     -23.731 -17.921 -20.960  1.00  0.00    -0.018 C 
HETATM   14  C1  UNL     1     -23.211 -17.161 -21.893  1.00  0.00     0.008 C 
ENDBRANCH  12  13
ENDBRANCH  10  12
ENDBRANCH   9  10
ENDBRANCH   8   9
ENDBRANCH   1   8
TORSDOF 5
ENDMDL
