MODEL 1
REMARK VINA RESULT: -4.890308785      0.000      0.000
REMARK  5 active torsions:
REMARK  status: ('A' for Active; 'I' for Inactive)
REMARK    1  A    between atoms: C4_7  and  C5_8 
REMARK    2  A    between atoms: C5_8  and  C6_9 
REMARK    3  A    between atoms: C6_9  and  N3_10 
REMARK    4  A    between atoms: C7_12  and  N4_13 
REMARK    5  A    between atoms: N4_13  and  N5_15 
ROOT
HETATM    1  N3  UNL     1     -19.352 -18.636 -18.146  1.00  0.00    -0.385 N 
ATOM      2  H3  UNL     1     -18.964 -18.237 -19.001  1.00  0.00     0.160 HD
HETATM    3  C7  UNL     1     -18.683 -19.527 -17.514  1.00  0.00     0.194 C 
ENDROOT
BRANCH   1   4
HETATM    4  C6  UNL     1     -20.629 -18.187 -17.686  1.00  0.00     0.128 C 
BRANCH   4   5
HETATM    5  C5  UNL     1     -21.169 -17.167 -18.642  1.00  0.00     0.096 C 
BRANCH   5   6
HETATM    6  C4  UNL     1     -22.411 -17.624 -19.314  1.00  0.00     0.084 A 
HETATM    7  N1  UNL     1     -22.838 -17.421 -20.571  1.00  0.00    -0.350 N 
HETATM    8  C1  UNL     1     -22.112 -16.663 -21.580  1.00  0.00     0.156 C 
HETATM    9  C2  UNL     1     -24.045 -18.027 -20.760  1.00  0.00     0.108 A 
HETATM   10  C3  UNL     1     -24.371 -18.630 -19.564  1.00  0.00     0.106 A 
HETATM   11  N2  UNL     1     -23.372 -18.377 -18.699  1.00  0.00    -0.354 N 
ATOM     12  H2  UNL     1     -23.337 -18.698 -17.732  1.00  0.00     0.166 HD
ENDBRANCH   5   6
ENDBRANCH   4   5
ENDBRANCH   1   4
BRANCH   3  13
HETATM   13  N4  UNL     1     -17.412 -19.995 -17.945  1.00  0.00    -0.283 N 
ATOM     14  H4  UNL     1     -16.547 -19.559 -17.628  1.00  0.00     0.189 HD
BRANCH  13  15
HETATM   15  N5  UNL     1     -17.405 -21.083 -18.826  1.00  0.00    -0.248 N 
HETATM   16  N6  UNL     1     -17.041 -22.229 -18.450  1.00  0.00    -0.331 N 
ATOM     17  H62 UNL     1     -16.748 -22.349 -17.481  1.00  0.00     0.178 HD
ATOM     18  H61 UNL     1     -17.036 -23.022 -19.091  1.00  0.00     0.178 HD
ATOM     19  H5  UNL     1     -17.701 -20.945 -19.792  1.00  0.00     0.207 HD
ENDBRANCH  13  15
ENDBRANCH   3  13
TORSDOF 5
ENDMDL
MODEL 2
REMARK VINA RESULT: -4.590727584      0.677      1.671
REMARK  5 active torsions:
REMARK  status: ('A' for Active; 'I' for Inactive)
REMARK    1  A    between atoms: C4_7  and  C5_8 
REMARK    2  A    between atoms: C5_8  and  C6_9 
REMARK    3  A    between atoms: C6_9  and  N3_10 
REMARK    4  A    between atoms: C7_12  and  N4_13 
REMARK    5  A    between atoms: N4_13  and  N5_15 
ROOT
HETATM    1  N3  UNL     1     -19.429 -18.566 -18.158  1.00  0.00    -0.385 N 
ATOM      2  H3  UNL     1     -18.996 -18.036 -18.914  1.00  0.00     0.160 HD
HETATM    3  C7  UNL     1     -18.747 -19.471 -17.561  1.00  0.00     0.194 C 
ENDROOT
BRANCH   1   4
HETATM    4  C6  UNL     1     -20.781 -18.278 -17.792  1.00  0.00     0.128 C 
BRANCH   4   5
HETATM    5  C5  UNL     1     -21.250 -17.068 -18.543  1.00  0.00     0.096 C 
BRANCH   5   6
HETATM    6  C4  UNL     1     -22.288 -17.396 -19.551  1.00  0.00     0.084 A 
HETATM    7  N1  UNL     1     -23.435 -18.082 -19.419  1.00  0.00    -0.350 N 
HETATM    8  C1  UNL     1     -23.907 -18.672 -18.174  1.00  0.00     0.156 C 
HETATM    9  C2  UNL     1     -24.087 -18.142 -20.614  1.00  0.00     0.108 A 
HETATM   10  C3  UNL     1     -23.304 -17.461 -21.521  1.00  0.00     0.106 A 
HETATM   11  N2  UNL     1     -22.219 -17.015 -20.862  1.00  0.00    -0.354 N 
ATOM     12  H2  UNL     1     -21.460 -16.475 -21.277  1.00  0.00     0.166 HD
ENDBRANCH   5   6
ENDBRANCH   4   5
ENDBRANCH   1   4
BRANCH   3  13
HETATM   13  N4  UNL     1     -17.403 -19.781 -17.900  1.00  0.00    -0.283 N 
ATOM     14  H4  UNL     1     -16.628 -19.185 -17.612  1.00  0.00     0.189 HD
BRANCH  13  15
HETATM   15  N5  UNL     1     -17.193 -20.945 -18.650  1.00  0.00    -0.248 N 
HETATM   16  N6  UNL     1     -16.318 -21.789 -18.320  1.00  0.00    -0.331 N 
ATOM     17  H62 UNL     1     -15.760 -21.606 -17.487  1.00  0.00     0.178 HD
ATOM     18  H61 UNL     1     -16.166 -22.637 -18.866  1.00  0.00     0.178 HD
ATOM     19  H5  UNL     1     -17.760 -21.112 -19.481  1.00  0.00     0.207 HD
ENDBRANCH  13  15
ENDBRANCH   3  13
TORSDOF 5
ENDMDL
MODEL 3
REMARK VINA RESULT: -4.442194878      3.487      6.281
REMARK  5 active torsions:
REMARK  status: ('A' for Active; 'I' for Inactive)
REMARK    1  A    between atoms: C4_7  and  C5_8 
REMARK    2  A    between atoms: C5_8  and  C6_9 
REMARK    3  A    between atoms: C6_9  and  N3_10 
REMARK    4  A    between atoms: C7_12  and  N4_13 
REMARK    5  A    between atoms: N4_13  and  N5_15 
ROOT
HETATM    1  N3  UNL     1     -25.996 -19.312 -17.125  1.00  0.00    -0.385 N 
ATOM      2  H3  UNL     1     -26.918 -19.745 -17.089  1.00  0.00     0.160 HD
HETATM    3  C7  UNL     1     -25.584 -18.638 -16.115  1.00  0.00     0.194 C 
ENDROOT
BRANCH   1   4
HETATM    4  C6  UNL     1     -25.196 -19.473 -18.299  1.00  0.00     0.128 C 
BRANCH   4   5
HETATM    5  C5  UNL     1     -23.900 -18.741 -18.119  1.00  0.00     0.096 C 
BRANCH   5   6
HETATM    6  C4  UNL     1     -23.433 -18.103 -19.374  1.00  0.00     0.084 A 
HETATM    7  N1  UNL     1     -22.285 -17.459 -19.642  1.00  0.00    -0.350 N 
HETATM    8  C1  UNL     1     -21.210 -17.253 -18.681  1.00  0.00     0.156 C 
HETATM    9  C2  UNL     1     -22.277 -17.030 -20.935  1.00  0.00     0.108 A 
HETATM   10  C3  UNL     1     -23.475 -17.431 -21.487  1.00  0.00     0.106 A 
HETATM   11  N2  UNL     1     -24.163 -18.079 -20.530  1.00  0.00    -0.354 N 
ATOM     12  H2  UNL     1     -25.089 -18.490 -20.648  1.00  0.00     0.166 HD
ENDBRANCH   5   6
ENDBRANCH   4   5
ENDBRANCH   1   4
BRANCH   3  13
HETATM   13  N4  UNL     1     -26.354 -18.460 -14.935  1.00  0.00    -0.283 N 
ATOM     14  H4  UNL     1     -27.042 -19.151 -14.636  1.00  0.00     0.189 HD
BRANCH  13  15
HETATM   15  N5  UNL     1     -26.123 -17.291 -14.201  1.00  0.00    -0.248 N 
HETATM   16  N6  UNL     1     -27.053 -16.712 -13.578  1.00  0.00    -0.331 N 
ATOM     17  H62 UNL     1     -27.988 -17.116 -13.620  1.00  0.00     0.178 HD
ATOM     18  H61 UNL     1     -26.884 -15.860 -13.043  1.00  0.00     0.178 HD
ATOM     19  H5  UNL     1     -25.181 -16.899 -14.169  1.00  0.00     0.207 HD
ENDBRANCH  13  15
ENDBRANCH   3  13
TORSDOF 5
ENDMDL
MODEL 4
REMARK VINA RESULT: -4.389932259      1.674      6.121
REMARK  5 active torsions:
REMARK  status: ('A' for Active; 'I' for Inactive)
REMARK    1  A    between atoms: C4_7  and  C5_8 
REMARK    2  A    between atoms: C5_8  and  C6_9 
REMARK    3  A    between atoms: C6_9  and  N3_10 
REMARK    4  A    between atoms: C7_12  and  N4_13 
REMARK    5  A    between atoms: N4_13  and  N5_15 
ROOT
HETATM    1  N3  UNL     1     -21.890 -18.050 -18.530  1.00  0.00    -0.385 N 
ATOM      2  H3  UNL     1     -22.481 -18.795 -18.163  1.00  0.00     0.160 HD
HETATM    3  C7  UNL     1     -22.313 -17.343 -19.511  1.00  0.00     0.194 C 
ENDROOT
BRANCH   1   4
HETATM    4  C6  UNL     1     -20.610 -17.821 -17.935  1.00  0.00     0.128 C 
BRANCH   4   5
HETATM    5  C5  UNL     1     -20.384 -18.824 -16.844  1.00  0.00     0.096 C 
BRANCH   5   6
HETATM    6  C4  UNL     1     -19.349 -19.824 -17.202  1.00  0.00     0.084 A 
HETATM    7  N1  UNL     1     -19.282 -21.137 -16.926  1.00  0.00    -0.350 N 
HETATM    8  C1  UNL     1     -20.286 -21.875 -16.171  1.00  0.00     0.156 C 
HETATM    9  C2  UNL     1     -18.144 -21.671 -17.453  1.00  0.00     0.108 A 
HETATM   10  C3  UNL     1     -17.483 -20.638 -18.082  1.00  0.00     0.106 A 
HETATM   11  N2  UNL     1     -18.225 -19.527 -17.922  1.00  0.00    -0.354 N 
ATOM     12  H2  UNL     1     -17.985 -18.604 -18.282  1.00  0.00     0.166 HD
ENDBRANCH   5   6
ENDBRANCH   4   5
ENDBRANCH   1   4
BRANCH   3  13
HETATM   13  N4  UNL     1     -23.579 -17.545 -20.124  1.00  0.00    -0.283 N 
ATOM     14  H4  UNL     1     -24.417 -17.723 -19.572  1.00  0.00     0.189 HD
BRANCH  13  15
HETATM   15  N5  UNL     1     -23.620 -17.487 -21.522  1.00  0.00    -0.248 N 
HETATM   16  N6  UNL     1     -23.187 -16.484 -22.150  1.00  0.00    -0.331 N 
ATOM     17  H62 UNL     1     -22.802 -15.706 -21.614  1.00  0.00     0.178 HD
ATOM     18  H61 UNL     1     -23.216 -16.441 -23.169  1.00  0.00     0.178 HD
ATOM     19  H5  UNL     1     -24.008 -18.273 -22.043  1.00  0.00     0.207 HD
ENDBRANCH  13  15
ENDBRANCH   3  13
TORSDOF 5
ENDMDL
MODEL 5
REMARK VINA RESULT: -4.375430972      3.536      6.850
REMARK  5 active torsions:
REMARK  status: ('A' for Active; 'I' for Inactive)
REMARK    1  A    between atoms: C4_7  and  C5_8 
REMARK    2  A    between atoms: C5_8  and  C6_9 
REMARK    3  A    between atoms: C6_9  and  N3_10 
REMARK    4  A    between atoms: C7_12  and  N4_13 
REMARK    5  A    between atoms: N4_13  and  N5_15 
ROOT
HETATM    1  N3  UNL     1     -25.948 -19.556 -17.795  1.00  0.00    -0.385 N 
ATOM      2  H3  UNL     1     -25.490 -19.459 -16.889  1.00  0.00     0.160 HD
HETATM    3  C7  UNL     1     -27.181 -19.899 -17.838  1.00  0.00     0.194 C 
ENDROOT
BRANCH   1   4
HETATM    4  C6  UNL     1     -25.195 -19.304 -18.985  1.00  0.00     0.128 C 
BRANCH   4   5
HETATM    5  C5  UNL     1     -23.956 -18.537 -18.634  1.00  0.00     0.096 C 
BRANCH   5   6
HETATM    6  C4  UNL     1     -23.354 -17.867 -19.812  1.00  0.00     0.084 A 
HETATM    7  N1  UNL     1     -22.148 -17.293 -19.958  1.00  0.00    -0.350 N 
HETATM    8  C1  UNL     1     -21.137 -17.217 -18.913  1.00  0.00     0.156 C 
HETATM    9  C2  UNL     1     -22.013 -16.796 -21.220  1.00  0.00     0.108 A 
HETATM   10  C3  UNL     1     -23.191 -17.080 -21.879  1.00  0.00     0.106 A 
HETATM   11  N2  UNL     1     -23.991 -17.728 -21.013  1.00  0.00    -0.354 N 
ATOM     12  H2  UNL     1     -24.931 -18.064 -21.222  1.00  0.00     0.166 HD
ENDBRANCH   5   6
ENDBRANCH   4   5
ENDBRANCH   1   4
BRANCH   3  13
HETATM   13  N4  UNL     1     -27.956 -20.156 -16.675  1.00  0.00    -0.283 N 
ATOM     14  H4  UNL     1     -27.922 -21.057 -16.199  1.00  0.00     0.189 HD
BRANCH  13  15
HETATM   15  N5  UNL     1     -28.769 -19.114 -16.215  1.00  0.00    -0.248 N 
HETATM   16  N6  UNL     1     -29.694 -18.639 -16.928  1.00  0.00    -0.331 N 
ATOM     17  H62 UNL     1     -29.840 -19.034 -17.857  1.00  0.00     0.178 HD
ATOM     18  H61 UNL     1     -30.286 -17.880 -16.593  1.00  0.00     0.178 HD
ATOM     19  H5  UNL     1     -28.610 -18.730 -15.284  1.00  0.00     0.207 HD
ENDBRANCH  13  15
ENDBRANCH   3  13
TORSDOF 5
ENDMDL
