MODEL 1
REMARK VINA RESULT: -8.566873646      0.000      0.000
REMARK  16 active torsions:
REMARK  status: ('A' for Active; 'I' for Inactive)
REMARK       I    between atoms: N1_2  and  C2_4 
REMARK    1  A    between atoms: C2_4  and  C3_6 
REMARK    2  A    between atoms: C3_6  and  N2_7 
REMARK    3  A    between atoms: C3_6  and  C26_47 
REMARK    4  A    between atoms: N2_7  and  C4_9 
REMARK    5  A    between atoms: C4_9  and  C5_10 
REMARK    6  A    between atoms: C4_9  and  C13_22 
REMARK    7  A    between atoms: C5_10  and  N3_11 
REMARK    8  A    between atoms: C8_14  and  N4_15 
REMARK       I    between atoms: N4_15  and  C9_17 
REMARK    9  A    between atoms: C13_22  and  N5_23 
REMARK   10  A    between atoms: C13_22  and  N9_38 
REMARK   11  A    between atoms: N5_23  and  C14_24 
REMARK   12  A    between atoms: C14_24  and  N6_26 
REMARK       I    between atoms: C15_28  and  N8_30 
REMARK   13  A    between atoms: N8_30  and  C16_32 
REMARK   14  A    between atoms: N9_38  and  C22_40 
REMARK   15  A    between atoms: C22_40  and  C24_42 
REMARK       I    between atoms: C24_42  and  N10_44 
REMARK   16  A    between atoms: C26_47  and  C28_49 
ROOT
HETATM    1  C4  UNL     1      29.445  -9.005  -2.999  1.00  0.00     0.199 C 
ENDROOT
BRANCH   1   2
HETATM    2  N2  UNL     1      30.487  -9.087  -3.959  1.00  0.00    -0.393 N 
ATOM      3  H2  UNL     1      30.533  -9.849  -4.635  1.00  0.00     0.155 HD
BRANCH   2   4
HETATM    4  C3  UNL     1      31.481  -8.036  -3.931  1.00  0.00     0.174 C 
BRANCH   4   5
HETATM    5  C2  UNL     1      31.254  -7.087  -5.078  1.00  0.00     0.243 C 
HETATM    6  N1  UNL     1      31.489  -5.666  -4.922  1.00  0.00    -0.345 N 
HETATM    7  C1  UNL     1      30.769  -4.858  -5.608  1.00  0.00     0.121 C 
ATOM      8  H1  UNL     1      32.206  -5.319  -4.285  1.00  0.00     0.167 HD
HETATM    9  O1  UNL     1      30.859  -7.430  -6.206  1.00  0.00    -0.271 OA
ENDBRANCH   4   5
BRANCH   4  10
HETATM   10  C26 UNL     1      32.833  -8.693  -4.100  1.00  0.00     0.013 C 
HETATM   11  C27 UNL     1      32.780 -10.039  -4.709  1.00  0.00     0.012 C 
BRANCH  10  12
HETATM   12  C28 UNL     1      33.632  -8.660  -2.815  1.00  0.00     0.002 C 
HETATM   13  C29 UNL     1      33.074  -7.606  -1.874  1.00  0.00     0.005 C 
ENDBRANCH  10  12
ENDBRANCH   4  10
ENDBRANCH   2   4
ENDBRANCH   1   2
BRANCH   1  14
HETATM   14  C5  UNL     1      28.177  -8.553  -3.667  1.00  0.00     0.091 C 
BRANCH  14  15
HETATM   15  N3  UNL     1      27.624  -7.318  -3.375  1.00  0.00    -0.391 N 
HETATM   16  C6  UNL     1      27.748  -6.239  -4.288  1.00  0.00     0.124 C 
HETATM   17  C7  UNL     1      27.844  -4.947  -3.486  1.00  0.00     0.045 C 
HETATM   18  C8  UNL     1      26.704  -4.767  -2.562  1.00  0.00     0.087 C 
HETATM   19  C11 UNL     1      25.759  -5.981  -2.604  1.00  0.00     0.045 C 
HETATM   20  C12 UNL     1      26.541  -7.254  -2.452  1.00  0.00     0.124 C 
BRANCH  18  21
HETATM   21  N4  UNL     1      27.109  -4.609  -1.176  1.00  0.00    -0.357 N 
HETATM   22  C9  UNL     1      27.335  -3.360  -0.552  1.00  0.00     0.213 C 
HETATM   23  C10 UNL     1      27.749  -3.339   0.887  1.00  0.00     0.117 C 
HETATM   24  O2  UNL     1      27.196  -2.301  -1.182  1.00  0.00    -0.274 OA
ATOM     25  H4  UNL     1      27.239  -5.453  -0.617  1.00  0.00     0.162 HD
ENDBRANCH  18  21
ENDBRANCH  14  15
ENDBRANCH   1  14
BRANCH   1  26
HETATM   26  C13 UNL     1      29.094 -10.350  -2.402  1.00  0.00     0.183 C 
BRANCH  26  27
HETATM   27  N5  UNL     1      28.180 -10.720  -1.734  1.00  0.00    -0.360 NA
BRANCH  27  28
HETATM   28  C14 UNL     1      27.181 -11.121  -0.994  1.00  0.00     0.253 C 
HETATM   29  S1  UNL     1      25.924 -10.209  -0.467  1.00  0.00    -0.025 SA
BRANCH  28  30
HETATM   30  N6  UNL     1      27.083 -12.508  -0.545  1.00  0.00    -0.296 N 
HETATM   31  C15 UNL     1      27.813 -12.828   0.492  1.00  0.00     0.191 C 
HETATM   32  N7  UNL     1      28.650 -11.895   1.147  1.00  0.00    -0.063 NA
HETATM   33  N8  UNL     1      27.742 -14.171   0.983  1.00  0.00    -0.360 N 
ATOM     34  H8  UNL     1      28.152 -14.960   0.483  1.00  0.00     0.162 HD
ATOM     35  H6  UNL     1      26.481 -13.186  -1.012  1.00  0.00     0.172 HD
BRANCH  33  36
HETATM   36  C16 UNL     1      27.036 -14.324   2.255  1.00  0.00     0.084 C 
HETATM   37  C17 UNL     1      27.248 -15.687   2.842  1.00  0.00     0.025 C 
HETATM   38  C18 UNL     1      25.975 -16.292   3.395  1.00  0.00     0.002 C 
HETATM   39  C19 UNL     1      25.143 -15.318   4.159  1.00  0.00     0.000 C 
HETATM   40  C20 UNL     1      24.960 -14.002   3.478  1.00  0.00     0.002 C 
HETATM   41  C21 UNL     1      25.526 -14.140   2.074  1.00  0.00     0.025 C 
ENDBRANCH  33  36
ENDBRANCH  28  30
ENDBRANCH  27  28
ENDBRANCH  26  27
BRANCH  26  42
HETATM   42  N9  UNL     1      30.144 -11.346  -2.694  1.00  0.00    -0.354 N 
ATOM     43  H9  UNL     1      30.174 -11.808  -3.604  1.00  0.00     0.162 HD
BRANCH  42  44
HETATM   44  C22 UNL     1      31.118 -11.661  -1.700  1.00  0.00     0.172 C 
HETATM   45  C23 UNL     1      31.130 -10.492  -0.719  1.00  0.00     0.042 C 
BRANCH  44  46
HETATM   46  C24 UNL     1      30.839 -12.947  -0.999  1.00  0.00     0.239 C 
HETATM   47  O3  UNL     1      29.985 -13.726  -1.459  1.00  0.00    -0.271 OA
HETATM   48  N10 UNL     1      31.560 -13.288   0.206  1.00  0.00    -0.364 N 
HETATM   49  C25 UNL     1      31.265 -14.538   0.849  1.00  0.00     0.149 C 
ATOM     50  H10 UNL     1      32.263 -12.656   0.591  1.00  0.00     0.161 HD
ENDBRANCH  44  46
ENDBRANCH  42  44
ENDBRANCH  26  42
ENDBRANCH   1  26
TORSDOF 16
ENDMDL
MODEL 2
REMARK VINA RESULT: -7.955362873      1.935      2.890
REMARK  16 active torsions:
REMARK  status: ('A' for Active; 'I' for Inactive)
REMARK       I    between atoms: N1_2  and  C2_4 
REMARK    1  A    between atoms: C2_4  and  C3_6 
REMARK    2  A    between atoms: C3_6  and  N2_7 
REMARK    3  A    between atoms: C3_6  and  C26_47 
REMARK    4  A    between atoms: N2_7  and  C4_9 
REMARK    5  A    between atoms: C4_9  and  C5_10 
REMARK    6  A    between atoms: C4_9  and  C13_22 
REMARK    7  A    between atoms: C5_10  and  N3_11 
REMARK    8  A    between atoms: C8_14  and  N4_15 
REMARK       I    between atoms: N4_15  and  C9_17 
REMARK    9  A    between atoms: C13_22  and  N5_23 
REMARK   10  A    between atoms: C13_22  and  N9_38 
REMARK   11  A    between atoms: N5_23  and  C14_24 
REMARK   12  A    between atoms: C14_24  and  N6_26 
REMARK       I    between atoms: C15_28  and  N8_30 
REMARK   13  A    between atoms: N8_30  and  C16_32 
REMARK   14  A    between atoms: N9_38  and  C22_40 
REMARK   15  A    between atoms: C22_40  and  C24_42 
REMARK       I    between atoms: C24_42  and  N10_44 
REMARK   16  A    between atoms: C26_47  and  C28_49 
ROOT
HETATM    1  C4  UNL     1      29.122 -10.838  -1.480  1.00  0.00     0.199 C 
ENDROOT
BRANCH   1   2
HETATM    2  N2  UNL     1      30.003 -10.486  -2.535  1.00  0.00    -0.393 N 
ATOM      3  H2  UNL     1      30.250 -11.149  -3.269  1.00  0.00     0.155 HD
BRANCH   2   4
HETATM    4  C3  UNL     1      30.534  -9.140  -2.516  1.00  0.00     0.174 C 
BRANCH   4   5
HETATM    5  C2  UNL     1      30.028  -8.375  -3.710  1.00  0.00     0.243 C 
HETATM    6  N1  UNL     1      29.382  -7.089  -3.547  1.00  0.00    -0.345 N 
HETATM    7  C1  UNL     1      28.474  -6.760  -4.389  1.00  0.00     0.121 C 
ATOM      8  H1  UNL     1      29.642  -6.463  -2.783  1.00  0.00     0.167 HD
HETATM    9  O1  UNL     1      30.116  -8.769  -4.886  1.00  0.00    -0.271 OA
ENDBRANCH   4   5
BRANCH   4  10
HETATM   10  C26 UNL     1      32.040  -9.251  -2.609  1.00  0.00     0.013 C 
HETATM   11  C27 UNL     1      32.717  -7.993  -2.987  1.00  0.00     0.012 C 
BRANCH  10  12
HETATM   12  C28 UNL     1      32.459 -10.426  -3.465  1.00  0.00     0.002 C 
HETATM   13  C29 UNL     1      33.228  -9.943  -4.683  1.00  0.00     0.005 C 
ENDBRANCH  10  12
ENDBRANCH   4  10
ENDBRANCH   2   4
ENDBRANCH   1   2
BRANCH   1  14
HETATM   14  C5  UNL     1      27.699 -10.660  -1.930  1.00  0.00     0.091 C 
BRANCH  14  15
HETATM   15  N3  UNL     1      27.002  -9.501  -1.633  1.00  0.00    -0.391 N 
HETATM   16  C6  UNL     1      25.725  -9.262  -2.204  1.00  0.00     0.124 C 
HETATM   17  C7  UNL     1      25.576  -7.762  -2.426  1.00  0.00     0.045 C 
HETATM   18  C8  UNL     1      25.788  -6.983  -1.188  1.00  0.00     0.087 C 
HETATM   19  C11 UNL     1      26.181  -7.898  -0.016  1.00  0.00     0.045 C 
HETATM   20  C12 UNL     1      27.300  -8.813  -0.423  1.00  0.00     0.124 C 
BRANCH  18  21
HETATM   21  N4  UNL     1      26.845  -5.993  -1.308  1.00  0.00    -0.357 N 
HETATM   22  C9  UNL     1      26.625  -4.630  -1.619  1.00  0.00     0.213 C 
HETATM   23  C10 UNL     1      27.806  -3.714  -1.711  1.00  0.00     0.117 C 
HETATM   24  O2  UNL     1      25.478  -4.200  -1.814  1.00  0.00    -0.274 OA
ATOM     25  H4  UNL     1      27.806  -6.299  -1.158  1.00  0.00     0.162 HD
ENDBRANCH  18  21
ENDBRANCH  14  15
ENDBRANCH   1  14
BRANCH   1  26
HETATM   26  C13 UNL     1      29.214 -12.301  -1.106  1.00  0.00     0.183 C 
BRANCH  26  27
HETATM   27  N5  UNL     1      28.530 -13.004  -0.430  1.00  0.00    -0.360 NA
BRANCH  27  28
HETATM   28  C14 UNL     1      27.784 -13.773   0.317  1.00  0.00     0.253 C 
HETATM   29  S1  UNL     1      26.357 -13.371   1.019  1.00  0.00    -0.025 SA
BRANCH  28  30
HETATM   30  N6  UNL     1      28.175 -15.150   0.612  1.00  0.00    -0.296 N 
HETATM   31  C15 UNL     1      28.867 -15.327   1.708  1.00  0.00     0.191 C 
HETATM   32  N7  UNL     1      29.220 -14.258   2.564  1.00  0.00    -0.063 NA
HETATM   33  N8  UNL     1      29.262 -16.660   2.050  1.00  0.00    -0.360 N 
ATOM     34  H8  UNL     1      29.988 -17.165   1.542  1.00  0.00     0.162 HD
ATOM     35  H6  UNL     1      27.924 -15.925  -0.001  1.00  0.00     0.172 HD
BRANCH  33  36
HETATM   36  C16 UNL     1      28.547 -17.240   3.186  1.00  0.00     0.084 C 
HETATM   37  C17 UNL     1      27.327 -16.442   3.536  1.00  0.00     0.025 C 
HETATM   38  C18 UNL     1      27.165 -16.241   5.028  1.00  0.00     0.002 C 
HETATM   39  C19 UNL     1      27.454 -17.470   5.823  1.00  0.00     0.000 C 
HETATM   40  C20 UNL     1      28.706 -18.178   5.424  1.00  0.00     0.002 C 
HETATM   41  C21 UNL     1      29.433 -17.280   4.435  1.00  0.00     0.025 C 
ENDBRANCH  33  36
ENDBRANCH  28  30
ENDBRANCH  27  28
ENDBRANCH  26  27
BRANCH  26  42
HETATM   42  N9  UNL     1      30.432 -12.914  -1.673  1.00  0.00    -0.354 N 
ATOM     43  H9  UNL     1      30.490 -13.107  -2.673  1.00  0.00     0.162 HD
BRANCH  42  44
HETATM   44  C22 UNL     1      31.528 -13.235  -0.817  1.00  0.00     0.172 C 
HETATM   45  C23 UNL     1      31.326 -12.434   0.466  1.00  0.00     0.042 C 
BRANCH  44  46
HETATM   46  C24 UNL     1      31.631 -14.695  -0.528  1.00  0.00     0.239 C 
HETATM   47  O3  UNL     1      30.881 -15.494  -1.117  1.00  0.00    -0.271 OA
HETATM   48  N10 UNL     1      32.602 -15.177   0.427  1.00  0.00    -0.364 N 
HETATM   49  C25 UNL     1      32.672 -16.591   0.675  1.00  0.00     0.149 C 
ATOM     50  H10 UNL     1      33.222 -14.530   0.915  1.00  0.00     0.161 HD
ENDBRANCH  44  46
ENDBRANCH  42  44
ENDBRANCH  26  42
ENDBRANCH   1  26
TORSDOF 16
ENDMDL
MODEL 3
REMARK VINA RESULT: -7.904958600      3.742     11.191
REMARK  16 active torsions:
REMARK  status: ('A' for Active; 'I' for Inactive)
REMARK       I    between atoms: N1_2  and  C2_4 
REMARK    1  A    between atoms: C2_4  and  C3_6 
REMARK    2  A    between atoms: C3_6  and  N2_7 
REMARK    3  A    between atoms: C3_6  and  C26_47 
REMARK    4  A    between atoms: N2_7  and  C4_9 
REMARK    5  A    between atoms: C4_9  and  C5_10 
REMARK    6  A    between atoms: C4_9  and  C13_22 
REMARK    7  A    between atoms: C5_10  and  N3_11 
REMARK    8  A    between atoms: C8_14  and  N4_15 
REMARK       I    between atoms: N4_15  and  C9_17 
REMARK    9  A    between atoms: C13_22  and  N5_23 
REMARK   10  A    between atoms: C13_22  and  N9_38 
REMARK   11  A    between atoms: N5_23  and  C14_24 
REMARK   12  A    between atoms: C14_24  and  N6_26 
REMARK       I    between atoms: C15_28  and  N8_30 
REMARK   13  A    between atoms: N8_30  and  C16_32 
REMARK   14  A    between atoms: N9_38  and  C22_40 
REMARK   15  A    between atoms: C22_40  and  C24_42 
REMARK       I    between atoms: C24_42  and  N10_44 
REMARK   16  A    between atoms: C26_47  and  C28_49 
ROOT
HETATM    1  C4  UNL     1      29.197 -15.280   2.498  1.00  0.00     0.199 C 
ENDROOT
BRANCH   1   2
HETATM    2  N2  UNL     1      27.897 -15.809   2.702  1.00  0.00    -0.393 N 
ATOM      3  H2  UNL     1      27.372 -16.245   1.944  1.00  0.00     0.155 HD
BRANCH   2   4
HETATM    4  C3  UNL     1      27.352 -15.700   4.038  1.00  0.00     0.174 C 
BRANCH   4   5
HETATM    5  C2  UNL     1      27.625 -16.966   4.806  1.00  0.00     0.243 C 
HETATM    6  N1  UNL     1      28.360 -16.931   6.055  1.00  0.00    -0.345 N 
HETATM    7  C1  UNL     1      29.078 -17.947   6.358  1.00  0.00     0.121 C 
ATOM      8  H1  UNL     1      28.306 -16.121   6.673  1.00  0.00     0.167 HD
HETATM    9  O1  UNL     1      27.262 -18.099   4.446  1.00  0.00    -0.271 OA
ENDBRANCH   4   5
BRANCH   4  10
HETATM   10  C26 UNL     1      25.855 -15.526   3.899  1.00  0.00     0.013 C 
HETATM   11  C27 UNL     1      25.423 -14.122   3.731  1.00  0.00     0.012 C 
BRANCH  10  12
HETATM   12  C28 UNL     1      25.107 -16.245   5.000  1.00  0.00     0.002 C 
HETATM   13  C29 UNL     1      23.643 -15.841   4.995  1.00  0.00     0.005 C 
ENDBRANCH  10  12
ENDBRANCH   4  10
ENDBRANCH   2   4
ENDBRANCH   1   2
BRANCH   1  14
HETATM   14  C5  UNL     1      30.144 -16.389   2.137  1.00  0.00     0.091 C 
BRANCH  14  15
HETATM   15  N3  UNL     1      31.320 -16.575   2.844  1.00  0.00    -0.391 N 
HETATM   16  C6  UNL     1      31.562 -17.793   3.531  1.00  0.00     0.124 C 
HETATM   17  C7  UNL     1      32.370 -17.479   4.784  1.00  0.00     0.045 C 
HETATM   18  C8  UNL     1      33.620 -16.749   4.484  1.00  0.00     0.087 C 
HETATM   19  C11 UNL     1      33.733 -16.432   2.984  1.00  0.00     0.045 C 
HETATM   20  C12 UNL     1      32.462 -15.803   2.489  1.00  0.00     0.124 C 
BRANCH  18  21
HETATM   21  N4  UNL     1      33.722 -15.478   5.181  1.00  0.00    -0.357 N 
HETATM   22  C9  UNL     1      34.449 -15.285   6.379  1.00  0.00     0.213 C 
HETATM   23  C10 UNL     1      34.474 -13.919   6.993  1.00  0.00     0.117 C 
HETATM   24  O2  UNL     1      35.055 -16.226   6.913  1.00  0.00    -0.274 OA
ATOM     25  H4  UNL     1      33.239 -14.674   4.781  1.00  0.00     0.162 HD
ENDBRANCH  18  21
ENDBRANCH  14  15
ENDBRANCH   1  14
BRANCH   1  26
HETATM   26  C13 UNL     1      29.264 -14.333   1.320  1.00  0.00     0.183 C 
BRANCH  26  27
HETATM   27  N5  UNL     1      29.997 -14.264   0.383  1.00  0.00    -0.360 NA
BRANCH  27  28
HETATM   28  C14 UNL     1      30.799 -14.180  -0.644  1.00  0.00     0.253 C 
HETATM   29  S1  UNL     1      32.085 -15.145  -0.966  1.00  0.00    -0.025 SA
BRANCH  28  30
HETATM   30  N6  UNL     1      30.608 -13.155  -1.669  1.00  0.00    -0.296 N 
HETATM   31  C15 UNL     1      30.775 -11.918  -1.280  1.00  0.00     0.191 C 
HETATM   32  N7  UNL     1      31.120 -11.580   0.050  1.00  0.00    -0.063 NA
HETATM   33  N8  UNL     1      30.616 -10.876  -2.249  1.00  0.00    -0.360 N 
ATOM     34  H8  UNL     1      29.705 -10.608  -2.622  1.00  0.00     0.162 HD
ATOM     35  H6  UNL     1      30.359 -13.391  -2.630  1.00  0.00     0.172 HD
BRANCH  33  36
HETATM   36  C16 UNL     1      31.858 -10.225  -2.662  1.00  0.00     0.084 C 
HETATM   37  C17 UNL     1      32.059  -8.920  -1.953  1.00  0.00     0.025 C 
HETATM   38  C18 UNL     1      32.540  -7.818  -2.875  1.00  0.00     0.002 C 
HETATM   39  C19 UNL     1      33.591  -8.268  -3.833  1.00  0.00     0.000 C 
HETATM   40  C20 UNL     1      33.286  -9.560  -4.515  1.00  0.00     0.002 C 
HETATM   41  C21 UNL     1      31.852  -9.926  -4.164  1.00  0.00     0.025 C 
ENDBRANCH  33  36
ENDBRANCH  28  30
ENDBRANCH  27  28
ENDBRANCH  26  27
BRANCH  26  42
HETATM   42  N9  UNL     1      28.231 -13.283   1.428  1.00  0.00    -0.354 N 
ATOM     43  H9  UNL     1      28.140 -12.741   2.288  1.00  0.00     0.162 HD
BRANCH  42  44
HETATM   44  C22 UNL     1      27.360 -13.030   0.326  1.00  0.00     0.172 C 
HETATM   45  C23 UNL     1      25.948 -13.350   0.807  1.00  0.00     0.042 C 
BRANCH  44  46
HETATM   46  C24 UNL     1      27.452 -11.629  -0.177  1.00  0.00     0.239 C 
HETATM   47  O3  UNL     1      27.994 -10.756   0.525  1.00  0.00    -0.271 OA
HETATM   48  N10 UNL     1      26.917 -11.289  -1.475  1.00  0.00    -0.364 N 
HETATM   49  C25 UNL     1      27.029  -9.929  -1.925  1.00  0.00     0.149 C 
ATOM     50  H10 UNL     1      26.471 -11.997  -2.059  1.00  0.00     0.161 HD
ENDBRANCH  44  46
ENDBRANCH  42  44
ENDBRANCH  26  42
ENDBRANCH   1  26
TORSDOF 16
ENDMDL
MODEL 4
REMARK VINA RESULT: -7.868333905      1.203      1.681
REMARK  16 active torsions:
REMARK  status: ('A' for Active; 'I' for Inactive)
REMARK       I    between atoms: N1_2  and  C2_4 
REMARK    1  A    between atoms: C2_4  and  C3_6 
REMARK    2  A    between atoms: C3_6  and  N2_7 
REMARK    3  A    between atoms: C3_6  and  C26_47 
REMARK    4  A    between atoms: N2_7  and  C4_9 
REMARK    5  A    between atoms: C4_9  and  C5_10 
REMARK    6  A    between atoms: C4_9  and  C13_22 
REMARK    7  A    between atoms: C5_10  and  N3_11 
REMARK    8  A    between atoms: C8_14  and  N4_15 
REMARK       I    between atoms: N4_15  and  C9_17 
REMARK    9  A    between atoms: C13_22  and  N5_23 
REMARK   10  A    between atoms: C13_22  and  N9_38 
REMARK   11  A    between atoms: N5_23  and  C14_24 
REMARK   12  A    between atoms: C14_24  and  N6_26 
REMARK       I    between atoms: C15_28  and  N8_30 
REMARK   13  A    between atoms: N8_30  and  C16_32 
REMARK   14  A    between atoms: N9_38  and  C22_40 
REMARK   15  A    between atoms: C22_40  and  C24_42 
REMARK       I    between atoms: C24_42  and  N10_44 
REMARK   16  A    between atoms: C26_47  and  C28_49 
ROOT
HETATM    1  C4  UNL     1      29.256  -8.492  -3.029  1.00  0.00     0.199 C 
ENDROOT
BRANCH   1   2
HETATM    2  N2  UNL     1      30.221  -8.517  -4.069  1.00  0.00    -0.393 N 
ATOM      3  H2  UNL     1      30.182  -9.208  -4.818  1.00  0.00     0.155 HD
BRANCH   2   4
HETATM    4  C3  UNL     1      31.262  -7.513  -4.014  1.00  0.00     0.174 C 
BRANCH   4   5
HETATM    5  C2  UNL     1      30.990  -6.440  -5.034  1.00  0.00     0.243 C 
HETATM    6  N1  UNL     1      31.471  -5.088  -4.833  1.00  0.00    -0.345 N 
HETATM    7  C1  UNL     1      30.778  -4.125  -5.317  1.00  0.00     0.121 C 
ATOM      8  H1  UNL     1      32.335  -4.908  -4.321  1.00  0.00     0.167 HD
HETATM    9  O1  UNL     1      30.353  -6.616  -6.088  1.00  0.00    -0.271 OA
ENDBRANCH   4   5
BRANCH   4  10
HETATM   10  C26 UNL     1      32.565  -8.199  -4.362  1.00  0.00     0.013 C 
HETATM   11  C27 UNL     1      32.418  -9.345  -5.284  1.00  0.00     0.012 C 
BRANCH  10  12
HETATM   12  C28 UNL     1      33.361  -8.541  -3.121  1.00  0.00     0.002 C 
HETATM   13  C29 UNL     1      33.025  -7.577  -1.996  1.00  0.00     0.005 C 
ENDBRANCH  10  12
ENDBRANCH   4  10
ENDBRANCH   2   4
ENDBRANCH   1   2
BRANCH   1  14
HETATM   14  C5  UNL     1      27.963  -7.933  -3.552  1.00  0.00     0.091 C 
BRANCH  14  15
HETATM   15  N3  UNL     1      27.419  -6.780  -3.012  1.00  0.00    -0.391 N 
HETATM   16  C6  UNL     1      26.980  -6.755  -1.663  1.00  0.00     0.124 C 
HETATM   17  C7  UNL     1      25.777  -5.824  -1.572  1.00  0.00     0.045 C 
HETATM   18  C8  UNL     1      26.069  -4.470  -2.089  1.00  0.00     0.087 C 
HETATM   19  C11 UNL     1      27.497  -4.387  -2.655  1.00  0.00     0.045 C 
HETATM   20  C12 UNL     1      27.748  -5.526  -3.601  1.00  0.00     0.124 C 
BRANCH  18  21
HETATM   21  N4  UNL     1      25.178  -4.062  -3.161  1.00  0.00    -0.357 N 
HETATM   22  C9  UNL     1      24.104  -3.154  -3.000  1.00  0.00     0.213 C 
HETATM   23  C10 UNL     1      23.262  -2.818  -4.192  1.00  0.00     0.117 C 
HETATM   24  O2  UNL     1      23.862  -2.647  -1.895  1.00  0.00    -0.274 OA
ATOM     25  H4  UNL     1      25.336  -4.454  -4.089  1.00  0.00     0.162 HD
ENDBRANCH  18  21
ENDBRANCH  14  15
ENDBRANCH   1  14
BRANCH   1  26
HETATM   26  C13 UNL     1      28.892  -9.876  -2.537  1.00  0.00     0.183 C 
BRANCH  26  27
HETATM   27  N5  UNL     1      27.998 -10.281  -1.861  1.00  0.00    -0.360 NA
BRANCH  27  28
HETATM   28  C14 UNL     1      27.022 -10.722  -1.114  1.00  0.00     0.253 C 
HETATM   29  S1  UNL     1      25.761  -9.850  -0.532  1.00  0.00    -0.025 SA
BRANCH  28  30
HETATM   30  N6  UNL     1      26.959 -12.124  -0.705  1.00  0.00    -0.296 N 
HETATM   31  C15 UNL     1      27.748 -12.471   0.279  1.00  0.00     0.191 C 
HETATM   32  N7  UNL     1      28.614 -11.552   0.916  1.00  0.00    -0.063 NA
HETATM   33  N8  UNL     1      27.713 -13.829   0.729  1.00  0.00    -0.360 N 
ATOM     34  H8  UNL     1      28.100 -14.598   0.182  1.00  0.00     0.162 HD
ATOM     35  H6  UNL     1      26.337 -12.792  -1.160  1.00  0.00     0.172 HD
BRANCH  33  36
HETATM   36  C16 UNL     1      27.081 -14.029   2.032  1.00  0.00     0.084 C 
HETATM   37  C17 UNL     1      27.504 -15.324   2.658  1.00  0.00     0.025 C 
HETATM   38  C18 UNL     1      26.350 -16.080   3.282  1.00  0.00     0.002 C 
HETATM   39  C19 UNL     1      25.414 -15.203   4.044  1.00  0.00     0.000 C 
HETATM   40  C20 UNL     1      25.023 -13.953   3.326  1.00  0.00     0.002 C 
HETATM   41  C21 UNL     1      25.555 -14.067   1.905  1.00  0.00     0.025 C 
ENDBRANCH  33  36
ENDBRANCH  28  30
ENDBRANCH  27  28
ENDBRANCH  26  27
BRANCH  26  42
HETATM   42  N9  UNL     1      29.899 -10.868  -2.964  1.00  0.00    -0.354 N 
ATOM     43  H9  UNL     1      29.877 -11.245  -3.912  1.00  0.00     0.162 HD
BRANCH  42  44
HETATM   44  C22 UNL     1      30.903 -11.298  -2.046  1.00  0.00     0.172 C 
HETATM   45  C23 UNL     1      31.002 -10.218  -0.973  1.00  0.00     0.042 C 
BRANCH  44  46
HETATM   46  C24 UNL     1      30.607 -12.629  -1.441  1.00  0.00     0.239 C 
HETATM   47  O3  UNL     1      29.670 -13.314  -1.889  1.00  0.00    -0.271 OA
HETATM   48  N10 UNL     1      31.408 -13.121  -0.344  1.00  0.00    -0.364 N 
HETATM   49  C25 UNL     1      31.093 -14.410   0.208  1.00  0.00     0.149 C 
ATOM     50  H10 UNL     1      32.179 -12.568   0.030  1.00  0.00     0.161 HD
ENDBRANCH  44  46
ENDBRANCH  42  44
ENDBRANCH  26  42
ENDBRANCH   1  26
TORSDOF 16
ENDMDL
MODEL 5
REMARK VINA RESULT: -7.591472113      3.039      8.649
REMARK  16 active torsions:
REMARK  status: ('A' for Active; 'I' for Inactive)
REMARK       I    between atoms: N1_2  and  C2_4 
REMARK    1  A    between atoms: C2_4  and  C3_6 
REMARK    2  A    between atoms: C3_6  and  N2_7 
REMARK    3  A    between atoms: C3_6  and  C26_47 
REMARK    4  A    between atoms: N2_7  and  C4_9 
REMARK    5  A    between atoms: C4_9  and  C5_10 
REMARK    6  A    between atoms: C4_9  and  C13_22 
REMARK    7  A    between atoms: C5_10  and  N3_11 
REMARK    8  A    between atoms: C8_14  and  N4_15 
REMARK       I    between atoms: N4_15  and  C9_17 
REMARK    9  A    between atoms: C13_22  and  N5_23 
REMARK   10  A    between atoms: C13_22  and  N9_38 
REMARK   11  A    between atoms: N5_23  and  C14_24 
REMARK   12  A    between atoms: C14_24  and  N6_26 
REMARK       I    between atoms: C15_28  and  N8_30 
REMARK   13  A    between atoms: N8_30  and  C16_32 
REMARK   14  A    between atoms: N9_38  and  C22_40 
REMARK   15  A    between atoms: C22_40  and  C24_42 
REMARK       I    between atoms: C24_42  and  N10_44 
REMARK   16  A    between atoms: C26_47  and  C28_49 
ROOT
HETATM    1  C4  UNL     1      28.410  -7.078  -4.418  1.00  0.00     0.199 C 
ENDROOT
BRANCH   1   2
HETATM    2  N2  UNL     1      29.429  -7.585  -3.571  1.00  0.00    -0.393 N 
ATOM      3  H2  UNL     1      29.590  -7.202  -2.639  1.00  0.00     0.155 HD
BRANCH   2   4
HETATM    4  C3  UNL     1      30.229  -8.671  -4.093  1.00  0.00     0.174 C 
BRANCH   4   5
HETATM    5  C2  UNL     1      30.120  -9.868  -3.187  1.00  0.00     0.243 C 
HETATM    6  N1  UNL     1      30.956  -9.985  -2.009  1.00  0.00    -0.345 N 
HETATM    7  C1  UNL     1      31.295 -11.159  -1.626  1.00  0.00     0.121 C 
ATOM      8  H1  UNL     1      31.265  -9.156  -1.500  1.00  0.00     0.167 HD
HETATM    9  O1  UNL     1      29.338 -10.818  -3.368  1.00  0.00    -0.271 OA
ENDBRANCH   4   5
BRANCH   4  10
HETATM   10  C26 UNL     1      31.667  -8.201  -4.111  1.00  0.00     0.013 C 
HETATM   11  C27 UNL     1      31.861  -6.828  -3.600  1.00  0.00     0.012 C 
BRANCH  10  12
HETATM   12  C28 UNL     1      32.307  -8.421  -5.464  1.00  0.00     0.002 C 
HETATM   13  C29 UNL     1      33.821  -8.417  -5.339  1.00  0.00     0.005 C 
ENDBRANCH  10  12
ENDBRANCH   4  10
ENDBRANCH   2   4
ENDBRANCH   1   2
BRANCH   1  14
HETATM   14  C5  UNL     1      27.062  -7.418  -3.846  1.00  0.00     0.091 C 
BRANCH  14  15
HETATM   15  N3  UNL     1      26.948  -8.259  -2.752  1.00  0.00    -0.391 N 
HETATM   16  C6  UNL     1      27.101  -7.753  -1.435  1.00  0.00     0.124 C 
HETATM   17  C7  UNL     1      27.741  -8.840  -0.580  1.00  0.00     0.045 C 
HETATM   18  C8  UNL     1      26.975 -10.105  -0.606  1.00  0.00     0.087 C 
HETATM   19  C11 UNL     1      25.772 -10.006  -1.559  1.00  0.00     0.045 C 
HETATM   20  C12 UNL     1      26.207  -9.467  -2.891  1.00  0.00     0.124 C 
BRANCH  18  21
HETATM   21  N4  UNL     1      27.762 -11.241  -1.054  1.00  0.00    -0.357 N 
HETATM   22  C9  UNL     1      27.799 -12.492  -0.395  1.00  0.00     0.213 C 
HETATM   23  C10 UNL     1      28.653 -13.581  -0.965  1.00  0.00     0.117 C 
HETATM   24  O2  UNL     1      27.139 -12.685   0.637  1.00  0.00    -0.274 OA
ATOM     25  H4  UNL     1      28.324 -11.130  -1.898  1.00  0.00     0.162 HD
ENDBRANCH  18  21
ENDBRANCH  14  15
ENDBRANCH   1  14
BRANCH   1  26
HETATM   26  C13 UNL     1      28.412  -5.568  -4.495  1.00  0.00     0.183 C 
BRANCH  26  27
HETATM   27  N5  UNL     1      27.747  -4.733  -3.966  1.00  0.00    -0.360 NA
BRANCH  27  28
HETATM   28  C14 UNL     1      27.012  -3.818  -3.392  1.00  0.00     0.253 C 
HETATM   29  S1  UNL     1      26.352  -2.499  -4.108  1.00  0.00    -0.025 SA
BRANCH  28  30
HETATM   30  N6  UNL     1      26.686  -3.895  -1.969  1.00  0.00    -0.296 N 
HETATM   31  C15 UNL     1      27.538  -3.328  -1.155  1.00  0.00     0.191 C 
HETATM   32  N7  UNL     1      28.707  -2.676  -1.613  1.00  0.00    -0.063 NA
HETATM   33  N8  UNL     1      27.258  -3.361   0.248  1.00  0.00    -0.360 N 
ATOM     34  H8  UNL     1      27.335  -4.213   0.804  1.00  0.00     0.162 HD
ATOM     35  H6  UNL     1      25.845  -4.363  -1.632  1.00  0.00     0.172 HD
BRANCH  33  36
HETATM   36  C16 UNL     1      26.854  -2.079   0.825  1.00  0.00     0.084 C 
HETATM   37  C17 UNL     1      26.733  -2.159   2.317  1.00  0.00     0.025 C 
HETATM   38  C18 UNL     1      25.495  -1.464   2.844  1.00  0.00     0.002 C 
HETATM   39  C19 UNL     1      25.230  -0.152   2.185  1.00  0.00     0.000 C 
HETATM   40  C20 UNL     1      25.341  -0.179   0.697  1.00  0.00     0.002 C 
HETATM   41  C21 UNL     1      25.491  -1.636   0.285  1.00  0.00     0.025 C 
ENDBRANCH  33  36
ENDBRANCH  28  30
ENDBRANCH  27  28
ENDBRANCH  26  27
BRANCH  26  42
HETATM   42  N9  UNL     1      29.419  -5.092  -5.465  1.00  0.00    -0.354 N 
ATOM     43  H9  UNL     1      29.875  -5.752  -6.096  1.00  0.00     0.162 HD
BRANCH  42  44
HETATM   44  C22 UNL     1      29.754  -3.706  -5.517  1.00  0.00     0.172 C 
HETATM   45  C23 UNL     1      31.135  -3.568  -4.881  1.00  0.00     0.042 C 
BRANCH  44  46
HETATM   46  C24 UNL     1      29.744  -3.156  -6.903  1.00  0.00     0.239 C 
HETATM   47  O3  UNL     1      29.138  -2.095  -7.141  1.00  0.00    -0.271 OA
HETATM   48  N10 UNL     1      30.439  -3.850  -7.963  1.00  0.00    -0.364 N 
HETATM   49  C25 UNL     1      30.409  -3.286  -9.283  1.00  0.00     0.149 C 
ATOM     50  H10 UNL     1      30.939  -4.720  -7.778  1.00  0.00     0.161 HD
ENDBRANCH  44  46
ENDBRANCH  42  44
ENDBRANCH  26  42
ENDBRANCH   1  26
TORSDOF 16
ENDMDL
