MODEL 1
REMARK VINA RESULT: -6.903383963      0.000      0.000
REMARK  20 active torsions:
REMARK  status: ('A' for Active; 'I' for Inactive)
REMARK    1  A    between atoms: O1_1  and  C1_3 
REMARK    2  A    between atoms: C1_3  and  C2_4 
REMARK    3  A    between atoms: C3_6  and  O3_7 
REMARK    4  A    between atoms: O3_7  and  C4_8 
REMARK    5  A    between atoms: C5_9  and  O4_10 
REMARK    6  A    between atoms: O4_10  and  C6_11 
REMARK    7  A    between atoms: C7_12  and  O5_13 
REMARK    8  A    between atoms: C8_15  and  C9_16 
REMARK    9  A    between atoms: C9_16  and  O6_17 
REMARK   10  A    between atoms: C10_20  and  S1_21 
REMARK   11  A    between atoms: S1_21  and  S2_22 
REMARK   12  A    between atoms: S2_22  and  C11_23 
REMARK   13  A    between atoms: C15_28  and  O9_29 
REMARK   14  A    between atoms: C16_32  and  C17_33 
REMARK   15  A    between atoms: C17_33  and  O11_34 
REMARK   16  A    between atoms: C18_36  and  O12_37 
REMARK   17  A    between atoms: C19_39  and  O13_40 
REMARK   18  A    between atoms: C20_42  and  O14_43 
REMARK   19  A    between atoms: C21_45  and  O15_46 
REMARK   20  A    between atoms: C22_48  and  O16_49 
ROOT
HETATM    1  C4  UNL     1     -10.322  -1.549  11.456  1.00  0.00     0.211 C 
HETATM    2  C5  UNL     1     -10.381  -0.353  12.413  1.00  0.00     0.292 C 
HETATM    3  O10 UNL     1     -10.429   0.782  11.592  1.00  0.00    -0.348 OA
HETATM    4  C16 UNL     1     -11.622   0.849  10.913  1.00  0.00     0.179 C 
HETATM    5  C18 UNL     1     -11.857  -0.350  10.000  1.00  0.00     0.180 C 
HETATM    6  C19 UNL     1     -11.728  -1.577  10.837  1.00  0.00     0.183 C 
ENDROOT
BRANCH   2   7
HETATM    7  O4  UNL     1      -9.357  -0.316  13.315  1.00  0.00    -0.348 OA
BRANCH   7   8
HETATM    8  C6  UNL     1      -9.064  -1.591  13.794  1.00  0.00     0.188 C 
HETATM    9  C7  UNL     1      -9.849  -1.892  15.043  1.00  0.00     0.180 C 
HETATM   10  C8  UNL     1      -9.162  -2.771  16.028  1.00  0.00     0.178 C 
HETATM   11  O7  UNL     1      -8.222  -3.544  15.375  1.00  0.00    -0.362 OA
HETATM   12  C10 UNL     1      -7.173  -2.724  14.995  1.00  0.00     0.226 C 
HETATM   13  C15 UNL     1      -7.580  -1.695  13.976  1.00  0.00     0.189 C 
BRANCH   9  14
HETATM   14  O5  UNL     1     -11.044  -2.550  14.666  1.00  0.00    -0.390 OA
ATOM     15  H5  UNL     1     -10.816  -3.278  14.100  1.00  0.00     0.210 HD
ENDBRANCH   9  14
BRANCH  10  16
HETATM   16  C9  UNL     1     -10.179  -3.614  16.770  1.00  0.00     0.198 C 
BRANCH  16  17
HETATM   17  O6  UNL     1     -10.201  -4.918  16.282  1.00  0.00    -0.398 OA
ATOM     18  H6  UNL     1      -9.384  -5.365  16.465  1.00  0.00     0.209 HD
ENDBRANCH  16  17
ENDBRANCH  10  16
BRANCH  12  19
HETATM   19  S1  UNL     1      -6.520  -1.918  16.480  1.00  0.00    -0.057 SA
BRANCH  19  20
HETATM   20  S2  UNL     1      -4.414  -1.811  16.396  1.00  0.00    -0.053 SA
BRANCH  20  21
HETATM   21  C11 UNL     1      -3.766  -3.445  16.101  1.00  0.00     0.035 A 
HETATM   22  C12 UNL     1      -2.547  -3.892  16.574  1.00  0.00     0.045 A 
HETATM   23  C13 UNL     1      -2.382  -5.200  16.148  1.00  0.00     0.142 A 
HETATM   24  O8  UNL     1      -3.447  -5.520  15.454  1.00  0.00    -0.333 OA
HETATM   25  C14 UNL     1      -4.292  -4.509  15.401  1.00  0.00     0.160 A 
ENDBRANCH  20  21
ENDBRANCH  19  20
ENDBRANCH  12  19
BRANCH  13  26
HETATM   26  O9  UNL     1      -7.052  -0.459  14.341  1.00  0.00    -0.389 OA
ATOM     27  H9  UNL     1      -6.419  -0.169  13.695  1.00  0.00     0.210 HD
ENDBRANCH  13  26
ENDBRANCH   7   8
ENDBRANCH   2   7
BRANCH   1  28
HETATM   28  O3  UNL     1      -9.364  -1.262  10.517  1.00  0.00    -0.346 OA
BRANCH  28  29
HETATM   29  C3  UNL     1      -8.584  -2.340  10.118  1.00  0.00     0.292 C 
HETATM   30  O2  UNL     1      -7.248  -2.171  10.415  1.00  0.00    -0.348 OA
HETATM   31  C2  UNL     1      -6.519  -3.300  10.146  1.00  0.00     0.179 C 
HETATM   32  C22 UNL     1      -6.908  -4.000   8.861  1.00  0.00     0.180 C 
HETATM   33  C21 UNL     1      -7.485  -2.947   7.929  1.00  0.00     0.183 C 
HETATM   34  C20 UNL     1      -8.740  -2.439   8.615  1.00  0.00     0.204 C 
BRANCH  31  35
HETATM   35  C1  UNL     1      -6.571  -4.340  11.247  1.00  0.00     0.198 C 
BRANCH  35  36
HETATM   36  O1  UNL     1      -7.082  -5.541  10.798  1.00  0.00    -0.398 OA
ATOM     37  H1  UNL     1      -6.403  -6.109  10.452  1.00  0.00     0.209 HD
ENDBRANCH  35  36
ENDBRANCH  31  35
BRANCH  32  38
HETATM   38  O16 UNL     1      -5.862  -4.633   8.236  1.00  0.00    -0.390 OA
ATOM     39  H16 UNL     1      -6.065  -5.513   7.945  1.00  0.00     0.210 HD
ENDBRANCH  32  38
BRANCH  33  40
HETATM   40  O15 UNL     1      -6.522  -1.965   7.781  1.00  0.00    -0.390 OA
ATOM     41  H15 UNL     1      -5.640  -2.317   7.754  1.00  0.00     0.210 HD
ENDBRANCH  33  40
BRANCH  34  42
HETATM   42  O14 UNL     1      -9.737  -3.378   8.359  1.00  0.00    -0.388 OA
ATOM     43  H14 UNL     1      -9.340  -4.091   7.873  1.00  0.00     0.210 HD
ENDBRANCH  34  42
ENDBRANCH  28  29
ENDBRANCH   1  28
BRANCH   6  44
HETATM   44  O13 UNL     1     -12.030  -2.755  10.218  1.00  0.00    -0.390 OA
ATOM     45  H13 UNL     1     -12.724  -2.680   9.575  1.00  0.00     0.210 HD
ENDBRANCH   6  44
BRANCH   4  46
HETATM   46  C17 UNL     1     -11.608   2.133  10.102  1.00  0.00     0.198 C 
BRANCH  46  47
HETATM   47  O11 UNL     1     -11.275   1.915   8.776  1.00  0.00    -0.398 OA
ATOM     48  H11 UNL     1     -11.795   2.442   8.181  1.00  0.00     0.209 HD
ENDBRANCH  46  47
ENDBRANCH   4  46
BRANCH   5  49
HETATM   49  O12 UNL     1     -13.106  -0.215   9.425  1.00  0.00    -0.390 OA
ATOM     50  H12 UNL     1     -13.539  -1.061   9.454  1.00  0.00     0.210 HD
ENDBRANCH   5  49
TORSDOF 20
ENDMDL
MODEL 2
REMARK VINA RESULT: -6.881897503      3.109      5.743
REMARK  20 active torsions:
REMARK  status: ('A' for Active; 'I' for Inactive)
REMARK    1  A    between atoms: O1_1  and  C1_3 
REMARK    2  A    between atoms: C1_3  and  C2_4 
REMARK    3  A    between atoms: C3_6  and  O3_7 
REMARK    4  A    between atoms: O3_7  and  C4_8 
REMARK    5  A    between atoms: C5_9  and  O4_10 
REMARK    6  A    between atoms: O4_10  and  C6_11 
REMARK    7  A    between atoms: C7_12  and  O5_13 
REMARK    8  A    between atoms: C8_15  and  C9_16 
REMARK    9  A    between atoms: C9_16  and  O6_17 
REMARK   10  A    between atoms: C10_20  and  S1_21 
REMARK   11  A    between atoms: S1_21  and  S2_22 
REMARK   12  A    between atoms: S2_22  and  C11_23 
REMARK   13  A    between atoms: C15_28  and  O9_29 
REMARK   14  A    between atoms: C16_32  and  C17_33 
REMARK   15  A    between atoms: C17_33  and  O11_34 
REMARK   16  A    between atoms: C18_36  and  O12_37 
REMARK   17  A    between atoms: C19_39  and  O13_40 
REMARK   18  A    between atoms: C20_42  and  O14_43 
REMARK   19  A    between atoms: C21_45  and  O15_46 
REMARK   20  A    between atoms: C22_48  and  O16_49 
ROOT
HETATM    1  C4  UNL     1      -8.669  -1.928  10.606  1.00  0.00     0.211 C 
HETATM    2  C5  UNL     1      -9.978  -2.516  10.070  1.00  0.00     0.292 C 
HETATM    3  O10 UNL     1     -10.160  -1.936   8.807  1.00  0.00    -0.348 OA
HETATM    4  C16 UNL     1      -9.214  -2.386   7.918  1.00  0.00     0.179 C 
HETATM    5  C18 UNL     1      -7.788  -2.049   8.343  1.00  0.00     0.180 C 
HETATM    6  C19 UNL     1      -7.598  -2.584   9.721  1.00  0.00     0.183 C 
ENDROOT
BRANCH   2   7
HETATM    7  O4  UNL     1     -11.047  -2.331  10.900  1.00  0.00    -0.348 OA
BRANCH   7   8
HETATM    8  C6  UNL     1     -11.468  -3.540  11.452  1.00  0.00     0.188 C 
HETATM    9  C7  UNL     1     -12.959  -3.699  11.332  1.00  0.00     0.180 C 
HETATM   10  C8  UNL     1     -13.609  -4.452  12.438  1.00  0.00     0.178 C 
HETATM   11  O7  UNL     1     -12.683  -5.288  13.029  1.00  0.00    -0.362 OA
HETATM   12  C10 UNL     1     -11.788  -4.509  13.745  1.00  0.00     0.226 C 
HETATM   13  C15 UNL     1     -10.967  -3.610  12.864  1.00  0.00     0.189 C 
BRANCH   9  14
HETATM   14  O5  UNL     1     -13.233  -4.406  10.136  1.00  0.00    -0.390 OA
ATOM     15  H5  UNL     1     -13.997  -4.014   9.728  1.00  0.00     0.210 HD
ENDBRANCH   9  14
BRANCH  10  16
HETATM   16  C9  UNL     1     -14.812  -5.210  11.915  1.00  0.00     0.198 C 
BRANCH  16  17
HETATM   17  O6  UNL     1     -14.475  -6.522  11.591  1.00  0.00    -0.398 OA
ATOM     18  H6  UNL     1     -15.201  -6.967  11.171  1.00  0.00     0.209 HD
ENDBRANCH  16  17
ENDBRANCH  10  16
BRANCH  12  19
HETATM   19  S1  UNL     1     -12.728  -3.531  14.946  1.00  0.00    -0.057 SA
BRANCH  19  20
HETATM   20  S2  UNL     1     -11.866  -3.694  16.866  1.00  0.00    -0.053 SA
BRANCH  20  21
HETATM   21  C11 UNL     1     -10.213  -3.029  16.813  1.00  0.00     0.035 A 
HETATM   22  C12 UNL     1      -9.806  -1.909  17.512  1.00  0.00     0.045 A 
HETATM   23  C13 UNL     1      -8.468  -1.694  17.225  1.00  0.00     0.142 A 
HETATM   24  O8  UNL     1      -8.092  -2.637  16.396  1.00  0.00    -0.333 OA
HETATM   25  C14 UNL     1      -9.095  -3.448  16.125  1.00  0.00     0.160 A 
ENDBRANCH  20  21
ENDBRANCH  19  20
ENDBRANCH  12  19
BRANCH  13  26
HETATM   26  O9  UNL     1     -10.927  -2.336  13.424  1.00  0.00    -0.389 OA
ATOM     27  H9  UNL     1     -10.164  -1.863  13.112  1.00  0.00     0.210 HD
ENDBRANCH  13  26
ENDBRANCH   7   8
ENDBRANCH   2   7
BRANCH   1  28
HETATM   28  O3  UNL     1      -8.727  -0.572  10.404  1.00  0.00    -0.346 OA
BRANCH  28  29
HETATM   29  C3  UNL     1      -8.694   0.201  11.558  1.00  0.00     0.292 C 
HETATM   30  O2  UNL     1      -8.866  -0.545  12.705  1.00  0.00    -0.348 OA
HETATM   31  C2  UNL     1      -8.686   0.210  13.836  1.00  0.00     0.179 C 
HETATM   32  C22 UNL     1      -9.286   1.598  13.759  1.00  0.00     0.180 C 
HETATM   33  C21 UNL     1     -10.451   1.533  12.784  1.00  0.00     0.183 C 
HETATM   34  C20 UNL     1      -9.839   1.184  11.440  1.00  0.00     0.204 C 
BRANCH  31  35
HETATM   35  C1  UNL     1      -7.234   0.379  14.234  1.00  0.00     0.198 C 
BRANCH  35  36
HETATM   36  O1  UNL     1      -6.831   1.698  14.165  1.00  0.00    -0.398 OA
ATOM     37  H1  UNL     1      -7.185   2.138  13.401  1.00  0.00     0.209 HD
ENDBRANCH  35  36
ENDBRANCH  31  35
BRANCH  32  38
HETATM   38  O16 UNL     1      -9.733   2.076  14.965  1.00  0.00    -0.390 OA
ATOM     39  H16 UNL     1     -10.236   2.878  14.897  1.00  0.00     0.210 HD
ENDBRANCH  32  38
BRANCH  33  40
HETATM   40  O15 UNL     1     -11.314   0.558  13.248  1.00  0.00    -0.390 OA
ATOM     41  H15 UNL     1     -12.126   0.916  13.587  1.00  0.00     0.210 HD
ENDBRANCH  33  40
BRANCH  34  42
HETATM   42  O14 UNL     1      -9.321   2.369  10.922  1.00  0.00    -0.388 OA
ATOM     43  H14 UNL     1      -9.524   3.063  11.538  1.00  0.00     0.210 HD
ENDBRANCH  34  42
ENDBRANCH  28  29
ENDBRANCH   1  28
BRANCH   6  44
HETATM   44  O13 UNL     1      -6.335  -2.487  10.228  1.00  0.00    -0.390 OA
ATOM     45  H13 UNL     1      -5.748  -3.166   9.919  1.00  0.00     0.210 HD
ENDBRANCH   6  44
BRANCH   4  46
HETATM   46  C17 UNL     1      -9.525  -1.757   6.571  1.00  0.00     0.198 C 
BRANCH  46  47
HETATM   47  O11 UNL     1      -8.945  -0.509   6.427  1.00  0.00    -0.398 OA
ATOM     48  H11 UNL     1      -8.540  -0.394   5.575  1.00  0.00     0.209 HD
ENDBRANCH  46  47
ENDBRANCH   4  46
BRANCH   5  49
HETATM   49  O12 UNL     1      -6.922  -2.605   7.421  1.00  0.00    -0.390 OA
ATOM     50  H12 UNL     1      -6.119  -2.839   7.872  1.00  0.00     0.210 HD
ENDBRANCH   5  49
TORSDOF 20
ENDMDL
MODEL 3
REMARK VINA RESULT: -6.869181458      2.070      3.695
REMARK  20 active torsions:
REMARK  status: ('A' for Active; 'I' for Inactive)
REMARK    1  A    between atoms: O1_1  and  C1_3 
REMARK    2  A    between atoms: C1_3  and  C2_4 
REMARK    3  A    between atoms: C3_6  and  O3_7 
REMARK    4  A    between atoms: O3_7  and  C4_8 
REMARK    5  A    between atoms: C5_9  and  O4_10 
REMARK    6  A    between atoms: O4_10  and  C6_11 
REMARK    7  A    between atoms: C7_12  and  O5_13 
REMARK    8  A    between atoms: C8_15  and  C9_16 
REMARK    9  A    between atoms: C9_16  and  O6_17 
REMARK   10  A    between atoms: C10_20  and  S1_21 
REMARK   11  A    between atoms: S1_21  and  S2_22 
REMARK   12  A    between atoms: S2_22  and  C11_23 
REMARK   13  A    between atoms: C15_28  and  O9_29 
REMARK   14  A    between atoms: C16_32  and  C17_33 
REMARK   15  A    between atoms: C17_33  and  O11_34 
REMARK   16  A    between atoms: C18_36  and  O12_37 
REMARK   17  A    between atoms: C19_39  and  O13_40 
REMARK   18  A    between atoms: C20_42  and  O14_43 
REMARK   19  A    between atoms: C21_45  and  O15_46 
REMARK   20  A    between atoms: C22_48  and  O16_49 
ROOT
HETATM    1  C4  UNL     1     -11.194  -2.694  10.149  1.00  0.00     0.211 C 
HETATM    2  C5  UNL     1     -11.163  -1.166  10.260  1.00  0.00     0.292 C 
HETATM    3  O10 UNL     1     -11.225  -0.693   8.942  1.00  0.00    -0.348 OA
HETATM    4  C16 UNL     1     -12.453  -0.954   8.383  1.00  0.00     0.179 C 
HETATM    5  C18 UNL     1     -12.776  -2.443   8.319  1.00  0.00     0.180 C 
HETATM    6  C19 UNL     1     -12.634  -2.987   9.700  1.00  0.00     0.183 C 
ENDROOT
BRANCH   2   7
HETATM    7  O4  UNL     1     -10.087  -0.684  10.949  1.00  0.00    -0.348 OA
BRANCH   7   8
HETATM    8  C6  UNL     1     -10.489  -0.027  12.110  1.00  0.00     0.188 C 
HETATM    9  C7  UNL     1     -10.045   1.411  12.099  1.00  0.00     0.180 C 
HETATM   10  C8  UNL     1      -9.718   1.985  13.433  1.00  0.00     0.178 C 
HETATM   11  O7  UNL     1     -10.392   1.283  14.412  1.00  0.00    -0.362 OA
HETATM   12  C10 UNL     1      -9.812   0.030  14.526  1.00  0.00     0.226 C 
HETATM   13  C15 UNL     1      -9.982  -0.804  13.288  1.00  0.00     0.189 C 
BRANCH   9  14
HETATM   14  O5  UNL     1     -11.094   2.194  11.560  1.00  0.00    -0.390 OA
ATOM     15  H5  UNL     1     -10.835   3.107  11.604  1.00  0.00     0.210 HD
ENDBRANCH   9  14
BRANCH  10  16
HETATM   16  C9  UNL     1     -10.049   3.463  13.458  1.00  0.00     0.198 C 
BRANCH  16  17
HETATM   17  O6  UNL     1     -11.276   3.691  14.075  1.00  0.00    -0.398 OA
ATOM     18  H6  UNL     1     -11.160   4.098  14.925  1.00  0.00     0.209 HD
ENDBRANCH  16  17
ENDBRANCH  10  16
BRANCH  12  19
HETATM   19  S1  UNL     1      -8.054   0.256  14.900  1.00  0.00    -0.057 SA
BRANCH  19  20
HETATM   20  S2  UNL     1      -7.455  -1.049  16.448  1.00  0.00    -0.053 SA
BRANCH  20  21
HETATM   21  C11 UNL     1      -7.414  -2.714  15.813  1.00  0.00     0.035 A 
HETATM   22  C12 UNL     1      -6.273  -3.334  15.338  1.00  0.00     0.045 A 
HETATM   23  C13 UNL     1      -6.624  -4.610  14.930  1.00  0.00     0.142 A 
HETATM   24  O8  UNL     1      -7.909  -4.749  15.148  1.00  0.00    -0.333 OA
HETATM   25  C14 UNL     1      -8.416  -3.649  15.670  1.00  0.00     0.160 A 
ENDBRANCH  20  21
ENDBRANCH  19  20
ENDBRANCH  12  19
BRANCH  13  26
HETATM   26  O9  UNL     1      -8.768  -1.412  12.977  1.00  0.00    -0.389 OA
ATOM     27  H9  UNL     1      -8.523  -2.024  13.660  1.00  0.00     0.210 HD
ENDBRANCH  13  26
ENDBRANCH   7   8
ENDBRANCH   2   7
BRANCH   1  28
HETATM   28  O3  UNL     1     -10.285  -3.043   9.183  1.00  0.00    -0.346 OA
BRANCH  28  29
HETATM   29  C3  UNL     1      -9.103  -3.599   9.656  1.00  0.00     0.292 C 
HETATM   30  O2  UNL     1      -9.006  -3.557  11.032  1.00  0.00    -0.348 OA
HETATM   31  C2  UNL     1      -7.905  -4.237  11.486  1.00  0.00     0.179 C 
HETATM   32  C22 UNL     1      -6.659  -4.032  10.651  1.00  0.00     0.180 C 
HETATM   33  C21 UNL     1      -6.780  -2.669   9.986  1.00  0.00     0.183 C 
HETATM   34  C20 UNL     1      -7.982  -2.771   9.065  1.00  0.00     0.204 C 
BRANCH  31  35
HETATM   35  C1  UNL     1      -8.114  -5.733  11.604  1.00  0.00     0.198 C 
BRANCH  35  36
HETATM   36  O1  UNL     1      -7.025  -6.444  11.141  1.00  0.00    -0.398 OA
ATOM     37  H1  UNL     1      -6.287  -6.391  11.737  1.00  0.00     0.209 HD
ENDBRANCH  35  36
ENDBRANCH  31  35
BRANCH  32  38
HETATM   38  O16 UNL     1      -5.493  -4.080  11.374  1.00  0.00    -0.390 OA
ATOM     39  H16 UNL     1      -5.077  -3.233  11.487  1.00  0.00     0.210 HD
ENDBRANCH  32  38
BRANCH  33  40
HETATM   40  O15 UNL     1      -6.956  -1.740  10.995  1.00  0.00    -0.390 OA
ATOM     41  H15 UNL     1      -7.301  -0.914  10.678  1.00  0.00     0.210 HD
ENDBRANCH  33  40
BRANCH  34  42
HETATM   42  O14 UNL     1      -7.543  -3.422   7.914  1.00  0.00    -0.388 OA
ATOM     43  H14 UNL     1      -7.586  -2.798   7.198  1.00  0.00     0.210 HD
ENDBRANCH  34  42
ENDBRANCH  28  29
ENDBRANCH   1  28
BRANCH   6  44
HETATM   44  O13 UNL     1     -13.005  -4.289   9.868  1.00  0.00    -0.390 OA
ATOM     45  H13 UNL     1     -13.923  -4.450   9.685  1.00  0.00     0.210 HD
ENDBRANCH   6  44
BRANCH   4  46
HETATM   46  C17 UNL     1     -12.449  -0.356   6.987  1.00  0.00     0.198 C 
BRANCH  46  47
HETATM   47  O11 UNL     1     -11.795  -1.162   6.071  1.00  0.00    -0.398 OA
ATOM     48  H11 UNL     1     -12.395  -1.592   5.473  1.00  0.00     0.209 HD
ENDBRANCH  46  47
ENDBRANCH   4  46
BRANCH   5  49
HETATM   49  O12 UNL     1     -14.052  -2.586   7.809  1.00  0.00    -0.390 OA
ATOM     50  H12 UNL     1     -14.662  -2.190   8.421  1.00  0.00     0.210 HD
ENDBRANCH   5  49
TORSDOF 20
ENDMDL
MODEL 4
REMARK VINA RESULT: -6.855173209      3.147      5.334
REMARK  20 active torsions:
REMARK  status: ('A' for Active; 'I' for Inactive)
REMARK    1  A    between atoms: O1_1  and  C1_3 
REMARK    2  A    between atoms: C1_3  and  C2_4 
REMARK    3  A    between atoms: C3_6  and  O3_7 
REMARK    4  A    between atoms: O3_7  and  C4_8 
REMARK    5  A    between atoms: C5_9  and  O4_10 
REMARK    6  A    between atoms: O4_10  and  C6_11 
REMARK    7  A    between atoms: C7_12  and  O5_13 
REMARK    8  A    between atoms: C8_15  and  C9_16 
REMARK    9  A    between atoms: C9_16  and  O6_17 
REMARK   10  A    between atoms: C10_20  and  S1_21 
REMARK   11  A    between atoms: S1_21  and  S2_22 
REMARK   12  A    between atoms: S2_22  and  C11_23 
REMARK   13  A    between atoms: C15_28  and  O9_29 
REMARK   14  A    between atoms: C16_32  and  C17_33 
REMARK   15  A    between atoms: C17_33  and  O11_34 
REMARK   16  A    between atoms: C18_36  and  O12_37 
REMARK   17  A    between atoms: C19_39  and  O13_40 
REMARK   18  A    between atoms: C20_42  and  O14_43 
REMARK   19  A    between atoms: C21_45  and  O15_46 
REMARK   20  A    between atoms: C22_48  and  O16_49 
ROOT
HETATM    1  C4  UNL     1      -8.634  -3.168  11.860  1.00  0.00     0.211 C 
HETATM    2  C5  UNL     1      -8.009  -1.779  11.688  1.00  0.00     0.292 C 
HETATM    3  O10 UNL     1      -7.244  -1.855  10.516  1.00  0.00    -0.348 OA
HETATM    4  C16 UNL     1      -8.050  -1.987   9.410  1.00  0.00     0.179 C 
HETATM    5  C18 UNL     1      -8.907  -3.248   9.445  1.00  0.00     0.180 C 
HETATM    6  C19 UNL     1      -9.669  -3.232  10.726  1.00  0.00     0.183 C 
ENDROOT
BRANCH   2   7
HETATM    7  O4  UNL     1      -7.287  -1.361  12.770  1.00  0.00    -0.348 OA
BRANCH   7   8
HETATM    8  C6  UNL     1      -8.119  -0.832  13.754  1.00  0.00     0.188 C 
HETATM    9  C7  UNL     1      -7.743   0.590  14.072  1.00  0.00     0.180 C 
HETATM   10  C8  UNL     1      -7.965   1.006  15.484  1.00  0.00     0.178 C 
HETATM   11  O7  UNL     1      -8.944   0.210  16.046  1.00  0.00    -0.362 OA
HETATM   12  C10 UNL     1      -8.418  -1.057  16.235  1.00  0.00     0.226 C 
HETATM   13  C15 UNL     1      -8.079  -1.745  14.942  1.00  0.00     0.189 C 
BRANCH   9  14
HETATM   14  O5  UNL     1      -8.528   1.447  13.262  1.00  0.00    -0.390 OA
ATOM     15  H5  UNL     1      -8.130   1.486  12.400  1.00  0.00     0.210 HD
ENDBRANCH   9  14
BRANCH  10  16
HETATM   16  C9  UNL     1      -8.321   2.477  15.543  1.00  0.00     0.198 C 
BRANCH  16  17
HETATM   17  O6  UNL     1      -7.175   3.266  15.610  1.00  0.00    -0.398 OA
ATOM     18  H6  UNL     1      -6.776   3.363  14.753  1.00  0.00     0.209 HD
ENDBRANCH  16  17
ENDBRANCH  10  16
BRANCH  12  19
HETATM   19  S1  UNL     1      -6.942  -0.906  17.276  1.00  0.00    -0.057 SA
BRANCH  19  20
HETATM   20  S2  UNL     1      -7.389   0.164  19.040  1.00  0.00    -0.053 SA
BRANCH  20  21
HETATM   21  C11 UNL     1      -6.161   1.436  19.269  1.00  0.00     0.035 A 
HETATM   22  C12 UNL     1      -4.831   1.186  19.547  1.00  0.00     0.045 A 
HETATM   23  C13 UNL     1      -4.186   2.407  19.659  1.00  0.00     0.142 A 
HETATM   24  O8  UNL     1      -5.084   3.341  19.458  1.00  0.00    -0.333 OA
HETATM   25  C14 UNL     1      -6.267   2.808  19.223  1.00  0.00     0.160 A 
ENDBRANCH  20  21
ENDBRANCH  19  20
ENDBRANCH  12  19
BRANCH  13  26
HETATM   26  O9  UNL     1      -6.823  -2.335  15.055  1.00  0.00    -0.389 OA
ATOM     27  H9  UNL     1      -6.350  -1.964  15.790  1.00  0.00     0.210 HD
ENDBRANCH  13  26
ENDBRANCH   7   8
ENDBRANCH   2   7
BRANCH   1  28
HETATM   28  O3  UNL     1      -7.629  -4.083  11.677  1.00  0.00    -0.346 OA
BRANCH  28  29
HETATM   29  C3  UNL     1      -7.190  -4.719  12.831  1.00  0.00     0.292 C 
HETATM   30  O2  UNL     1      -6.031  -5.441  12.636  1.00  0.00    -0.348 OA
HETATM   31  C2  UNL     1      -5.536  -5.939  13.813  1.00  0.00     0.179 C 
HETATM   32  C22 UNL     1      -6.593  -6.478  14.753  1.00  0.00     0.180 C 
HETATM   33  C21 UNL     1      -7.768  -6.930  13.901  1.00  0.00     0.183 C 
HETATM   34  C20 UNL     1      -8.295  -5.672  13.234  1.00  0.00     0.204 C 
BRANCH  31  35
HETATM   35  C1  UNL     1      -4.712  -4.942  14.602  1.00  0.00     0.198 C 
BRANCH  35  36
HETATM   36  O1  UNL     1      -3.752  -5.564  15.375  1.00  0.00    -0.398 OA
ATOM     37  H1  UNL     1      -2.902  -5.147  15.289  1.00  0.00     0.209 HD
ENDBRANCH  35  36
ENDBRANCH  31  35
BRANCH  32  38
HETATM   38  O16 UNL     1      -6.164  -7.530  15.524  1.00  0.00    -0.390 OA
ATOM     39  H16 UNL     1      -6.173  -8.365  15.072  1.00  0.00     0.210 HD
ENDBRANCH  32  38
BRANCH  33  40
HETATM   40  O15 UNL     1      -7.280  -7.852  12.993  1.00  0.00    -0.390 OA
ATOM     41  H15 UNL     1      -6.547  -7.520  12.489  1.00  0.00     0.210 HD
ENDBRANCH  33  40
BRANCH  34  42
HETATM   42  O14 UNL     1      -9.083  -5.023  14.182  1.00  0.00    -0.388 OA
ATOM     43  H14 UNL     1      -8.585  -4.988  14.991  1.00  0.00     0.210 HD
ENDBRANCH  34  42
ENDBRANCH  28  29
ENDBRANCH   1  28
BRANCH   6  44
HETATM   44  O13 UNL     1     -10.591  -4.225  10.883  1.00  0.00    -0.390 OA
ATOM     45  H13 UNL     1     -10.567  -4.879  10.195  1.00  0.00     0.210 HD
ENDBRANCH   6  44
BRANCH   4  46
HETATM   46  C17 UNL     1      -7.145  -1.999   8.191  1.00  0.00     0.198 C 
BRANCH  46  47
HETATM   47  O11 UNL     1      -7.102  -3.240   7.579  1.00  0.00    -0.398 OA
ATOM     48  H11 UNL     1      -7.368  -3.203   6.668  1.00  0.00     0.209 HD
ENDBRANCH  46  47
ENDBRANCH   4  46
BRANCH   5  49
HETATM   49  O12 UNL     1      -9.722  -3.245   8.329  1.00  0.00    -0.390 OA
ATOM     50  H12 UNL     1      -9.451  -3.959   7.762  1.00  0.00     0.210 HD
ENDBRANCH   5  49
TORSDOF 20
ENDMDL
MODEL 5
REMARK VINA RESULT: -6.838882532      2.943      5.553
REMARK  20 active torsions:
REMARK  status: ('A' for Active; 'I' for Inactive)
REMARK    1  A    between atoms: O1_1  and  C1_3 
REMARK    2  A    between atoms: C1_3  and  C2_4 
REMARK    3  A    between atoms: C3_6  and  O3_7 
REMARK    4  A    between atoms: O3_7  and  C4_8 
REMARK    5  A    between atoms: C5_9  and  O4_10 
REMARK    6  A    between atoms: O4_10  and  C6_11 
REMARK    7  A    between atoms: C7_12  and  O5_13 
REMARK    8  A    between atoms: C8_15  and  C9_16 
REMARK    9  A    between atoms: C9_16  and  O6_17 
REMARK   10  A    between atoms: C10_20  and  S1_21 
REMARK   11  A    between atoms: S1_21  and  S2_22 
REMARK   12  A    between atoms: S2_22  and  C11_23 
REMARK   13  A    between atoms: C15_28  and  O9_29 
REMARK   14  A    between atoms: C16_32  and  C17_33 
REMARK   15  A    between atoms: C17_33  and  O11_34 
REMARK   16  A    between atoms: C18_36  and  O12_37 
REMARK   17  A    between atoms: C19_39  and  O13_40 
REMARK   18  A    between atoms: C20_42  and  O14_43 
REMARK   19  A    between atoms: C21_45  and  O15_46 
REMARK   20  A    between atoms: C22_48  and  O16_49 
ROOT
HETATM    1  C4  UNL     1      -7.725  -3.187  11.503  1.00  0.00     0.211 C 
HETATM    2  C5  UNL     1      -7.527  -2.489  12.853  1.00  0.00     0.292 C 
HETATM    3  O10 UNL     1      -8.574  -2.944  13.667  1.00  0.00    -0.348 OA
HETATM    4  C16 UNL     1      -8.423  -4.277  13.965  1.00  0.00     0.179 C 
HETATM    5  C18 UNL     1      -8.424  -5.169  12.728  1.00  0.00     0.180 C 
HETATM    6  C19 UNL     1      -7.371  -4.651  11.807  1.00  0.00     0.183 C 
ENDROOT
BRANCH   2   7
HETATM    7  O4  UNL     1      -7.472  -1.127  12.768  1.00  0.00    -0.348 OA
BRANCH   7   8
HETATM    8  C6  UNL     1      -8.606  -0.544  13.330  1.00  0.00     0.188 C 
HETATM    9  C7  UNL     1      -9.127   0.570  12.461  1.00  0.00     0.180 C 
HETATM   10  C8  UNL     1      -9.768   1.697  13.191  1.00  0.00     0.178 C 
HETATM   11  O7  UNL     1     -10.228   1.250  14.413  1.00  0.00    -0.362 OA
HETATM   12  C10 UNL     1      -9.134   1.011  15.228  1.00  0.00     0.226 C 
HETATM   13  C15 UNL     1      -8.268  -0.110  14.725  1.00  0.00     0.189 C 
BRANCH   9  14
HETATM   14  O5  UNL     1     -10.107   0.031  11.593  1.00  0.00    -0.390 OA
ATOM     15  H5  UNL     1     -10.084   0.521  10.779  1.00  0.00     0.210 HD
ENDBRANCH   9  14
BRANCH  10  16
HETATM   16  C9  UNL     1     -10.874   2.299  12.349  1.00  0.00     0.198 C 
BRANCH  16  17
HETATM   17  O6  UNL     1     -10.355   2.957  11.236  1.00  0.00    -0.398 OA
ATOM     18  H6  UNL     1     -10.782   2.669  10.439  1.00  0.00     0.209 HD
ENDBRANCH  16  17
ENDBRANCH  10  16
BRANCH  12  19
HETATM   19  S1  UNL     1      -8.175   2.544  15.349  1.00  0.00    -0.057 SA
BRANCH  19  20
HETATM   20  S2  UNL     1      -8.071   3.192  17.356  1.00  0.00    -0.053 SA
BRANCH  20  21
HETATM   21  C11 UNL     1      -7.884   1.768  18.411  1.00  0.00     0.035 A 
HETATM   22  C12 UNL     1      -8.611   1.560  19.567  1.00  0.00     0.045 A 
HETATM   23  C13 UNL     1      -8.195   0.358  20.119  1.00  0.00     0.142 A 
HETATM   24  O8  UNL     1      -7.266  -0.129  19.332  1.00  0.00    -0.333 OA
HETATM   25  C14 UNL     1      -7.051   0.675  18.309  1.00  0.00     0.160 A 
ENDBRANCH  20  21
ENDBRANCH  19  20
ENDBRANCH  12  19
BRANCH  13  26
HETATM   26  O9  UNL     1      -6.933   0.276  14.799  1.00  0.00    -0.389 OA
ATOM     27  H9  UNL     1      -6.548  -0.025  15.614  1.00  0.00     0.210 HD
ENDBRANCH  13  26
ENDBRANCH   7   8
ENDBRANCH   2   7
BRANCH   1  28
HETATM   28  O3  UNL     1      -9.048  -3.047  11.171  1.00  0.00    -0.346 OA
BRANCH  28  29
HETATM   29  C3  UNL     1      -9.289  -2.549   9.897  1.00  0.00     0.292 C 
HETATM   30  O2  UNL     1      -9.804  -3.500   9.040  1.00  0.00    -0.348 OA
HETATM   31  C2  UNL     1     -10.169  -2.956   7.835  1.00  0.00     0.179 C 
HETATM   32  C22 UNL     1      -9.199  -1.925   7.299  1.00  0.00     0.180 C 
HETATM   33  C21 UNL     1      -7.826  -2.260   7.861  1.00  0.00     0.183 C 
HETATM   34  C20 UNL     1      -7.949  -2.088   9.364  1.00  0.00     0.204 C 
BRANCH  31  35
HETATM   35  C1  UNL     1     -11.539  -2.309   7.846  1.00  0.00     0.198 C 
BRANCH  35  36
HETATM   36  O1  UNL     1     -11.914  -1.876   6.590  1.00  0.00    -0.398 OA
ATOM     37  H1  UNL     1     -11.367  -1.163   6.282  1.00  0.00     0.209 HD
ENDBRANCH  35  36
ENDBRANCH  31  35
BRANCH  32  38
HETATM   38  O16 UNL     1      -9.130  -1.890   5.929  1.00  0.00    -0.390 OA
ATOM     39  H16 UNL     1      -8.354  -1.456   5.595  1.00  0.00     0.210 HD
ENDBRANCH  32  38
BRANCH  33  40
HETATM   40  O15 UNL     1      -7.544  -3.562   7.493  1.00  0.00    -0.390 OA
ATOM     41  H15 UNL     1      -7.502  -3.677   6.550  1.00  0.00     0.210 HD
ENDBRANCH  33  40
BRANCH  34  42
HETATM   42  O14 UNL     1      -7.847  -0.721   9.616  1.00  0.00    -0.388 OA
ATOM     43  H14 UNL     1      -7.364  -0.334   8.895  1.00  0.00     0.210 HD
ENDBRANCH  34  42
ENDBRANCH  28  29
ENDBRANCH   1  28
BRANCH   6  44
HETATM   44  O13 UNL     1      -7.136  -5.400  10.691  1.00  0.00    -0.390 OA
ATOM     45  H13 UNL     1      -6.396  -5.989  10.777  1.00  0.00     0.210 HD
ENDBRANCH   6  44
BRANCH   4  46
HETATM   46  C17 UNL     1      -9.561  -4.664  14.893  1.00  0.00     0.198 C 
BRANCH  46  47
HETATM   47  O11 UNL     1     -10.614  -5.255  14.217  1.00  0.00    -0.398 OA
ATOM     48  H11 UNL     1     -11.390  -5.338  14.758  1.00  0.00     0.209 HD
ENDBRANCH  46  47
ENDBRANCH   4  46
BRANCH   5  49
HETATM   49  O12 UNL     1      -8.196  -6.470  13.135  1.00  0.00    -0.390 OA
ATOM     50  H12 UNL     1      -9.038  -6.900  13.233  1.00  0.00     0.210 HD
ENDBRANCH   5  49
TORSDOF 20
ENDMDL
