MODEL 1
REMARK VINA RESULT: -6.112528850      0.000      0.000
REMARK  3 active torsions:
REMARK  status: ('A' for Active; 'I' for Inactive)
REMARK    1  A    between atoms: C1_2  and  C2_4 
REMARK       I    between atoms: N1_8  and  C6_9 
REMARK    2  A    between atoms: C6_9  and  O4_11 
REMARK    3  A    between atoms: O4_11  and  C7_12 
ROOT
HETATM    1  C2  UNL     1      33.168   1.119  14.868  1.00  0.00     0.190 C 
HETATM    2  C3  UNL     1      34.165   1.009  13.762  1.00  0.00     0.038 C 
HETATM    3  C4  UNL     1      33.762  -0.265  13.069  1.00  0.00     0.022 C 
HETATM    4  C5  UNL     1      32.232  -0.217  13.184  1.00  0.00     0.129 C 
HETATM    5  N1  UNL     1      31.988   0.476  14.429  1.00  0.00    -0.313 N 
HETATM    6  C6  UNL     1      30.690   0.455  15.078  1.00  0.00     0.364 C 
HETATM    7  O3  UNL     1      30.456   1.030  16.162  1.00  0.00    -0.238 OA
ENDROOT
BRANCH   1   8
HETATM    8  C1  UNL     1      32.982   2.564  15.179  1.00  0.00     0.197 C 
HETATM    9  O1  UNL     1      33.769   3.044  16.053  1.00  0.00    -0.646 OA
HETATM   10  O2  UNL     1      32.064   3.399  14.622  1.00  0.00    -0.646 OA
ENDBRANCH   1   8
BRANCH   6  11
HETATM   11  O4  UNL     1      29.648  -0.225  14.489  1.00  0.00    -0.294 OA
BRANCH  11  12
HETATM   12  C7  UNL     1      28.575  -0.714  15.261  1.00  0.00     0.181 C 
HETATM   13  C8  UNL     1      27.422  -1.078  14.331  1.00  0.00     0.202 C 
HETATM   14  O5  UNL     1      28.042  -2.322  14.163  1.00  0.00    -0.386 OA
HETATM   15  C9  UNL     1      28.524  -2.198  15.452  1.00  0.00     0.202 C 
ENDBRANCH  11  12
ENDBRANCH   6  11
TORSDOF 3
ENDMDL
MODEL 2
REMARK VINA RESULT: -6.054324006      4.830      8.358
REMARK  3 active torsions:
REMARK  status: ('A' for Active; 'I' for Inactive)
REMARK    1  A    between atoms: C1_2  and  C2_4 
REMARK       I    between atoms: N1_8  and  C6_9 
REMARK    2  A    between atoms: C6_9  and  O4_11 
REMARK    3  A    between atoms: O4_11  and  C7_12 
ROOT
HETATM    1  C2  UNL     1      25.665  -6.260  13.561  1.00  0.00     0.190 C 
HETATM    2  C3  UNL     1      26.349  -7.050  12.495  1.00  0.00     0.038 C 
HETATM    3  C4  UNL     1      27.119  -6.002  11.739  1.00  0.00     0.022 C 
HETATM    4  C5  UNL     1      27.548  -5.051  12.864  1.00  0.00     0.129 C 
HETATM    5  N1  UNL     1      26.479  -5.137  13.833  1.00  0.00    -0.313 N 
HETATM    6  C6  UNL     1      26.327  -4.161  14.896  1.00  0.00     0.364 C 
HETATM    7  O3  UNL     1      25.402  -4.201  15.736  1.00  0.00    -0.238 OA
ENDROOT
BRANCH   1   8
HETATM    8  C1  UNL     1      25.462  -7.150  14.737  1.00  0.00     0.197 C 
HETATM    9  O1  UNL     1      26.496  -7.760  15.151  1.00  0.00    -0.646 OA
HETATM   10  O2  UNL     1      24.291  -7.365  15.395  1.00  0.00    -0.646 OA
ENDBRANCH   1   8
BRANCH   6  11
HETATM   11  O4  UNL     1      27.232  -3.130  15.007  1.00  0.00    -0.294 OA
BRANCH  11  12
HETATM   12  C7  UNL     1      26.800  -1.791  15.072  1.00  0.00     0.181 C 
HETATM   13  C8  UNL     1      28.001  -0.897  15.366  1.00  0.00     0.202 C 
HETATM   14  O5  UNL     1      28.244  -0.890  13.987  1.00  0.00    -0.386 OA
HETATM   15  C9  UNL     1      26.881  -1.010  13.798  1.00  0.00     0.202 C 
ENDBRANCH  11  12
ENDBRANCH   6  11
TORSDOF 3
ENDMDL
MODEL 3
REMARK VINA RESULT: -5.974796459      6.506      8.274
REMARK  3 active torsions:
REMARK  status: ('A' for Active; 'I' for Inactive)
REMARK    1  A    between atoms: C1_2  and  C2_4 
REMARK       I    between atoms: N1_8  and  C6_9 
REMARK    2  A    between atoms: C6_9  and  O4_11 
REMARK    3  A    between atoms: O4_11  and  C7_12 
ROOT
HETATM    1  C2  UNL     1      26.833  -4.002  14.587  1.00  0.00     0.190 C 
HETATM    2  C3  UNL     1      27.146  -2.785  13.780  1.00  0.00     0.038 C 
HETATM    3  C4  UNL     1      28.322  -3.225  12.949  1.00  0.00     0.022 C 
HETATM    4  C5  UNL     1      27.974  -4.691  12.658  1.00  0.00     0.129 C 
HETATM    5  N1  UNL     1      27.236  -5.122  13.825  1.00  0.00    -0.313 N 
HETATM    6  C6  UNL     1      26.997  -6.525  14.106  1.00  0.00     0.364 C 
HETATM    7  O3  UNL     1      26.378  -6.926  15.116  1.00  0.00    -0.238 OA
ENDROOT
BRANCH   1   8
HETATM    8  C1  UNL     1      25.378  -3.984  14.902  1.00  0.00     0.197 C 
HETATM    9  O1  UNL     1      25.073  -3.584  16.068  1.00  0.00    -0.646 OA
HETATM   10  O2  UNL     1      24.366  -4.351  14.070  1.00  0.00    -0.646 OA
ENDBRANCH   1   8
BRANCH   6  11
HETATM   11  O4  UNL     1      27.464  -7.482  13.235  1.00  0.00    -0.294 OA
BRANCH  11  12
HETATM   12  C7  UNL     1      26.573  -8.295  12.506  1.00  0.00     0.181 C 
HETATM   13  C8  UNL     1      25.682  -7.404  11.645  1.00  0.00     0.202 C 
HETATM   14  O5  UNL     1      26.702  -7.432  10.685  1.00  0.00    -0.386 OA
HETATM   15  C9  UNL     1      27.021  -8.699  11.136  1.00  0.00     0.202 C 
ENDBRANCH  11  12
ENDBRANCH   6  11
TORSDOF 3
ENDMDL
MODEL 4
REMARK VINA RESULT: -5.893101211      0.850      1.025
REMARK  3 active torsions:
REMARK  status: ('A' for Active; 'I' for Inactive)
REMARK    1  A    between atoms: C1_2  and  C2_4 
REMARK       I    between atoms: N1_8  and  C6_9 
REMARK    2  A    between atoms: C6_9  and  O4_11 
REMARK    3  A    between atoms: O4_11  and  C7_12 
ROOT
HETATM    1  C2  UNL     1      33.034   1.177  14.911  1.00  0.00     0.190 C 
HETATM    2  C3  UNL     1      34.055   1.242  13.824  1.00  0.00     0.038 C 
HETATM    3  C4  UNL     1      33.892  -0.082  13.127  1.00  0.00     0.022 C 
HETATM    4  C5  UNL     1      32.375  -0.301  13.215  1.00  0.00     0.129 C 
HETATM    5  N1  UNL     1      31.992   0.338  14.454  1.00  0.00    -0.313 N 
HETATM    6  C6  UNL     1      30.707   0.091  15.079  1.00  0.00     0.364 C 
HETATM    7  O3  UNL     1      30.357   0.617  16.158  1.00  0.00    -0.238 OA
ENDROOT
BRANCH   1   8
HETATM    8  C1  UNL     1      32.595   2.567  15.215  1.00  0.00     0.197 C 
HETATM    9  O1  UNL     1      33.202   3.138  16.173  1.00  0.00    -0.646 OA
HETATM   10  O2  UNL     1      31.620   3.265  14.572  1.00  0.00    -0.646 OA
ENDBRANCH   1   8
BRANCH   6  11
HETATM   11  O4  UNL     1      29.809  -0.759  14.474  1.00  0.00    -0.294 OA
BRANCH  11  12
HETATM   12  C7  UNL     1      28.742  -0.257  13.702  1.00  0.00     0.181 C 
HETATM   13  C8  UNL     1      28.631  -1.076  12.420  1.00  0.00     0.202 C 
HETATM   14  O5  UNL     1      27.851  -1.982  13.150  1.00  0.00    -0.386 OA
HETATM   15  C9  UNL     1      27.414  -0.914  13.909  1.00  0.00     0.202 C 
ENDBRANCH  11  12
ENDBRANCH   6  11
TORSDOF 3
ENDMDL
MODEL 5
REMARK VINA RESULT: -5.891324006      3.826      7.416
REMARK  3 active torsions:
REMARK  status: ('A' for Active; 'I' for Inactive)
REMARK    1  A    between atoms: C1_2  and  C2_4 
REMARK       I    between atoms: N1_8  and  C6_9 
REMARK    2  A    between atoms: C6_9  and  O4_11 
REMARK    3  A    between atoms: O4_11  and  C7_12 
ROOT
HETATM    1  C2  UNL     1      26.742  -5.617  13.634  1.00  0.00     0.190 C 
HETATM    2  C3  UNL     1      27.339  -6.610  12.693  1.00  0.00     0.038 C 
HETATM    3  C4  UNL     1      28.101  -5.744  11.726  1.00  0.00     0.022 C 
HETATM    4  C5  UNL     1      28.624  -4.631  12.643  1.00  0.00     0.129 C 
HETATM    5  N1  UNL     1      27.608  -4.499  13.663  1.00  0.00    -0.313 N 
HETATM    6  C6  UNL     1      27.547  -3.347  14.542  1.00  0.00     0.364 C 
HETATM    7  O3  UNL     1      26.670  -3.200  15.420  1.00  0.00    -0.238 OA
ENDROOT
BRANCH   1   8
HETATM    8  C1  UNL     1      26.574  -6.278  14.957  1.00  0.00     0.197 C 
HETATM    9  O1  UNL     1      27.508  -7.067  15.301  1.00  0.00    -0.646 OA
HETATM   10  O2  UNL     1      25.530  -6.116  15.815  1.00  0.00    -0.646 OA
ENDBRANCH   1   8
BRANCH   6  11
HETATM   11  O4  UNL     1      28.492  -2.353  14.425  1.00  0.00    -0.294 OA
BRANCH  11  12
HETATM   12  C7  UNL     1      29.191  -1.881  15.554  1.00  0.00     0.181 C 
HETATM   13  C8  UNL     1      30.387  -2.794  15.813  1.00  0.00     0.202 C 
HETATM   14  O5  UNL     1      31.091  -2.015  14.886  1.00  0.00    -0.386 OA
HETATM   15  C9  UNL     1      30.322  -0.939  15.282  1.00  0.00     0.202 C 
ENDBRANCH  11  12
ENDBRANCH   6  11
TORSDOF 3
ENDMDL
