MODEL 1
REMARK VINA RESULT: -7.864890728      0.000      0.000
REMARK  5 active torsions:
REMARK  status: ('A' for Active; 'I' for Inactive)
REMARK    1  A    between atoms: C2_2  and  N1_3 
REMARK    2  A    between atoms: C3_4  and  C4_5 
REMARK    3  A    between atoms: C4_5  and  C5_6 
REMARK    4  A    between atoms: C11_12  and  N2_13 
REMARK       I    between atoms: N2_13  and  C12_15 
REMARK    5  A    between atoms: C12_15  and  C13_17 
ROOT
HETATM    1  N1  UNL     1      18.967   5.256   8.450  1.00  0.00    -0.267 N 
HETATM    2  C3  UNL     1      20.296   5.531   7.976  1.00  0.00     0.130 C 
HETATM    3  C11 UNL     1      20.399   6.074   6.623  1.00  0.00     0.147 C 
HETATM    4  C18 UNL     1      19.225   6.689   5.968  1.00  0.00     0.101 C 
HETATM    5  N3  UNL     1      18.065   7.035   6.679  1.00  0.00    -0.280 N 
ATOM      6  H3  UNL     1      17.261   7.465   6.222  1.00  0.00     0.179 HD
HETATM    7  S1  UNL     1      18.076   6.694   8.350  1.00  0.00     0.324 S 
HETATM    8  O3  UNL     1      18.856   7.782   9.030  1.00  0.00    -0.182 OA
HETATM    9  O4  UNL     1      16.719   6.668   8.917  1.00  0.00    -0.182 OA
ENDROOT
BRANCH   3  10
HETATM   10  N2  UNL     1      21.484   7.077   6.573  1.00  0.00    -0.348 N 
HETATM   11  C12 UNL     1      22.759   6.811   6.029  1.00  0.00     0.247 C 
HETATM   12  O1  UNL     1      22.944   5.640   5.567  1.00  0.00    -0.271 OA
ATOM     13  H2  UNL     1      21.303   8.007   6.951  1.00  0.00     0.163 HD
BRANCH  11  14
HETATM   14  C13 UNL     1      23.878   7.742   5.945  1.00  0.00     0.213 C 
HETATM   15  C14 UNL     1      24.046   8.522   7.227  1.00  0.00     0.042 C 
HETATM   16  C15 UNL     1      25.213   8.031   8.047  1.00  0.00     0.005 C 
HETATM   17  C16 UNL     1      26.475   7.870   7.273  1.00  0.00     0.026 C 
HETATM   18  C17 UNL     1      26.178   7.762   5.819  1.00  0.00     0.168 C 
HETATM   19  O2  UNL     1      25.018   7.056   5.583  1.00  0.00    -0.376 OA
ENDBRANCH  11  14
ENDBRANCH   3  10
BRANCH   2  20
HETATM   20  C4  UNL     1      21.101   4.315   8.294  1.00  0.00     0.033 C 
BRANCH  20  21
HETATM   21  C5  UNL     1      22.197   4.404   9.284  1.00  0.00    -0.013 C 
HETATM   22  C6  UNL     1      21.540   3.832  10.585  1.00  0.00     0.005 C 
HETATM   23  C7  UNL     1      22.609   3.632  11.623  1.00  0.00     0.000 C 
HETATM   24  C8  UNL     1      23.217   4.954  11.960  1.00  0.00     0.000 C 
HETATM   25  C9  UNL     1      23.641   5.725  10.732  1.00  0.00     0.000 C 
HETATM   26  C10 UNL     1      22.533   5.823   9.715  1.00  0.00     0.005 C 
ENDBRANCH  20  21
ENDBRANCH   2  20
BRANCH   1  27
HETATM   27  C2  UNL     1      18.340   4.062   8.162  1.00  0.00     0.074 C 
HETATM   28  C1  UNL     1      17.818   3.191   9.244  1.00  0.00     0.055 C 
ENDBRANCH   1  27
TORSDOF 5
ENDMDL
MODEL 2
REMARK VINA RESULT: -7.324301062      7.159      9.559
REMARK  5 active torsions:
REMARK  status: ('A' for Active; 'I' for Inactive)
REMARK    1  A    between atoms: C2_2  and  N1_3 
REMARK    2  A    between atoms: C3_4  and  C4_5 
REMARK    3  A    between atoms: C4_5  and  C5_6 
REMARK    4  A    between atoms: C11_12  and  N2_13 
REMARK       I    between atoms: N2_13  and  C12_15 
REMARK    5  A    between atoms: C12_15  and  C13_17 
ROOT
HETATM    1  N1  UNL     1      24.061   7.609  18.577  1.00  0.00    -0.267 N 
HETATM    2  C3  UNL     1      24.100   7.378  17.158  1.00  0.00     0.130 C 
HETATM    3  C11 UNL     1      24.605   6.076  16.729  1.00  0.00     0.147 C 
HETATM    4  C18 UNL     1      24.663   4.943  17.676  1.00  0.00     0.101 C 
HETATM    5  N3  UNL     1      23.997   4.963  18.912  1.00  0.00    -0.280 N 
ATOM      6  H3  UNL     1      24.036   4.174  19.558  1.00  0.00     0.179 HD
HETATM    7  S1  UNL     1      23.122   6.382  19.273  1.00  0.00     0.324 S 
HETATM    8  O3  UNL     1      21.816   6.309  18.534  1.00  0.00    -0.182 OA
HETATM    9  O4  UNL     1      22.839   6.506  20.711  1.00  0.00    -0.182 OA
ENDROOT
BRANCH   3  10
HETATM   10  N2  UNL     1      23.836   5.608  15.557  1.00  0.00    -0.348 N 
HETATM   11  C12 UNL     1      24.391   5.489  14.265  1.00  0.00     0.247 C 
HETATM   12  O1  UNL     1      25.617   5.807  14.144  1.00  0.00    -0.271 OA
ATOM     13  H2  UNL     1      22.856   5.359  15.688  1.00  0.00     0.163 HD
BRANCH  11  14
HETATM   14  C13 UNL     1      23.702   5.039  13.062  1.00  0.00     0.213 C 
HETATM   15  C14 UNL     1      22.229   5.369  13.113  1.00  0.00     0.042 C 
HETATM   16  C15 UNL     1      21.873   6.539  12.230  1.00  0.00     0.005 C 
HETATM   17  C16 UNL     1      22.420   6.446  10.847  1.00  0.00     0.026 C 
HETATM   18  C17 UNL     1      23.562   5.493  10.807  1.00  0.00     0.168 C 
HETATM   19  O2  UNL     1      24.329   5.563  11.951  1.00  0.00    -0.376 OA
ENDBRANCH  11  14
ENDBRANCH   3  10
BRANCH   2  20
HETATM   20  C4  UNL     1      24.734   8.593  16.567  1.00  0.00     0.033 C 
BRANCH  20  21
HETATM   21  C5  UNL     1      23.969   9.421  15.606  1.00  0.00    -0.013 C 
HETATM   22  C6  UNL     1      22.482   9.090  15.966  1.00  0.00     0.005 C 
HETATM   23  C7  UNL     1      21.581  10.043  15.233  1.00  0.00     0.000 C 
HETATM   24  C8  UNL     1      21.750   9.845  13.763  1.00  0.00     0.000 C 
HETATM   25  C9  UNL     1      23.201   9.869  13.340  1.00  0.00     0.000 C 
HETATM   26  C10 UNL     1      24.046   8.934  14.167  1.00  0.00     0.005 C 
ENDBRANCH  20  21
ENDBRANCH   2  20
BRANCH   1  27
HETATM   27  C2  UNL     1      25.171   8.064  19.255  1.00  0.00     0.074 C 
HETATM   28  C1  UNL     1      26.184   7.118  19.787  1.00  0.00     0.055 C 
ENDBRANCH   1  27
TORSDOF 5
ENDMDL
MODEL 3
REMARK VINA RESULT: -7.002218607      1.845      5.957
REMARK  5 active torsions:
REMARK  status: ('A' for Active; 'I' for Inactive)
REMARK    1  A    between atoms: C2_2  and  N1_3 
REMARK    2  A    between atoms: C3_4  and  C4_5 
REMARK    3  A    between atoms: C4_5  and  C5_6 
REMARK    4  A    between atoms: C11_12  and  N2_13 
REMARK       I    between atoms: N2_13  and  C12_15 
REMARK    5  A    between atoms: C12_15  and  C13_17 
ROOT
HETATM    1  N1  UNL     1      23.299   7.116   7.314  1.00  0.00    -0.267 N 
HETATM    2  C3  UNL     1      22.319   6.632   8.248  1.00  0.00     0.130 C 
HETATM    3  C11 UNL     1      20.962   7.146   8.085  1.00  0.00     0.147 C 
HETATM    4  C18 UNL     1      20.542   7.770   6.812  1.00  0.00     0.101 C 
HETATM    5  N3  UNL     1      21.297   7.654   5.634  1.00  0.00    -0.280 N 
ATOM      6  H3  UNL     1      20.998   8.082   4.758  1.00  0.00     0.179 HD
HETATM    7  S1  UNL     1      22.744   6.758   5.754  1.00  0.00     0.324 S 
HETATM    8  O3  UNL     1      22.382   5.302   5.703  1.00  0.00    -0.182 OA
HETATM    9  O4  UNL     1      23.666   7.049   4.644  1.00  0.00    -0.182 OA
ENDROOT
BRANCH   3  10
HETATM   10  N2  UNL     1      19.987   6.072   8.370  1.00  0.00    -0.348 N 
HETATM   11  C12 UNL     1      19.126   6.085   9.487  1.00  0.00     0.247 C 
HETATM   12  O1  UNL     1      19.221   7.088  10.264  1.00  0.00    -0.271 OA
ATOM     13  H2  UNL     1      19.934   5.282   7.727  1.00  0.00     0.163 HD
BRANCH  11  14
HETATM   14  C13 UNL     1      18.143   5.067   9.838  1.00  0.00     0.213 C 
HETATM   15  C14 UNL     1      16.864   5.239   9.052  1.00  0.00     0.042 C 
HETATM   16  C15 UNL     1      16.730   4.221   7.947  1.00  0.00     0.005 C 
HETATM   17  C16 UNL     1      16.986   2.818   8.378  1.00  0.00     0.026 C 
HETATM   18  C17 UNL     1      17.770   2.801   9.642  1.00  0.00     0.168 C 
HETATM   19  O2  UNL     1      18.702   3.816   9.681  1.00  0.00    -0.376 OA
ENDBRANCH  11  14
ENDBRANCH   3  10
BRANCH   2  20
HETATM   20  C4  UNL     1      22.946   6.758   9.596  1.00  0.00     0.033 C 
BRANCH  20  21
HETATM   21  C5  UNL     1      22.613   5.773  10.651  1.00  0.00    -0.013 C 
HETATM   22  C6  UNL     1      23.970   5.605  11.413  1.00  0.00     0.005 C 
HETATM   23  C7  UNL     1      23.727   4.816  12.669  1.00  0.00     0.000 C 
HETATM   24  C8  UNL     1      23.236   3.453  12.304  1.00  0.00     0.000 C 
HETATM   25  C9  UNL     1      22.080   3.498  11.332  1.00  0.00     0.000 C 
HETATM   26  C10 UNL     1      22.380   4.362  10.134  1.00  0.00     0.005 C 
ENDBRANCH  20  21
ENDBRANCH   2  20
BRANCH   1  27
HETATM   27  C2  UNL     1      23.961   8.306   7.529  1.00  0.00     0.074 C 
HETATM   28  C1  UNL     1      25.443   8.355   7.600  1.00  0.00     0.055 C 
ENDBRANCH   1  27
TORSDOF 5
ENDMDL
MODEL 4
REMARK VINA RESULT: -6.991142173      1.688      2.137
REMARK  5 active torsions:
REMARK  status: ('A' for Active; 'I' for Inactive)
REMARK    1  A    between atoms: C2_2  and  N1_3 
REMARK    2  A    between atoms: C3_4  and  C4_5 
REMARK    3  A    between atoms: C4_5  and  C5_6 
REMARK    4  A    between atoms: C11_12  and  N2_13 
REMARK       I    between atoms: N2_13  and  C12_15 
REMARK    5  A    between atoms: C12_15  and  C13_17 
ROOT
HETATM    1  N1  UNL     1      18.032   3.834   9.754  1.00  0.00    -0.267 N 
HETATM    2  C3  UNL     1      19.335   4.396   9.522  1.00  0.00     0.130 C 
HETATM    3  C11 UNL     1      19.579   4.929   8.184  1.00  0.00     0.147 C 
HETATM    4  C18 UNL     1      18.451   5.252   7.285  1.00  0.00     0.101 C 
HETATM    5  N3  UNL     1      17.126   5.336   7.744  1.00  0.00    -0.280 N 
ATOM      6  H3  UNL     1      16.353   5.566   7.119  1.00  0.00     0.179 HD
HETATM    7  S1  UNL     1      16.884   5.030   9.404  1.00  0.00     0.324 S 
HETATM    8  O3  UNL     1      17.257   6.277  10.154  1.00  0.00    -0.182 OA
HETATM    9  O4  UNL     1      15.482   4.705   9.707  1.00  0.00    -0.182 OA
ENDROOT
BRANCH   3  10
HETATM   10  N2  UNL     1      20.405   6.151   8.280  1.00  0.00    -0.348 N 
HETATM   11  C12 UNL     1      21.732   6.227   7.807  1.00  0.00     0.247 C 
HETATM   12  O1  UNL     1      22.206   5.172   7.276  1.00  0.00    -0.271 OA
ATOM     13  H2  UNL     1      19.996   6.981   8.710  1.00  0.00     0.163 HD
BRANCH  11  14
HETATM   14  C13 UNL     1      22.610   7.390   7.866  1.00  0.00     0.213 C 
HETATM   15  C14 UNL     1      22.903   7.789   9.293  1.00  0.00     0.042 C 
HETATM   16  C15 UNL     1      24.291   7.390   9.726  1.00  0.00     0.005 C 
HETATM   17  C16 UNL     1      25.362   7.774   8.764  1.00  0.00     0.026 C 
HETATM   18  C17 UNL     1      24.782   8.014   7.415  1.00  0.00     0.168 C 
HETATM   19  O2  UNL     1      23.753   7.140   7.136  1.00  0.00    -0.376 OA
ENDBRANCH  11  14
ENDBRANCH   3  10
BRANCH   2  20
HETATM   20  C4  UNL     1      20.309   3.400  10.056  1.00  0.00     0.033 C 
BRANCH  20  21
HETATM   21  C5  UNL     1      21.189   3.773  11.186  1.00  0.00    -0.013 C 
HETATM   22  C6  UNL     1      20.546   5.102  11.706  1.00  0.00     0.005 C 
HETATM   23  C7  UNL     1      21.190   5.476  13.012  1.00  0.00     0.000 C 
HETATM   24  C8  UNL     1      22.644   5.730  12.785  1.00  0.00     0.000 C 
HETATM   25  C9  UNL     1      23.315   4.607  12.029  1.00  0.00     0.000 C 
HETATM   26  C10 UNL     1      22.571   4.250  10.768  1.00  0.00     0.005 C 
ENDBRANCH  20  21
ENDBRANCH   2  20
BRANCH   1  27
HETATM   27  C2  UNL     1      17.752   2.525   9.423  1.00  0.00     0.074 C 
HETATM   28  C1  UNL     1      16.891   1.684  10.290  1.00  0.00     0.055 C 
ENDBRANCH   1  27
TORSDOF 5
ENDMDL
MODEL 5
REMARK VINA RESULT: -6.507425317      1.354      1.837
REMARK  5 active torsions:
REMARK  status: ('A' for Active; 'I' for Inactive)
REMARK    1  A    between atoms: C2_2  and  N1_3 
REMARK    2  A    between atoms: C3_4  and  C4_5 
REMARK    3  A    between atoms: C4_5  and  C5_6 
REMARK    4  A    between atoms: C11_12  and  N2_13 
REMARK       I    between atoms: N2_13  and  C12_15 
REMARK    5  A    between atoms: C12_15  and  C13_17 
ROOT
HETATM    1  N1  UNL     1      19.904   4.819  10.172  1.00  0.00    -0.267 N 
HETATM    2  C3  UNL     1      21.049   5.288   9.440  1.00  0.00     0.130 C 
HETATM    3  C11 UNL     1      20.913   5.333   7.986  1.00  0.00     0.147 C 
HETATM    4  C18 UNL     1      19.576   5.311   7.355  1.00  0.00     0.101 C 
HETATM    5  N3  UNL     1      18.397   5.527   8.088  1.00  0.00    -0.280 N 
ATOM      6  H3  UNL     1      17.478   5.518   7.645  1.00  0.00     0.179 HD
HETATM    7  S1  UNL     1      18.590   5.806   9.760  1.00  0.00     0.324 S 
HETATM    8  O3  UNL     1      19.001   7.239   9.937  1.00  0.00    -0.182 OA
HETATM    9  O4  UNL     1      17.341   5.582  10.504  1.00  0.00    -0.182 OA
ENDROOT
BRANCH   3  10
HETATM   10  N2  UNL     1      21.608   6.526   7.460  1.00  0.00    -0.348 N 
HETATM   11  C12 UNL     1      22.526   6.477   6.389  1.00  0.00     0.247 C 
HETATM   12  O1  UNL     1      22.736   5.332   5.876  1.00  0.00    -0.271 OA
ATOM     13  H2  UNL     1      21.416   7.430   7.892  1.00  0.00     0.163 HD
BRANCH  11  14
HETATM   14  C13 UNL     1      23.251   7.604   5.815  1.00  0.00     0.213 C 
HETATM   15  C14 UNL     1      24.338   8.092   6.744  1.00  0.00     0.042 C 
HETATM   16  C15 UNL     1      25.712   7.668   6.290  1.00  0.00     0.005 C 
HETATM   17  C16 UNL     1      25.988   7.938   4.850  1.00  0.00     0.026 C 
HETATM   18  C17 UNL     1      24.711   8.105   4.104  1.00  0.00     0.168 C 
HETATM   19  O2  UNL     1      23.730   7.256   4.570  1.00  0.00    -0.376 OA
ENDBRANCH  11  14
ENDBRANCH   3  10
BRANCH   2  20
HETATM   20  C4  UNL     1      22.219   4.549  10.000  1.00  0.00     0.033 C 
BRANCH  20  21
HETATM   21  C5  UNL     1      23.143   5.240  10.928  1.00  0.00    -0.013 C 
HETATM   22  C6  UNL     1      23.266   4.228  12.116  1.00  0.00     0.005 C 
HETATM   23  C7  UNL     1      24.367   4.684  13.032  1.00  0.00     0.000 C 
HETATM   24  C8  UNL     1      24.007   6.017  13.602  1.00  0.00     0.000 C 
HETATM   25  C9  UNL     1      23.595   7.008  12.539  1.00  0.00     0.000 C 
HETATM   26  C10 UNL     1      22.536   6.448  11.624  1.00  0.00     0.005 C 
ENDBRANCH  20  21
ENDBRANCH   2  20
BRANCH   1  27
HETATM   27  C2  UNL     1      19.689   3.472  10.372  1.00  0.00     0.074 C 
HETATM   28  C1  UNL     1      18.576   2.765   9.691  1.00  0.00     0.055 C 
ENDBRANCH   1  27
TORSDOF 5
ENDMDL
