MODEL 1
REMARK VINA RESULT: -8.244408641      0.000      0.000
REMARK  6 active torsions:
REMARK  status: ('A' for Active; 'I' for Inactive)
REMARK       I    between atoms: C1_2  and  N1_3 
REMARK    1  A    between atoms: C1_2  and  C16_25 
REMARK    2  A    between atoms: N1_3  and  C2_5 
REMARK    3  A    between atoms: N2_8  and  C5_9 
REMARK    4  A    between atoms: C5_9  and  C6_10 
REMARK    5  A    between atoms: C6_10  and  N3_11 
REMARK    6  A    between atoms: N3_11  and  C7_13 
ROOT
HETATM    1  C2  UNL     1      23.862   5.963  14.288  1.00  0.00     0.087 C 
HETATM    2  C3  UNL     1      24.443   4.957  13.296  1.00  0.00     0.055 C 
HETATM    3  C4  UNL     1      23.701   5.121  11.984  1.00  0.00     0.275 C 
HETATM    4  N2  UNL     1      22.285   4.933  12.211  1.00  0.00     0.093 N 
HETATM    5  C14 UNL     1      21.712   5.904  13.076  1.00  0.00     0.275 C 
HETATM    6  C15 UNL     1      22.381   5.798  14.429  1.00  0.00     0.055 C 
ENDROOT
BRANCH   4   7
HETATM    7  C5  UNL     1      21.562   4.682  10.986  1.00  0.00     0.317 C 
BRANCH   7   8
HETATM    8  C6  UNL     1      21.163   5.941  10.281  1.00  0.00     0.093 C 
BRANCH   8   9
HETATM    9  N3  UNL     1      21.476   6.096   8.948  1.00  0.00    -0.348 N 
ATOM     10  H3  UNL     1      20.772   5.653   8.358  1.00  0.00     0.167 HD
BRANCH   9  11
HETATM   11  C7  UNL     1      22.381   6.626   8.244  1.00  0.00     0.148 A 
HETATM   12  N4  UNL     1      23.541   7.208   8.522  1.00  0.00    -0.339 N 
HETATM   13  C8  UNL     1      24.283   7.680   7.546  1.00  0.00     0.024 A 
ATOM     14  H4  UNL     1      23.855   7.288   9.490  1.00  0.00     0.168 HD
HETATM   15  C9  UNL     1      23.811   7.544   6.268  1.00  0.00     0.009 A 
HETATM   16  C13 UNL     1      25.643   8.385   7.602  1.00  0.00     0.058 C 
HETATM   17  S1  UNL     1      22.330   6.750   6.510  1.00  0.00    -0.057 SA
HETATM   18  C10 UNL     1      24.600   8.062   5.083  1.00  0.00     0.048 C 
HETATM   19  C11 UNL     1      26.057   7.782   5.207  1.00  0.00     0.006 C 
HETATM   20  C12 UNL     1      26.523   7.630   6.627  1.00  0.00     0.006 C 
ENDBRANCH   9  11
ENDBRANCH   8   9
ENDBRANCH   7   8
ENDBRANCH   4   7
BRANCH   1  21
HETATM   21  N1  UNL     1      24.556   5.704  15.546  1.00  0.00    -0.356 N 
HETATM   22  C1  UNL     1      24.824   6.751  16.462  1.00  0.00     0.222 C 
HETATM   23  O1  UNL     1      24.479   7.945  16.234  1.00  0.00    -0.273 OA
ATOM     24  H1  UNL     1      24.852   4.753  15.769  1.00  0.00     0.162 HD
BRANCH  22  25
HETATM   25  C16 UNL     1      25.527   6.462  17.722  1.00  0.00     0.078 C 
HETATM   26  C17 UNL     1      25.022   5.207  18.381  1.00  0.00     0.014 C 
HETATM   27  C18 UNL     1      25.039   5.404  19.888  1.00  0.00     0.001 C 
HETATM   28  C19 UNL     1      26.402   6.033  20.205  1.00  0.00     0.000 C 
HETATM   29  C20 UNL     1      26.286   7.514  19.855  1.00  0.00     0.001 C 
HETATM   30  C21 UNL     1      25.368   7.655  18.645  1.00  0.00     0.014 C 
ENDBRANCH  22  25
ENDBRANCH   1  21
TORSDOF 6
ENDMDL
MODEL 2
REMARK VINA RESULT: -8.079281639      1.777      2.376
REMARK  6 active torsions:
REMARK  status: ('A' for Active; 'I' for Inactive)
REMARK       I    between atoms: C1_2  and  N1_3 
REMARK    1  A    between atoms: C1_2  and  C16_25 
REMARK    2  A    between atoms: N1_3  and  C2_5 
REMARK    3  A    between atoms: N2_8  and  C5_9 
REMARK    4  A    between atoms: C5_9  and  C6_10 
REMARK    5  A    between atoms: C6_10  and  N3_11 
REMARK    6  A    between atoms: N3_11  and  C7_13 
ROOT
HETATM    1  C2  UNL     1      23.031   4.989  12.514  1.00  0.00     0.087 C 
HETATM    2  C3  UNL     1      21.540   4.658  12.544  1.00  0.00     0.055 C 
HETATM    3  C4  UNL     1      21.192   3.972  11.238  1.00  0.00     0.275 C 
HETATM    4  N2  UNL     1      21.555   4.835  10.135  1.00  0.00     0.093 N 
HETATM    5  C14 UNL     1      22.949   5.095  10.049  1.00  0.00     0.275 C 
HETATM    6  C15 UNL     1      23.385   5.806  11.312  1.00  0.00     0.055 C 
ENDROOT
BRANCH   4   7
HETATM    7  C5  UNL     1      20.914   4.446   8.900  1.00  0.00     0.317 C 
BRANCH   7   8
HETATM    8  C6  UNL     1      20.076   5.539   8.314  1.00  0.00     0.093 C 
BRANCH   8   9
HETATM    9  N3  UNL     1      20.591   6.312   7.296  1.00  0.00    -0.348 N 
ATOM     10  H3  UNL     1      19.858   6.579   6.640  1.00  0.00     0.167 HD
BRANCH   9  11
HETATM   11  C7  UNL     1      21.705   6.787   6.939  1.00  0.00     0.148 A 
HETATM   12  N4  UNL     1      22.683   7.418   7.577  1.00  0.00    -0.339 N 
HETATM   13  C8  UNL     1      23.750   7.805   6.914  1.00  0.00     0.024 A 
ATOM     14  H4  UNL     1      22.607   7.602   8.578  1.00  0.00     0.168 HD
HETATM   15  C9  UNL     1      23.797   7.531   5.573  1.00  0.00     0.009 A 
HETATM   16  C13 UNL     1      24.999   8.539   7.411  1.00  0.00     0.058 C 
HETATM   17  S1  UNL     1      22.320   6.735   5.314  1.00  0.00    -0.057 SA
HETATM   18  C10 UNL     1      24.986   7.942   4.731  1.00  0.00     0.048 C 
HETATM   19  C11 UNL     1      26.281   7.707   5.427  1.00  0.00     0.006 C 
HETATM   20  C12 UNL     1      26.170   7.708   6.926  1.00  0.00     0.006 C 
ENDBRANCH   9  11
ENDBRANCH   8   9
ENDBRANCH   7   8
ENDBRANCH   4   7
BRANCH   1  21
HETATM   21  N1  UNL     1      23.286   5.715  13.754  1.00  0.00    -0.356 N 
HETATM   22  C1  UNL     1      24.584   5.755  14.324  1.00  0.00     0.222 C 
HETATM   23  O1  UNL     1      25.568   5.170  13.789  1.00  0.00    -0.273 OA
ATOM     24  H1  UNL     1      22.519   6.201  14.219  1.00  0.00     0.162 HD
BRANCH  22  25
HETATM   25  C16 UNL     1      24.814   6.493  15.576  1.00  0.00     0.078 C 
HETATM   26  C17 UNL     1      24.092   5.875  16.743  1.00  0.00     0.014 C 
HETATM   27  C18 UNL     1      23.603   6.984  17.660  1.00  0.00     0.001 C 
HETATM   28  C19 UNL     1      24.791   7.942  17.815  1.00  0.00     0.000 C 
HETATM   29  C20 UNL     1      24.828   8.793  16.548  1.00  0.00     0.001 C 
HETATM   30  C21 UNL     1      24.376   7.930  15.373  1.00  0.00     0.014 C 
ENDBRANCH  22  25
ENDBRANCH   1  21
TORSDOF 6
ENDMDL
MODEL 3
REMARK VINA RESULT: -7.975244332      2.970     10.182
REMARK  6 active torsions:
REMARK  status: ('A' for Active; 'I' for Inactive)
REMARK       I    between atoms: C1_2  and  N1_3 
REMARK    1  A    between atoms: C1_2  and  C16_25 
REMARK    2  A    between atoms: N1_3  and  C2_5 
REMARK    3  A    between atoms: N2_8  and  C5_9 
REMARK    4  A    between atoms: C5_9  and  C6_10 
REMARK    5  A    between atoms: C6_10  and  N3_11 
REMARK    6  A    between atoms: N3_11  and  C7_13 
ROOT
HETATM    1  C2  UNL     1      23.985   6.738  10.413  1.00  0.00     0.087 C 
HETATM    2  C3  UNL     1      23.265   7.855  11.165  1.00  0.00     0.055 C 
HETATM    3  C4  UNL     1      23.270   7.498  12.638  1.00  0.00     0.275 C 
HETATM    4  N2  UNL     1      22.645   6.206  12.817  1.00  0.00     0.093 N 
HETATM    5  C14 UNL     1      23.342   5.143  12.184  1.00  0.00     0.275 C 
HETATM    6  C15 UNL     1      23.368   5.404  10.694  1.00  0.00     0.055 C 
ENDROOT
BRANCH   4   7
HETATM    7  C5  UNL     1      22.256   5.971  14.189  1.00  0.00     0.317 C 
BRANCH   7   8
HETATM    8  C6  UNL     1      21.469   7.104  14.770  1.00  0.00     0.093 C 
BRANCH   8   9
HETATM    9  N3  UNL     1      21.923   7.725  15.913  1.00  0.00    -0.348 N 
ATOM     10  H3  UNL     1      21.500   8.648  16.014  1.00  0.00     0.167 HD
BRANCH   9  11
HETATM   11  C7  UNL     1      22.709   7.486  16.872  1.00  0.00     0.148 A 
HETATM   12  N4  UNL     1      22.673   6.655  17.906  1.00  0.00    -0.339 N 
HETATM   13  C8  UNL     1      23.670   6.637  18.763  1.00  0.00     0.024 A 
ATOM     14  H4  UNL     1      21.876   6.031  18.035  1.00  0.00     0.168 HD
HETATM   15  C9  UNL     1      24.713   7.496  18.539  1.00  0.00     0.009 A 
HETATM   16  C13 UNL     1      23.866   5.783  20.019  1.00  0.00     0.058 C 
HETATM   17  S1  UNL     1      24.231   8.291  17.119  1.00  0.00    -0.057 SA
HETATM   18  C10 UNL     1      25.901   7.545  19.477  1.00  0.00     0.048 C 
HETATM   19  C11 UNL     1      26.335   6.189  19.912  1.00  0.00     0.006 C 
HETATM   20  C12 UNL     1      25.240   5.161  19.868  1.00  0.00     0.006 C 
ENDBRANCH   9  11
ENDBRANCH   8   9
ENDBRANCH   7   8
ENDBRANCH   4   7
BRANCH   1  21
HETATM   21  N1  UNL     1      23.878   7.095   9.002  1.00  0.00    -0.356 N 
HETATM   22  C1  UNL     1      24.934   7.767   8.336  1.00  0.00     0.222 C 
HETATM   23  O1  UNL     1      26.005   8.082   8.927  1.00  0.00    -0.273 OA
ATOM     24  H1  UNL     1      23.030   6.859   8.487  1.00  0.00     0.162 HD
BRANCH  22  25
HETATM   25  C16 UNL     1      24.799   8.117   6.913  1.00  0.00     0.078 C 
HETATM   26  C17 UNL     1      23.474   7.686   6.343  1.00  0.00     0.014 C 
HETATM   27  C18 UNL     1      23.684   7.231   4.908  1.00  0.00     0.001 C 
HETATM   28  C19 UNL     1      24.571   8.303   4.262  1.00  0.00     0.000 C 
HETATM   29  C20 UNL     1      25.997   8.020   4.725  1.00  0.00     0.001 C 
HETATM   30  C21 UNL     1      25.945   7.480   6.151  1.00  0.00     0.014 C 
ENDBRANCH  22  25
ENDBRANCH   1  21
TORSDOF 6
ENDMDL
MODEL 4
REMARK VINA RESULT: -7.834844197      4.444     10.395
REMARK  6 active torsions:
REMARK  status: ('A' for Active; 'I' for Inactive)
REMARK       I    between atoms: C1_2  and  N1_3 
REMARK    1  A    between atoms: C1_2  and  C16_25 
REMARK    2  A    between atoms: N1_3  and  C2_5 
REMARK    3  A    between atoms: N2_8  and  C5_9 
REMARK    4  A    between atoms: C5_9  and  C6_10 
REMARK    5  A    between atoms: C6_10  and  N3_11 
REMARK    6  A    between atoms: N3_11  and  C7_13 
ROOT
HETATM    1  C2  UNL     1      20.087   4.660   9.786  1.00  0.00     0.087 C 
HETATM    2  C3  UNL     1      20.501   6.092  10.118  1.00  0.00     0.055 C 
HETATM    3  C4  UNL     1      22.014   6.127  10.199  1.00  0.00     0.275 C 
HETATM    4  N2  UNL     1      22.461   5.169  11.185  1.00  0.00     0.093 N 
HETATM    5  C14 UNL     1      22.147   3.823  10.856  1.00  0.00     0.275 C 
HETATM    6  C15 UNL     1      20.643   3.685  10.776  1.00  0.00     0.055 C 
ENDROOT
BRANCH   4   7
HETATM    7  C5  UNL     1      23.823   5.409  11.605  1.00  0.00     0.317 C 
BRANCH   7   8
HETATM    8  C6  UNL     1      24.122   4.837  12.957  1.00  0.00     0.093 C 
BRANCH   8   9
HETATM    9  N3  UNL     1      23.534   5.396  14.070  1.00  0.00    -0.348 N 
ATOM     10  H3  UNL     1      22.547   5.587  13.900  1.00  0.00     0.167 HD
BRANCH   9  11
HETATM   11  C7  UNL     1      23.860   5.741  15.241  1.00  0.00     0.148 A 
HETATM   12  N4  UNL     1      24.174   5.071  16.343  1.00  0.00    -0.339 N 
HETATM   13  C8  UNL     1      24.474   5.728  17.441  1.00  0.00     0.024 A 
ATOM     14  H4  UNL     1      24.183   4.051  16.338  1.00  0.00     0.168 HD
HETATM   15  C9  UNL     1      24.445   7.097  17.389  1.00  0.00     0.009 A 
HETATM   16  C13 UNL     1      24.866   5.198  18.824  1.00  0.00     0.058 C 
HETATM   17  S1  UNL     1      23.993   7.389  15.779  1.00  0.00    -0.057 SA
HETATM   18  C10 UNL     1      24.774   7.934  18.607  1.00  0.00     0.048 C 
HETATM   19  C11 UNL     1      25.936   7.396  19.367  1.00  0.00     0.006 C 
HETATM   20  C12 UNL     1      26.149   5.921  19.179  1.00  0.00     0.006 C 
ENDBRANCH   9  11
ENDBRANCH   8   9
ENDBRANCH   7   8
ENDBRANCH   4   7
BRANCH   1  21
HETATM   21  N1  UNL     1      18.627   4.671   9.801  1.00  0.00    -0.356 N 
HETATM   22  C1  UNL     1      17.880   4.103   8.738  1.00  0.00     0.222 C 
HETATM   23  O1  UNL     1      18.438   3.567   7.740  1.00  0.00    -0.273 OA
ATOM     24  H1  UNL     1      18.137   5.094  10.589  1.00  0.00     0.162 HD
BRANCH  22  25
HETATM   25  C16 UNL     1      16.409   4.129   8.779  1.00  0.00     0.078 C 
HETATM   26  C17 UNL     1      15.882   4.374  10.167  1.00  0.00     0.014 C 
HETATM   27  C18 UNL     1      14.612   3.562  10.358  1.00  0.00     0.001 C 
HETATM   28  C19 UNL     1      13.782   3.790   9.088  1.00  0.00     0.000 C 
HETATM   29  C20 UNL     1      14.383   2.889   8.012  1.00  0.00     0.001 C 
HETATM   30  C21 UNL     1      15.891   2.814   8.231  1.00  0.00     0.014 C 
ENDBRANCH  22  25
ENDBRANCH   1  21
TORSDOF 6
ENDMDL
MODEL 5
REMARK VINA RESULT: -7.833191795      1.196      1.612
REMARK  6 active torsions:
REMARK  status: ('A' for Active; 'I' for Inactive)
REMARK       I    between atoms: C1_2  and  N1_3 
REMARK    1  A    between atoms: C1_2  and  C16_25 
REMARK    2  A    between atoms: N1_3  and  C2_5 
REMARK    3  A    between atoms: N2_8  and  C5_9 
REMARK    4  A    between atoms: C5_9  and  C6_10 
REMARK    5  A    between atoms: C6_10  and  N3_11 
REMARK    6  A    between atoms: N3_11  and  C7_13 
ROOT
HETATM    1  C2  UNL     1      24.194   6.348  13.983  1.00  0.00     0.087 C 
HETATM    2  C3  UNL     1      24.295   5.083  13.134  1.00  0.00     0.055 C 
HETATM    3  C4  UNL     1      23.862   5.436  11.725  1.00  0.00     0.275 C 
HETATM    4  N2  UNL     1      22.524   5.983  11.762  1.00  0.00     0.093 N 
HETATM    5  C14 UNL     1      22.426   7.200  12.487  1.00  0.00     0.275 C 
HETATM    6  C15 UNL     1      22.820   6.938  13.924  1.00  0.00     0.055 C 
ENDROOT
BRANCH   4   7
HETATM    7  C5  UNL     1      21.894   5.977  10.461  1.00  0.00     0.317 C 
BRANCH   7   8
HETATM    8  C6  UNL     1      21.481   7.344  10.011  1.00  0.00     0.093 C 
BRANCH   8   9
HETATM    9  N3  UNL     1      22.330   8.076   9.210  1.00  0.00    -0.348 N 
ATOM     10  H3  UNL     1      22.448   9.020   9.577  1.00  0.00     0.167 HD
BRANCH   9  11
HETATM   11  C7  UNL     1      23.005   7.920   8.154  1.00  0.00     0.148 A 
HETATM   12  N4  UNL     1      22.689   7.665   6.890  1.00  0.00    -0.339 N 
HETATM   13  C8  UNL     1      23.641   7.551   5.991  1.00  0.00     0.024 A 
ATOM     14  H4  UNL     1      21.711   7.558   6.618  1.00  0.00     0.168 HD
HETATM   15  C9  UNL     1      24.934   7.704   6.414  1.00  0.00     0.009 A 
HETATM   16  C13 UNL     1      23.540   7.265   4.489  1.00  0.00     0.058 C 
HETATM   17  S1  UNL     1      24.739   8.003   8.074  1.00  0.00    -0.057 SA
HETATM   18  C10 UNL     1      26.093   7.587   5.447  1.00  0.00     0.048 C 
HETATM   19  C11 UNL     1      25.815   8.255   4.146  1.00  0.00     0.006 C 
HETATM   20  C12 UNL     1      24.352   8.356   3.821  1.00  0.00     0.006 C 
ENDBRANCH   9  11
ENDBRANCH   8   9
ENDBRANCH   7   8
ENDBRANCH   4   7
BRANCH   1  21
HETATM   21  N1  UNL     1      24.544   5.930  15.337  1.00  0.00    -0.356 N 
HETATM   22  C1  UNL     1      25.122   6.840  16.257  1.00  0.00     0.222 C 
HETATM   23  O1  UNL     1      25.357   8.042  15.951  1.00  0.00    -0.273 OA
ATOM     24  H1  UNL     1      24.370   4.966  15.625  1.00  0.00     0.162 HD
BRANCH  22  25
HETATM   25  C16 UNL     1      25.466   6.391  17.616  1.00  0.00     0.078 C 
HETATM   26  C17 UNL     1      24.491   5.372  18.144  1.00  0.00     0.014 C 
HETATM   27  C18 UNL     1      24.300   5.604  19.634  1.00  0.00     0.001 C 
HETATM   28  C19 UNL     1      25.711   5.795  20.204  1.00  0.00     0.000 C 
HETATM   29  C20 UNL     1      26.120   7.228  19.875  1.00  0.00     0.001 C 
HETATM   30  C21 UNL     1      25.520   7.604  18.523  1.00  0.00     0.014 C 
ENDBRANCH  22  25
ENDBRANCH   1  21
TORSDOF 6
ENDMDL
