MODEL 1
REMARK VINA RESULT: -6.954835136      0.000      0.000
REMARK  7 active torsions:
REMARK  status: ('A' for Active; 'I' for Inactive)
REMARK    1  A    between atoms: C2_3  and  C3_4 
REMARK    2  A    between atoms: C13_14  and  C14_15 
REMARK    3  A    between atoms: C14_15  and  N2_18 
REMARK    4  A    between atoms: N2_18  and  S1_20 
REMARK    5  A    between atoms: C18_24  and  C19_25 
REMARK    6  A    between atoms: C19_25  and  N3_26 
REMARK    7  A    between atoms: N3_26  and  C20_29 
ROOT
HETATM    1  C1  UNL     1      24.581   4.899  13.388  1.00  0.00     0.156 C 
HETATM    2  N1  UNL     1      23.804   6.049  12.935  1.00  0.00    -0.355 N 
HETATM    3  C2  UNL     1      23.621   7.188  13.667  1.00  0.00     0.021 A 
HETATM    4  C12 UNL     1      22.868   8.051  12.928  1.00  0.00     0.037 A 
HETATM    5  C13 UNL     1      22.559   7.468  11.717  1.00  0.00    -0.004 A 
HETATM    6  C18 UNL     1      23.174   6.206  11.774  1.00  0.00     0.046 A 
ENDROOT
BRANCH   3   7
HETATM    7  C3  UNL     1      24.131   7.465  15.021  1.00  0.00     0.003 C 
HETATM    8  C4  UNL     1      23.532   6.621  16.099  1.00  0.00     0.020 C 
HETATM    9  C5  UNL     1      24.029   6.989  17.464  1.00  0.00    -0.013 C 
HETATM   10  C6  UNL     1      23.648   8.448  17.772  1.00  0.00     0.010 C 
HETATM   11  C10 UNL     1      25.541   7.121  17.454  1.00  0.00     0.010 C 
HETATM   12  C7  UNL     1      24.425   9.130  16.652  1.00  0.00    -0.009 C 
HETATM   13  C8  UNL     1      23.634   8.896  15.384  1.00  0.00     0.021 C 
HETATM   14  C9  UNL     1      25.684   8.339  16.535  1.00  0.00    -0.009 C 
HETATM   15  C11 UNL     1      25.588   7.741  15.118  1.00  0.00     0.021 C 
ENDBRANCH   3   7
BRANCH   6  16
HETATM   16  C19 UNL     1      23.093   5.218  10.648  1.00  0.00     0.290 C 
BRANCH  16  17
HETATM   17  N3  UNL     1      22.276   4.063  10.904  1.00  0.00    -0.066 N 
ATOM     18  H32 UNL     1      22.604   3.249  10.384  1.00  0.00     0.278 HD
ATOM     19  H31 UNL     1      22.413   3.710  11.851  1.00  0.00     0.278 HD
BRANCH  17  20
HETATM   20  C20 UNL     1      20.859   4.343  10.632  1.00  0.00     0.186 A 
HETATM   21  C21 UNL     1      20.314   4.356   9.274  1.00  0.00     0.035 A 
HETATM   22  C22 UNL     1      19.966   3.262  10.224  1.00  0.00     0.035 A 
ENDBRANCH  17  20
ENDBRANCH  16  17
ENDBRANCH   6  16
BRANCH   5  23
HETATM   23  C14 UNL     1      21.829   8.098  10.582  1.00  0.00     0.062 C 
HETATM   24  C15 UNL     1      20.338   7.705  10.807  1.00  0.00     0.044 C 
HETATM   25  C16 UNL     1      21.836   9.579  10.597  1.00  0.00     0.044 C 
BRANCH  23  26
HETATM   26  N2  UNL     1      22.185   7.502   9.341  1.00  0.00    -0.306 N 
ATOM     27  H2  UNL     1      21.637   6.722   8.976  1.00  0.00     0.173 HD
BRANCH  26  28
HETATM   28  S1  UNL     1      23.502   8.077   8.476  1.00  0.00     0.223 S 
HETATM   29  C17 UNL     1      23.178   9.561   7.529  1.00  0.00     0.185 C 
HETATM   30  O1  UNL     1      23.812   7.037   7.395  1.00  0.00    -0.206 OA
HETATM   31  O2  UNL     1      24.785   8.231   9.233  1.00  0.00    -0.206 OA
ENDBRANCH  26  28
ENDBRANCH  23  26
ENDBRANCH   5  23
TORSDOF 7
ENDMDL
MODEL 2
REMARK VINA RESULT: -6.926771710      2.812      4.014
REMARK  7 active torsions:
REMARK  status: ('A' for Active; 'I' for Inactive)
REMARK    1  A    between atoms: C2_3  and  C3_4 
REMARK    2  A    between atoms: C13_14  and  C14_15 
REMARK    3  A    between atoms: C14_15  and  N2_18 
REMARK    4  A    between atoms: N2_18  and  S1_20 
REMARK    5  A    between atoms: C18_24  and  C19_25 
REMARK    6  A    between atoms: C19_25  and  N3_26 
REMARK    7  A    between atoms: N3_26  and  C20_29 
ROOT
HETATM    1  C1  UNL     1      25.471   6.974  14.860  1.00  0.00     0.156 C 
HETATM    2  N1  UNL     1      24.031   6.984  15.100  1.00  0.00    -0.355 N 
HETATM    3  C2  UNL     1      23.457   6.841  16.332  1.00  0.00     0.021 A 
HETATM    4  C12 UNL     1      22.104   6.922  16.182  1.00  0.00     0.037 A 
HETATM    5  C13 UNL     1      21.801   7.114  14.851  1.00  0.00    -0.004 A 
HETATM    6  C18 UNL     1      23.052   7.145  14.213  1.00  0.00     0.046 A 
ENDROOT
BRANCH   3   7
HETATM    7  C3  UNL     1      24.149   6.631  17.615  1.00  0.00     0.003 C 
HETATM    8  C4  UNL     1      24.752   5.273  17.784  1.00  0.00     0.020 C 
HETATM    9  C5  UNL     1      25.381   5.085  19.131  1.00  0.00    -0.013 C 
HETATM   10  C6  UNL     1      24.309   5.241  20.225  1.00  0.00     0.010 C 
HETATM   11  C10 UNL     1      26.260   6.276  19.471  1.00  0.00     0.010 C 
HETATM   12  C7  UNL     1      23.909   6.686  19.951  1.00  0.00    -0.009 C 
HETATM   13  C8  UNL     1      23.043   6.659  18.711  1.00  0.00     0.021 C 
HETATM   14  C9  UNL     1      25.186   7.363  19.579  1.00  0.00    -0.009 C 
HETATM   15  C11 UNL     1      24.943   7.783  18.117  1.00  0.00     0.021 C 
ENDBRANCH   3   7
BRANCH   6  16
HETATM   16  C19 UNL     1      23.198   7.336  12.732  1.00  0.00     0.290 C 
BRANCH  16  17
HETATM   17  N3  UNL     1      23.026   6.148  11.941  1.00  0.00    -0.066 N 
ATOM     18  H32 UNL     1      23.213   5.306  12.485  1.00  0.00     0.278 HD
ATOM     19  H31 UNL     1      22.043   5.980  11.726  1.00  0.00     0.278 HD
BRANCH  17  20
HETATM   20  C20 UNL     1      23.845   6.197  10.722  1.00  0.00     0.186 A 
HETATM   21  C21 UNL     1      23.262   6.435   9.401  1.00  0.00     0.035 A 
HETATM   22  C22 UNL     1      24.099   7.475  10.063  1.00  0.00     0.035 A 
ENDBRANCH  17  20
ENDBRANCH  16  17
ENDBRANCH   6  16
BRANCH   5  23
HETATM   23  C14 UNL     1      20.451   7.340  14.265  1.00  0.00     0.062 C 
HETATM   24  C15 UNL     1      19.501   7.444  15.496  1.00  0.00     0.044 C 
HETATM   25  C16 UNL     1      20.299   8.631  13.558  1.00  0.00     0.044 C 
BRANCH  23  26
HETATM   26  N2  UNL     1      19.999   6.198  13.547  1.00  0.00    -0.306 N 
ATOM     27  H2  UNL     1      20.043   5.275  13.979  1.00  0.00     0.173 HD
BRANCH  26  28
HETATM   28  S1  UNL     1      19.396   6.365  11.990  1.00  0.00     0.223 S 
HETATM   29  C17 UNL     1      17.692   6.910  11.910  1.00  0.00     0.185 C 
HETATM   30  O1  UNL     1      19.339   4.961  11.383  1.00  0.00    -0.206 OA
HETATM   31  O2  UNL     1      20.226   7.161  11.031  1.00  0.00    -0.206 OA
ENDBRANCH  26  28
ENDBRANCH  23  26
ENDBRANCH   5  23
TORSDOF 7
ENDMDL
MODEL 3
REMARK VINA RESULT: -6.915079900      2.449      3.369
REMARK  7 active torsions:
REMARK  status: ('A' for Active; 'I' for Inactive)
REMARK    1  A    between atoms: C2_3  and  C3_4 
REMARK    2  A    between atoms: C13_14  and  C14_15 
REMARK    3  A    between atoms: C14_15  and  N2_18 
REMARK    4  A    between atoms: N2_18  and  S1_20 
REMARK    5  A    between atoms: C18_24  and  C19_25 
REMARK    6  A    between atoms: C19_25  and  N3_26 
REMARK    7  A    between atoms: N3_26  and  C20_29 
ROOT
HETATM    1  C1  UNL     1      25.202   5.281  13.667  1.00  0.00     0.156 C 
HETATM    2  N1  UNL     1      23.802   5.693  13.688  1.00  0.00    -0.355 N 
HETATM    3  C2  UNL     1      23.215   6.364  14.723  1.00  0.00     0.021 A 
HETATM    4  C12 UNL     1      21.914   6.601  14.391  1.00  0.00     0.037 A 
HETATM    5  C13 UNL     1      21.657   6.079  13.141  1.00  0.00    -0.004 A 
HETATM    6  C18 UNL     1      22.882   5.517  12.744  1.00  0.00     0.046 A 
ENDROOT
BRANCH   3   7
HETATM    7  C3  UNL     1      23.847   6.772  15.989  1.00  0.00     0.003 C 
HETATM    8  C4  UNL     1      24.048   5.664  16.972  1.00  0.00     0.020 C 
HETATM    9  C5  UNL     1      24.628   6.141  18.270  1.00  0.00    -0.013 C 
HETATM   10  C6  UNL     1      23.664   7.150  18.920  1.00  0.00     0.010 C 
HETATM   11  C10 UNL     1      25.812   7.056  18.011  1.00  0.00     0.010 C 
HETATM   12  C7  UNL     1      23.679   8.218  17.833  1.00  0.00    -0.009 C 
HETATM   13  C8  UNL     1      22.815   7.691  16.709  1.00  0.00     0.021 C 
HETATM   14  C9  UNL     1      25.087   8.226  17.337  1.00  0.00    -0.009 C 
HETATM   15  C11 UNL     1      24.941   7.771  15.873  1.00  0.00     0.021 C 
ENDBRANCH   3   7
BRANCH   6  16
HETATM   16  C19 UNL     1      23.061   4.826  11.423  1.00  0.00     0.290 C 
BRANCH  16  17
HETATM   17  N3  UNL     1      23.075   5.693  10.276  1.00  0.00    -0.066 N 
ATOM     18  H32 UNL     1      23.204   5.168   9.412  1.00  0.00     0.278 HD
ATOM     19  H31 UNL     1      22.149   6.079  10.088  1.00  0.00     0.278 HD
BRANCH  17  20
HETATM   20  C20 UNL     1      24.083   6.752  10.421  1.00  0.00     0.186 A 
HETATM   21  C21 UNL     1      24.524   7.568   9.289  1.00  0.00     0.035 A 
HETATM   22  C22 UNL     1      23.681   8.155  10.369  1.00  0.00     0.035 A 
ENDBRANCH  17  20
ENDBRANCH  16  17
ENDBRANCH   6  16
BRANCH   5  23
HETATM   23  C14 UNL     1      20.389   6.193  12.368  1.00  0.00     0.062 C 
HETATM   24  C15 UNL     1      19.299   6.486  13.441  1.00  0.00     0.044 C 
HETATM   25  C16 UNL     1      20.336   7.351  11.448  1.00  0.00     0.044 C 
BRANCH  23  26
HETATM   26  N2  UNL     1      20.017   4.945  11.795  1.00  0.00    -0.306 N 
ATOM     27  H2  UNL     1      20.184   4.080  12.309  1.00  0.00     0.173 HD
BRANCH  26  28
HETATM   28  S1  UNL     1      19.306   4.893  10.277  1.00  0.00     0.223 S 
HETATM   29  C17 UNL     1      17.737   5.749  10.162  1.00  0.00     0.185 C 
HETATM   30  O1  UNL     1      18.923   3.433  10.016  1.00  0.00    -0.206 OA
HETATM   31  O2  UNL     1      20.173   5.271   9.117  1.00  0.00    -0.206 OA
ENDBRANCH  26  28
ENDBRANCH  23  26
ENDBRANCH   5  23
TORSDOF 7
ENDMDL
MODEL 4
REMARK VINA RESULT: -6.890095407      3.525      7.045
REMARK  7 active torsions:
REMARK  status: ('A' for Active; 'I' for Inactive)
REMARK    1  A    between atoms: C2_3  and  C3_4 
REMARK    2  A    between atoms: C13_14  and  C14_15 
REMARK    3  A    between atoms: C14_15  and  N2_18 
REMARK    4  A    between atoms: N2_18  and  S1_20 
REMARK    5  A    between atoms: C18_24  and  C19_25 
REMARK    6  A    between atoms: C19_25  and  N3_26 
REMARK    7  A    between atoms: N3_26  and  C20_29 
ROOT
HETATM    1  C1  UNL     1      24.562   5.112  13.086  1.00  0.00     0.156 C 
HETATM    2  N1  UNL     1      23.937   6.335  13.580  1.00  0.00    -0.355 N 
HETATM    3  C2  UNL     1      23.116   7.133  12.834  1.00  0.00     0.021 A 
HETATM    4  C12 UNL     1      22.701   8.167  13.620  1.00  0.00     0.037 A 
HETATM    5  C13 UNL     1      23.257   8.041  14.875  1.00  0.00    -0.004 A 
HETATM    6  C18 UNL     1      24.028   6.870  14.795  1.00  0.00     0.046 A 
ENDROOT
BRANCH   3   7
HETATM    7  C3  UNL     1      22.730   6.940  11.426  1.00  0.00     0.003 C 
HETATM    8  C4  UNL     1      23.861   7.015  10.452  1.00  0.00     0.020 C 
HETATM    9  C5  UNL     1      23.409   6.884   9.029  1.00  0.00    -0.013 C 
HETATM   10  C6  UNL     1      22.445   8.036   8.690  1.00  0.00     0.010 C 
HETATM   11  C10 UNL     1      22.455   5.711   8.887  1.00  0.00     0.010 C 
HETATM   12  C7  UNL     1      21.345   7.721   9.697  1.00  0.00    -0.009 C 
HETATM   13  C8  UNL     1      21.860   8.175  11.045  1.00  0.00     0.021 C 
HETATM   14  C9  UNL     1      21.285   6.230   9.730  1.00  0.00    -0.009 C 
HETATM   15  C11 UNL     1      21.699   5.898  11.176  1.00  0.00     0.021 C 
ENDBRANCH   3   7
BRANCH   6  16
HETATM   16  C19 UNL     1      24.823   6.346  15.956  1.00  0.00     0.290 C 
BRANCH  16  17
HETATM   17  N3  UNL     1      24.201   5.278  16.691  1.00  0.00    -0.066 N 
ATOM     18  H32 UNL     1      23.184   5.338  16.650  1.00  0.00     0.278 HD
ATOM     19  H31 UNL     1      24.324   4.380  16.223  1.00  0.00     0.278 HD
BRANCH  17  20
HETATM   20  C20 UNL     1      24.684   5.235  18.078  1.00  0.00     0.186 A 
HETATM   21  C21 UNL     1      25.038   6.447  18.817  1.00  0.00     0.035 A 
HETATM   22  C22 UNL     1      23.815   5.671  19.168  1.00  0.00     0.035 A 
ENDBRANCH  17  20
ENDBRANCH  16  17
ENDBRANCH   6  16
BRANCH   5  23
HETATM   23  C14 UNL     1      22.998   8.907  16.058  1.00  0.00     0.062 C 
HETATM   24  C15 UNL     1      24.413   9.276  16.594  1.00  0.00     0.044 C 
HETATM   25  C16 UNL     1      22.362  10.205  15.739  1.00  0.00     0.044 C 
BRANCH  23  26
HETATM   26  N2  UNL     1      22.384   8.175  17.112  1.00  0.00    -0.306 N 
ATOM     27  H2  UNL     1      22.819   8.149  18.034  1.00  0.00     0.173 HD
BRANCH  26  28
HETATM   28  S1  UNL     1      20.946   7.353  16.842  1.00  0.00     0.223 S 
HETATM   29  C17 UNL     1      19.714   8.289  15.942  1.00  0.00     0.185 C 
HETATM   30  O1  UNL     1      20.291   7.143  18.210  1.00  0.00    -0.206 OA
HETATM   31  O2  UNL     1      21.059   5.978  16.261  1.00  0.00    -0.206 OA
ENDBRANCH  26  28
ENDBRANCH  23  26
ENDBRANCH   5  23
TORSDOF 7
ENDMDL
MODEL 5
REMARK VINA RESULT: -6.872032000      3.429      4.634
REMARK  7 active torsions:
REMARK  status: ('A' for Active; 'I' for Inactive)
REMARK    1  A    between atoms: C2_3  and  C3_4 
REMARK    2  A    between atoms: C13_14  and  C14_15 
REMARK    3  A    between atoms: C14_15  and  N2_18 
REMARK    4  A    between atoms: N2_18  and  S1_20 
REMARK    5  A    between atoms: C18_24  and  C19_25 
REMARK    6  A    between atoms: C19_25  and  N3_26 
REMARK    7  A    between atoms: N3_26  and  C20_29 
ROOT
HETATM    1  C1  UNL     1      25.708   7.075  14.898  1.00  0.00     0.156 C 
HETATM    2  N1  UNL     1      24.404   7.624  15.256  1.00  0.00    -0.355 N 
HETATM    3  C2  UNL     1      23.884   7.609  16.519  1.00  0.00     0.021 A 
HETATM    4  C12 UNL     1      22.667   8.223  16.485  1.00  0.00     0.037 A 
HETATM    5  C13 UNL     1      22.397   8.634  15.197  1.00  0.00    -0.004 A 
HETATM    6  C18 UNL     1      23.524   8.231  14.462  1.00  0.00     0.046 A 
ENDROOT
BRANCH   3   7
HETATM    7  C3  UNL     1      24.501   7.033  17.726  1.00  0.00     0.003 C 
HETATM    8  C4  UNL     1      24.677   5.549  17.691  1.00  0.00     0.020 C 
HETATM    9  C5  UNL     1      25.242   5.004  18.967  1.00  0.00    -0.013 C 
HETATM   10  C6  UNL     1      24.280   5.316  20.128  1.00  0.00     0.010 C 
HETATM   11  C10 UNL     1      26.439   5.828  19.406  1.00  0.00     0.010 C 
HETATM   12  C7  UNL     1      24.323   6.838  20.060  1.00  0.00    -0.009 C 
HETATM   13  C8  UNL     1      23.469   7.234  18.875  1.00  0.00     0.021 C 
HETATM   14  C9  UNL     1      25.737   7.157  19.707  1.00  0.00    -0.009 C 
HETATM   15  C11 UNL     1      25.608   7.824  18.325  1.00  0.00     0.021 C 
ENDBRANCH   3   7
BRANCH   6  16
HETATM   16  C19 UNL     1      23.658   8.480  12.988  1.00  0.00     0.290 C 
BRANCH  16  17
HETATM   17  N3  UNL     1      22.964   7.546  12.144  1.00  0.00    -0.066 N 
ATOM     18  H32 UNL     1      22.147   7.153  12.612  1.00  0.00     0.278 HD
ATOM     19  H31 UNL     1      22.490   8.017  11.373  1.00  0.00     0.278 HD
BRANCH  17  20
HETATM   20  C20 UNL     1      23.867   6.494  11.660  1.00  0.00     0.186 A 
HETATM   21  C21 UNL     1      23.934   5.174  12.288  1.00  0.00     0.035 A 
HETATM   22  C22 UNL     1      23.330   5.344  10.937  1.00  0.00     0.035 A 
ENDBRANCH  17  20
ENDBRANCH  16  17
ENDBRANCH   6  16
BRANCH   5  23
HETATM   23  C14 UNL     1      21.218   9.420  14.739  1.00  0.00     0.062 C 
HETATM   24  C15 UNL     1      20.453   9.781  16.047  1.00  0.00     0.044 C 
HETATM   25  C16 UNL     1      21.553  10.724  14.123  1.00  0.00     0.044 C 
BRANCH  23  26
HETATM   26  N2  UNL     1      20.314   8.612  13.994  1.00  0.00    -0.306 N 
ATOM     27  H2  UNL     1      20.007   8.913  13.069  1.00  0.00     0.173 HD
BRANCH  26  28
HETATM   28  S1  UNL     1      19.752   7.166  14.633  1.00  0.00     0.223 S 
HETATM   29  C17 UNL     1      20.838   5.767  14.368  1.00  0.00     0.185 C 
HETATM   30  O1  UNL     1      18.499   6.787  13.839  1.00  0.00    -0.206 OA
HETATM   31  O2  UNL     1      19.303   7.194  16.061  1.00  0.00    -0.206 OA
ENDBRANCH  26  28
ENDBRANCH  23  26
ENDBRANCH   5  23
TORSDOF 7
ENDMDL
