MODEL 1
REMARK VINA RESULT: -8.335559920      0.000      0.000
REMARK  6 active torsions:
REMARK  status: ('A' for Active; 'I' for Inactive)
REMARK    1  A    between atoms: C3_3  and  N1_4 
REMARK    2  A    between atoms: C5_6  and  C6_7 
REMARK    3  A    between atoms: C17_18  and  C18_19 
REMARK       I    between atoms: C18_19  and  N2_21 
REMARK    4  A    between atoms: N2_21  and  C19_23 
REMARK    5  A    between atoms: C19_23  and  C20_24 
REMARK    6  A    between atoms: C20_24  and  C21_25 
ROOT
HETATM    1  C1  UNL     1      19.759   3.859  10.290  1.00  0.00     0.014 C 
HETATM    2  C2  UNL     1      20.886   3.759  10.700  1.00  0.00    -0.095 C 
HETATM    3  C3  UNL     1      22.240   3.620  11.182  1.00  0.00     0.248 C 
ENDROOT
BRANCH   3   4
HETATM    4  N1  UNL     1      22.895   4.912  11.398  1.00  0.00    -0.252 N 
HETATM    5  C4  UNL     1      23.049   5.426  12.736  1.00  0.00     0.126 A 
HETATM    6  C5  UNL     1      23.633   6.584  12.991  1.00  0.00    -0.029 A 
HETATM    7  C16 UNL     1      24.125   7.335  11.822  1.00  0.00     0.054 A 
HETATM    8  C17 UNL     1      23.999   6.893  10.585  1.00  0.00     0.167 A 
HETATM    9  O2  UNL     1      23.381   5.676  10.380  1.00  0.00    -0.230 OA
BRANCH   6  10
HETATM   10  C6  UNL     1      23.799   7.128  14.369  1.00  0.00    -0.011 C 
HETATM   11  C7  UNL     1      22.716   6.479  15.220  1.00  0.00     0.019 C 
HETATM   12  C8  UNL     1      22.867   6.896  16.665  1.00  0.00    -0.013 C 
HETATM   13  C9  UNL     1      24.244   6.489  17.139  1.00  0.00     0.009 C 
HETATM   14  C13 UNL     1      22.671   8.387  16.735  1.00  0.00     0.009 C 
HETATM   15  C10 UNL     1      25.269   7.238  16.343  1.00  0.00    -0.013 C 
HETATM   16  C11 UNL     1      25.068   8.722  16.416  1.00  0.00     0.009 C 
HETATM   17  C15 UNL     1      25.167   6.784  14.900  1.00  0.00     0.019 C 
HETATM   18  C12 UNL     1      23.703   9.040  15.869  1.00  0.00    -0.013 C 
HETATM   19  C14 UNL     1      23.615   8.607  14.428  1.00  0.00     0.019 C 
ENDBRANCH   6  10
BRANCH   8  20
HETATM   20  C18 UNL     1      24.520   7.706   9.454  1.00  0.00     0.277 C 
HETATM   21  O1  UNL     1      25.667   8.203   9.568  1.00  0.00    -0.265 OA
HETATM   22  N2  UNL     1      23.677   7.854   8.337  1.00  0.00    -0.355 N 
ATOM     23  H2  UNL     1      22.762   7.404   8.336  1.00  0.00     0.162 HD
BRANCH  22  24
HETATM   24  C19 UNL     1      24.085   8.630   7.193  1.00  0.00     0.123 C 
BRANCH  24  25
HETATM   25  C20 UNL     1      24.314   7.729   6.013  1.00  0.00     0.024 C 
BRANCH  25  26
HETATM   26  C21 UNL     1      23.004   7.517   5.282  1.00  0.00    -0.010 C 
HETATM   27  C22 UNL     1      23.236   7.595   3.771  1.00  0.00     0.032 C 
HETATM   28  C23 UNL     1      21.875   7.558   3.118  1.00  0.00     0.232 C 
HETATM   29  N3  UNL     1      21.142   6.364   3.459  1.00  0.00    -0.075 N 
HETATM   30  C24 UNL     1      20.991   6.217   4.875  1.00  0.00     0.232 C 
ATOM     31  H32 UNL     1      20.239   6.335   2.985  1.00  0.00     0.277 HD
ATOM     32  H31 UNL     1      21.567   5.535   3.043  1.00  0.00     0.277 HD
HETATM   33  C25 UNL     1      22.389   6.162   5.512  1.00  0.00     0.032 C 
ENDBRANCH  25  26
ENDBRANCH  24  25
ENDBRANCH  22  24
ENDBRANCH   8  20
ENDBRANCH   3   4
TORSDOF 6
ENDMDL
MODEL 2
REMARK VINA RESULT: -8.298967760      4.578      9.494
REMARK  6 active torsions:
REMARK  status: ('A' for Active; 'I' for Inactive)
REMARK    1  A    between atoms: C3_3  and  N1_4 
REMARK    2  A    between atoms: C5_6  and  C6_7 
REMARK    3  A    between atoms: C17_18  and  C18_19 
REMARK       I    between atoms: C18_19  and  N2_21 
REMARK    4  A    between atoms: N2_21  and  C19_23 
REMARK    5  A    between atoms: C19_23  and  C20_24 
REMARK    6  A    between atoms: C20_24  and  C21_25 
ROOT
HETATM    1  C1  UNL     1      15.263   6.392  16.256  1.00  0.00     0.014 C 
HETATM    2  C2  UNL     1      15.902   6.714  15.288  1.00  0.00    -0.095 C 
HETATM    3  C3  UNL     1      16.653   7.113  14.121  1.00  0.00     0.248 C 
ENDROOT
BRANCH   3   4
HETATM    4  N1  UNL     1      18.099   6.976  14.310  1.00  0.00    -0.252 N 
HETATM    5  C4  UNL     1      18.924   6.504  13.226  1.00  0.00     0.126 A 
HETATM    6  C5  UNL     1      20.234   6.361  13.338  1.00  0.00    -0.029 A 
HETATM    7  C16 UNL     1      20.816   6.715  14.646  1.00  0.00     0.054 A 
HETATM    8  C17 UNL     1      20.089   7.148  15.657  1.00  0.00     0.167 A 
HETATM    9  O2  UNL     1      18.726   7.278  15.481  1.00  0.00    -0.230 OA
BRANCH   6  10
HETATM   10  C6  UNL     1      21.099   5.874  12.226  1.00  0.00    -0.011 C 
HETATM   11  C7  UNL     1      22.287   5.181  12.879  1.00  0.00     0.019 C 
HETATM   12  C8  UNL     1      23.175   4.563  11.824  1.00  0.00    -0.013 C 
HETATM   13  C9  UNL     1      22.351   3.583  11.018  1.00  0.00     0.009 C 
HETATM   14  C13 UNL     1      23.713   5.678  10.966  1.00  0.00     0.009 C 
HETATM   15  C10 UNL     1      21.265   4.333  10.311  1.00  0.00    -0.013 C 
HETATM   16  C11 UNL     1      21.805   5.443   9.459  1.00  0.00     0.009 C 
HETATM   17  C15 UNL     1      20.332   4.909  11.358  1.00  0.00     0.019 C 
HETATM   18  C12 UNL     1      22.554   6.399  10.349  1.00  0.00    -0.013 C 
HETATM   19  C14 UNL     1      21.617   6.984  11.375  1.00  0.00     0.019 C 
ENDBRANCH   6  10
BRANCH   8  20
HETATM   20  C18 UNL     1      20.746   7.485  16.948  1.00  0.00     0.277 C 
HETATM   21  O1  UNL     1      20.150   7.173  18.008  1.00  0.00    -0.265 OA
HETATM   22  N2  UNL     1      21.994   8.132  16.876  1.00  0.00    -0.355 N 
ATOM     23  H2  UNL     1      22.400   8.338  15.963  1.00  0.00     0.162 HD
BRANCH  22  24
HETATM   24  C19 UNL     1      22.708   8.509  18.070  1.00  0.00     0.123 C 
BRANCH  24  25
HETATM   25  C20 UNL     1      24.186   8.346  17.862  1.00  0.00     0.024 C 
BRANCH  25  26
HETATM   26  C21 UNL     1      24.751   7.459  18.953  1.00  0.00    -0.010 C 
HETATM   27  C22 UNL     1      24.068   6.089  18.912  1.00  0.00     0.032 C 
HETATM   28  C23 UNL     1      24.542   5.328  20.126  1.00  0.00     0.232 C 
HETATM   29  N3  UNL     1      25.977   5.181  20.149  1.00  0.00    -0.075 N 
HETATM   30  C24 UNL     1      26.644   6.447  20.093  1.00  0.00     0.232 C 
ATOM     31  H32 UNL     1      26.281   4.637  20.956  1.00  0.00     0.277 HD
ATOM     32  H31 UNL     1      26.298   4.560  19.406  1.00  0.00     0.277 HD
HETATM   33  C25 UNL     1      26.220   7.166  18.802  1.00  0.00     0.032 C 
ENDBRANCH  25  26
ENDBRANCH  24  25
ENDBRANCH  22  24
ENDBRANCH   8  20
ENDBRANCH   3   4
TORSDOF 6
ENDMDL
MODEL 3
REMARK VINA RESULT: -8.196214659      6.896     11.947
REMARK  6 active torsions:
REMARK  status: ('A' for Active; 'I' for Inactive)
REMARK    1  A    between atoms: C3_3  and  N1_4 
REMARK    2  A    between atoms: C5_6  and  C6_7 
REMARK    3  A    between atoms: C17_18  and  C18_19 
REMARK       I    between atoms: C18_19  and  N2_21 
REMARK    4  A    between atoms: N2_21  and  C19_23 
REMARK    5  A    between atoms: C19_23  and  C20_24 
REMARK    6  A    between atoms: C20_24  and  C21_25 
ROOT
HETATM    1  C1  UNL     1      26.725   7.027  19.981  1.00  0.00     0.014 C 
HETATM    2  C2  UNL     1      25.823   6.245  20.131  1.00  0.00    -0.095 C 
HETATM    3  C3  UNL     1      24.750   5.298  20.327  1.00  0.00     0.248 C 
ENDROOT
BRANCH   3   4
HETATM    4  N1  UNL     1      23.460   5.804  19.851  1.00  0.00    -0.252 N 
HETATM    5  C4  UNL     1      23.311   6.214  18.477  1.00  0.00     0.126 A 
HETATM    6  C5  UNL     1      22.171   6.676  17.992  1.00  0.00    -0.029 A 
HETATM    7  C16 UNL     1      21.045   6.754  18.940  1.00  0.00     0.054 A 
HETATM    8  C17 UNL     1      21.149   6.389  20.203  1.00  0.00     0.167 A 
HETATM    9  O2  UNL     1      22.365   5.912  20.654  1.00  0.00    -0.230 OA
BRANCH   6  10
HETATM   10  C6  UNL     1      22.002   7.103  16.574  1.00  0.00    -0.011 C 
HETATM   11  C7  UNL     1      23.382   7.030  15.936  1.00  0.00     0.019 C 
HETATM   12  C8  UNL     1      23.294   7.351  14.461  1.00  0.00    -0.013 C 
HETATM   13  C9  UNL     1      22.345   6.368  13.813  1.00  0.00     0.009 C 
HETATM   14  C13 UNL     1      22.805   8.769  14.329  1.00  0.00     0.009 C 
HETATM   15  C10 UNL     1      20.979   6.558  14.399  1.00  0.00    -0.013 C 
HETATM   16  C11 UNL     1      20.498   7.972  14.266  1.00  0.00     0.009 C 
HETATM   17  C15 UNL     1      21.041   6.182  15.866  1.00  0.00     0.019 C 
HETATM   18  C12 UNL     1      21.465   8.870  14.990  1.00  0.00    -0.013 C 
HETATM   19  C14 UNL     1      21.506   8.505  16.452  1.00  0.00     0.019 C 
ENDBRANCH   6  10
BRANCH   8  20
HETATM   20  C18 UNL     1      19.970   6.496  21.103  1.00  0.00     0.277 C 
HETATM   21  O1  UNL     1      20.058   5.988  22.248  1.00  0.00    -0.265 OA
HETATM   22  N2  UNL     1      18.842   7.165  20.595  1.00  0.00    -0.355 N 
ATOM     23  H2  UNL     1      18.871   7.552  19.651  1.00  0.00     0.162 HD
BRANCH  22  24
HETATM   24  C19 UNL     1      17.645   7.315  21.384  1.00  0.00     0.123 C 
BRANCH  24  25
HETATM   25  C20 UNL     1      17.260   8.764  21.470  1.00  0.00     0.024 C 
BRANCH  25  26
HETATM   26  C21 UNL     1      18.299   9.511  22.281  1.00  0.00    -0.010 C 
HETATM   27  C22 UNL     1      17.865  10.969  22.459  1.00  0.00     0.032 C 
HETATM   28  C23 UNL     1      19.019  11.691  23.111  1.00  0.00     0.232 C 
HETATM   29  N3  UNL     1      19.378  11.108  24.381  1.00  0.00    -0.075 N 
HETATM   30  C24 UNL     1      19.698   9.718  24.257  1.00  0.00     0.232 C 
ATOM     31  H32 UNL     1      20.136  11.625  24.826  1.00  0.00     0.277 HD
ATOM     32  H31 UNL     1      18.649  11.260  25.078  1.00  0.00     0.277 HD
HETATM   33  C25 UNL     1      18.477   8.984  23.680  1.00  0.00     0.032 C 
ENDBRANCH  25  26
ENDBRANCH  24  25
ENDBRANCH  22  24
ENDBRANCH   8  20
ENDBRANCH   3   4
TORSDOF 6
ENDMDL
MODEL 4
REMARK VINA RESULT: -8.182178872      2.662      9.310
REMARK  6 active torsions:
REMARK  status: ('A' for Active; 'I' for Inactive)
REMARK    1  A    between atoms: C3_3  and  N1_4 
REMARK    2  A    between atoms: C5_6  and  C6_7 
REMARK    3  A    between atoms: C17_18  and  C18_19 
REMARK       I    between atoms: C18_19  and  N2_21 
REMARK    4  A    between atoms: N2_21  and  C19_23 
REMARK    5  A    between atoms: C19_23  and  C20_24 
REMARK    6  A    between atoms: C20_24  and  C21_25 
ROOT
HETATM    1  C1  UNL     1      24.196   8.262   6.721  1.00  0.00     0.014 C 
HETATM    2  C2  UNL     1      24.644   8.160   7.833  1.00  0.00    -0.095 C 
HETATM    3  C3  UNL     1      25.191   8.055   9.165  1.00  0.00     0.248 C 
ENDROOT
BRANCH   3   4
HETATM    4  N1  UNL     1      24.361   7.235  10.050  1.00  0.00    -0.252 N 
HETATM    5  C4  UNL     1      23.096   6.727   9.583  1.00  0.00     0.126 A 
HETATM    6  C5  UNL     1      22.306   5.981  10.337  1.00  0.00    -0.029 A 
HETATM    7  C16 UNL     1      22.791   5.692  11.699  1.00  0.00     0.054 A 
HETATM    8  C17 UNL     1      23.943   6.142  12.157  1.00  0.00     0.167 A 
HETATM    9  O2  UNL     1      24.726   6.916  11.323  1.00  0.00    -0.230 OA
BRANCH   6  10
HETATM   10  C6  UNL     1      20.995   5.448   9.867  1.00  0.00    -0.011 C 
HETATM   11  C7  UNL     1      20.150   6.658   9.493  1.00  0.00     0.019 C 
HETATM   12  C8  UNL     1      18.829   6.211   8.908  1.00  0.00    -0.013 C 
HETATM   13  C9  UNL     1      19.110   5.351   7.696  1.00  0.00     0.009 C 
HETATM   14  C13 UNL     1      18.089   5.449   9.975  1.00  0.00     0.009 C 
HETATM   15  C10 UNL     1      19.847   4.123   8.136  1.00  0.00    -0.013 C 
HETATM   16  C11 UNL     1      19.106   3.368   9.200  1.00  0.00     0.009 C 
HETATM   17  C15 UNL     1      21.199   4.553   8.671  1.00  0.00     0.019 C 
HETATM   18  C12 UNL     1      18.928   4.278  10.385  1.00  0.00    -0.013 C 
HETATM   19  C14 UNL     1      20.274   4.684  10.926  1.00  0.00     0.019 C 
ENDBRANCH   6  10
BRANCH   8  20
HETATM   20  C18 UNL     1      24.368   5.810  13.543  1.00  0.00     0.277 C 
HETATM   21  O1  UNL     1      25.500   5.292  13.701  1.00  0.00    -0.265 OA
HETATM   22  N2  UNL     1      23.458   6.107  14.574  1.00  0.00    -0.355 N 
ATOM     23  H2  UNL     1      22.561   6.536  14.344  1.00  0.00     0.162 HD
BRANCH  22  24
HETATM   24  C19 UNL     1      23.770   5.815  15.951  1.00  0.00     0.123 C 
BRANCH  24  25
HETATM   25  C20 UNL     1      24.014   7.090  16.706  1.00  0.00     0.024 C 
BRANCH  25  26
HETATM   26  C21 UNL     1      24.550   6.761  18.085  1.00  0.00    -0.010 C 
HETATM   27  C22 UNL     1      23.938   5.447  18.578  1.00  0.00     0.032 C 
HETATM   28  C23 UNL     1      24.370   5.276  20.014  1.00  0.00     0.232 C 
HETATM   29  N3  UNL     1      25.806   5.252  20.151  1.00  0.00    -0.075 N 
HETATM   30  C24 UNL     1      26.413   6.431  19.611  1.00  0.00     0.232 C 
ATOM     31  H32 UNL     1      26.083   5.103  21.121  1.00  0.00     0.277 HD
ATOM     32  H31 UNL     1      26.203   4.408  19.738  1.00  0.00     0.277 HD
HETATM   33  C25 UNL     1      26.039   6.537  18.124  1.00  0.00     0.032 C 
ENDBRANCH  25  26
ENDBRANCH  24  25
ENDBRANCH  22  24
ENDBRANCH   8  20
ENDBRANCH   3   4
TORSDOF 6
ENDMDL
MODEL 5
REMARK VINA RESULT: -8.113130350      1.093      1.593
REMARK  6 active torsions:
REMARK  status: ('A' for Active; 'I' for Inactive)
REMARK    1  A    between atoms: C3_3  and  N1_4 
REMARK    2  A    between atoms: C5_6  and  C6_7 
REMARK    3  A    between atoms: C17_18  and  C18_19 
REMARK       I    between atoms: C18_19  and  N2_21 
REMARK    4  A    between atoms: N2_21  and  C19_23 
REMARK    5  A    between atoms: C19_23  and  C20_24 
REMARK    6  A    between atoms: C20_24  and  C21_25 
ROOT
HETATM    1  C1  UNL     1      19.849   3.686  10.034  1.00  0.00     0.014 C 
HETATM    2  C2  UNL     1      20.926   3.682  10.570  1.00  0.00    -0.095 C 
HETATM    3  C3  UNL     1      22.223   3.659  11.206  1.00  0.00     0.248 C 
ENDROOT
BRANCH   3   4
HETATM    4  N1  UNL     1      22.772   5.001  11.412  1.00  0.00    -0.252 N 
HETATM    5  C4  UNL     1      23.045   5.468  12.748  1.00  0.00     0.126 A 
HETATM    6  C5  UNL     1      23.542   6.668  12.995  1.00  0.00    -0.029 A 
HETATM    7  C16 UNL     1      23.805   7.517  11.819  1.00  0.00     0.054 A 
HETATM    8  C17 UNL     1      23.565   7.120  10.584  1.00  0.00     0.167 A 
HETATM    9  O2  UNL     1      23.047   5.855  10.388  1.00  0.00    -0.230 OA
BRANCH   6  10
HETATM   10  C6  UNL     1      23.829   7.165  14.371  1.00  0.00    -0.011 C 
HETATM   11  C7  UNL     1      22.768   6.556  15.277  1.00  0.00     0.019 C 
HETATM   12  C8  UNL     1      23.038   6.925  16.719  1.00  0.00    -0.013 C 
HETATM   13  C9  UNL     1      24.417   6.428  17.089  1.00  0.00     0.009 C 
HETATM   14  C13 UNL     1      22.935   8.423  16.836  1.00  0.00     0.009 C 
HETATM   15  C10 UNL     1      25.430   7.137  16.245  1.00  0.00    -0.013 C 
HETATM   16  C11 UNL     1      25.322   8.629  16.364  1.00  0.00     0.009 C 
HETATM   17  C15 UNL     1      25.207   6.729  14.801  1.00  0.00     0.019 C 
HETATM   18  C12 UNL     1      23.945   9.039  15.917  1.00  0.00    -0.013 C 
HETATM   19  C14 UNL     1      23.737   8.650  14.476  1.00  0.00     0.019 C 
ENDBRANCH   6  10
BRANCH   8  20
HETATM   20  C18 UNL     1      23.855   8.032   9.446  1.00  0.00     0.277 C 
HETATM   21  O1  UNL     1      23.042   8.961   9.217  1.00  0.00    -0.265 OA
HETATM   22  N2  UNL     1      25.027   7.777   8.710  1.00  0.00    -0.355 N 
ATOM     23  H2  UNL     1      25.629   6.998   8.980  1.00  0.00     0.162 HD
BRANCH  22  24
HETATM   24  C19 UNL     1      25.392   8.597   7.583  1.00  0.00     0.123 C 
BRANCH  24  25
HETATM   25  C20 UNL     1      26.168   7.786   6.585  1.00  0.00     0.024 C 
BRANCH  25  26
HETATM   26  C21 UNL     1      25.313   7.552   5.356  1.00  0.00    -0.010 C 
HETATM   27  C22 UNL     1      23.838   7.764   5.705  1.00  0.00     0.032 C 
HETATM   28  C23 UNL     1      23.038   7.340   4.496  1.00  0.00     0.232 C 
HETATM   29  N3  UNL     1      23.396   8.091   3.318  1.00  0.00    -0.075 N 
HETATM   30  C24 UNL     1      24.792   7.987   3.022  1.00  0.00     0.232 C 
ATOM     31  H32 UNL     1      22.826   7.819   2.517  1.00  0.00     0.277 HD
ATOM     32  H31 UNL     1      23.105   9.066   3.397  1.00  0.00     0.277 HD
HETATM   33  C25 UNL     1      25.589   8.511   4.228  1.00  0.00     0.032 C 
ENDBRANCH  25  26
ENDBRANCH  24  25
ENDBRANCH  22  24
ENDBRANCH   8  20
ENDBRANCH   3   4
TORSDOF 6
ENDMDL
