MODEL 1
REMARK VINA RESULT: -7.393963363      0.000      0.000
REMARK  11 active torsions:
REMARK  status: ('A' for Active; 'I' for Inactive)
REMARK    1  A    between atoms: C2_2  and  O1_3 
REMARK    2  A    between atoms: O1_3  and  C3_4 
REMARK    3  A    between atoms: C3_4  and  C4_6 
REMARK    4  A    between atoms: C5_7  and  O3_8 
REMARK    5  A    between atoms: O3_8  and  C6_9 
REMARK       I    between atoms: C6_9  and  N1_11 
REMARK    6  A    between atoms: N1_11  and  C7_12 
REMARK    7  A    between atoms: C7_12  and  C8_13 
REMARK    8  A    between atoms: C13_18  and  C14_19 
REMARK       I    between atoms: C14_19  and  N2_21 
REMARK    9  A    between atoms: N2_21  and  N3_23 
REMARK       I    between atoms: N4_28  and  C17_29 
REMARK   10  A    between atoms: C17_29  and  O7_31 
REMARK   11  A    between atoms: O7_31  and  C18_32 
ROOT
HETATM    1  C4  UNL     1      43.270  51.098  22.047  1.00  0.00     0.220 C 
HETATM    2  C5  UNL     1      41.876  50.595  22.161  1.00  0.00     0.179 C 
HETATM    3  C15 UNL     1      41.684  50.796  23.708  1.00  0.00     0.121 A 
HETATM    4  C16 UNL     1      42.453  52.002  23.983  1.00  0.00     0.176 A 
HETATM    5  N4  UNL     1      43.248  52.309  22.833  1.00  0.00    -0.300 N 
HETATM    6  C17 UNL     1      43.964  53.489  22.529  1.00  0.00     0.365 C 
HETATM    7  O6  UNL     1      44.796  53.545  21.548  1.00  0.00    -0.238 OA
HETATM    8  C22 UNL     1      40.998  52.118  24.078  1.00  0.00     0.272 A 
HETATM    9  F1  UNL     1      40.292  52.711  23.029  1.00  0.00    -0.203 F 
HETATM   10  F2  UNL     1      40.408  52.197  25.323  1.00  0.00    -0.203 F 
ENDROOT
BRANCH   2  11
HETATM   11  O3  UNL     1      41.708  49.280  21.851  1.00  0.00    -0.284 OA
BRANCH  11  12
HETATM   12  C6  UNL     1      40.637  48.426  21.904  1.00  0.00     0.439 C 
HETATM   13  O4  UNL     1      39.690  48.887  22.606  1.00  0.00    -0.221 OA
HETATM   14  N1  UNL     1      40.710  47.216  21.233  1.00  0.00    -0.362 NA
BRANCH  14  15
HETATM   15  C7  UNL     1      40.777  46.045  20.587  1.00  0.00     0.171 C 
BRANCH  15  16
HETATM   16  C8  UNL     1      41.018  46.043  19.115  1.00  0.00     0.076 C 
HETATM   17  C9  UNL     1      40.206  44.984  18.358  1.00  0.00     0.016 C 
HETATM   18  C10 UNL     1      40.863  43.643  18.683  1.00  0.00     0.005 C 
HETATM   19  C11 UNL     1      42.297  43.622  18.258  1.00  0.00     0.028 C 
HETATM   20  C12 UNL     1      42.920  44.944  18.241  1.00  0.00    -0.013 C 
HETATM   21  C13 UNL     1      42.378  46.081  18.618  1.00  0.00     0.018 C 
BRANCH  21  22
HETATM   22  C14 UNL     1      43.062  47.384  18.458  1.00  0.00     0.266 C 
HETATM   23  O5  UNL     1      43.276  47.904  17.313  1.00  0.00    -0.266 OA
HETATM   24  N2  UNL     1      43.502  48.115  19.585  1.00  0.00    -0.273 N 
ATOM     25  H2  UNL     1      43.362  47.726  20.518  1.00  0.00     0.189 HD
BRANCH  24  26
HETATM   26  N3  UNL     1      44.118  49.341  19.451  1.00  0.00    -0.342 N 
ATOM     27  H32 UNL     1      44.963  49.519  19.995  1.00  0.00     0.176 HD
ATOM     28  H31 UNL     1      43.747  50.058  18.827  1.00  0.00     0.176 HD
ENDBRANCH  24  26
ENDBRANCH  21  22
ENDBRANCH  15  16
ENDBRANCH  14  15
ENDBRANCH  11  12
ENDBRANCH   2  11
BRANCH   1  29
HETATM   29  C3  UNL     1      44.197  50.179  22.805  1.00  0.00     0.284 C 
HETATM   30  O2  UNL     1      44.913  50.607  23.735  1.00  0.00    -0.263 OA
BRANCH  29  31
HETATM   31  O1  UNL     1      44.255  48.861  22.493  1.00  0.00    -0.320 OA
BRANCH  31  32
HETATM   32  C2  UNL     1      45.161  47.873  22.936  1.00  0.00     0.174 C 
HETATM   33  C1  UNL     1      46.341  47.805  21.969  1.00  0.00     0.034 C 
ENDBRANCH  31  32
ENDBRANCH  29  31
ENDBRANCH   1  29
BRANCH   6  34
HETATM   34  O7  UNL     1      43.845  54.668  23.249  1.00  0.00    -0.294 OA
BRANCH  34  35
HETATM   35  C18 UNL     1      42.822  55.617  23.055  1.00  0.00     0.061 C 
HETATM   36  C19 UNL     1      41.807  55.287  22.024  1.00  0.00     0.046 C 
HETATM   37  C20 UNL     1      43.418  56.988  22.755  1.00  0.00     0.046 C 
HETATM   38  C21 UNL     1      42.094  55.755  24.401  1.00  0.00     0.046 C 
ENDBRANCH  34  35
ENDBRANCH   6  34
TORSDOF 11
ENDMDL
MODEL 2
REMARK VINA RESULT: -7.346430262      3.694      7.890
REMARK  11 active torsions:
REMARK  status: ('A' for Active; 'I' for Inactive)
REMARK    1  A    between atoms: C2_2  and  O1_3 
REMARK    2  A    between atoms: O1_3  and  C3_4 
REMARK    3  A    between atoms: C3_4  and  C4_6 
REMARK    4  A    between atoms: C5_7  and  O3_8 
REMARK    5  A    between atoms: O3_8  and  C6_9 
REMARK       I    between atoms: C6_9  and  N1_11 
REMARK    6  A    between atoms: N1_11  and  C7_12 
REMARK    7  A    between atoms: C7_12  and  C8_13 
REMARK    8  A    between atoms: C13_18  and  C14_19 
REMARK       I    between atoms: C14_19  and  N2_21 
REMARK    9  A    between atoms: N2_21  and  N3_23 
REMARK       I    between atoms: N4_28  and  C17_29 
REMARK   10  A    between atoms: C17_29  and  O7_31 
REMARK   11  A    between atoms: O7_31  and  C18_32 
ROOT
HETATM    1  C4  UNL     1      43.125  48.893  18.068  1.00  0.00     0.220 C 
HETATM    2  C5  UNL     1      44.091  48.189  18.951  1.00  0.00     0.179 C 
HETATM    3  C15 UNL     1      43.111  47.834  20.127  1.00  0.00     0.121 A 
HETATM    4  C16 UNL     1      41.849  47.584  19.443  1.00  0.00     0.176 A 
HETATM    5  N4  UNL     1      41.971  48.028  18.087  1.00  0.00    -0.300 N 
HETATM    6  C17 UNL     1      41.116  47.787  16.987  1.00  0.00     0.365 C 
HETATM    7  O6  UNL     1      41.250  48.417  15.873  1.00  0.00    -0.238 OA
HETATM    8  C22 UNL     1      42.517  46.422  20.029  1.00  0.00     0.272 A 
HETATM    9  F1  UNL     1      43.230  45.555  19.198  1.00  0.00    -0.203 F 
HETATM   10  F2  UNL     1      42.010  45.867  21.187  1.00  0.00    -0.203 F 
ENDROOT
BRANCH   2  11
HETATM   11  O3  UNL     1      45.108  48.958  19.426  1.00  0.00    -0.284 OA
BRANCH  11  12
HETATM   12  C6  UNL     1      46.382  48.683  19.856  1.00  0.00     0.439 C 
HETATM   13  O4  UNL     1      47.258  49.041  19.016  1.00  0.00    -0.221 OA
HETATM   14  N1  UNL     1      46.556  48.066  21.083  1.00  0.00    -0.362 NA
BRANCH  14  15
HETATM   15  C7  UNL     1      46.731  47.469  22.269  1.00  0.00     0.171 C 
BRANCH  15  16
HETATM   16  C8  UNL     1      46.906  48.314  23.486  1.00  0.00     0.076 C 
HETATM   17  C9  UNL     1      47.936  47.760  24.479  1.00  0.00     0.016 C 
HETATM   18  C10 UNL     1      47.267  46.560  25.148  1.00  0.00     0.005 C 
HETATM   19  C11 UNL     1      46.008  46.960  25.851  1.00  0.00     0.028 C 
HETATM   20  C12 UNL     1      45.363  48.136  25.269  1.00  0.00    -0.013 C 
HETATM   21  C13 UNL     1      45.736  48.794  24.193  1.00  0.00     0.018 C 
BRANCH  21  22
HETATM   22  C14 UNL     1      45.074  50.041  23.750  1.00  0.00     0.266 C 
HETATM   23  O5  UNL     1      44.677  50.931  24.573  1.00  0.00    -0.266 OA
HETATM   24  N2  UNL     1      44.860  50.299  22.377  1.00  0.00    -0.273 N 
ATOM     25  H2  UNL     1      45.151  49.606  21.687  1.00  0.00     0.189 HD
BRANCH  24  26
HETATM   26  N3  UNL     1      44.266  51.468  21.949  1.00  0.00    -0.342 N 
ATOM     27  H32 UNL     1      44.270  52.270  22.578  1.00  0.00     0.176 HD
ATOM     28  H31 UNL     1      43.833  51.539  21.028  1.00  0.00     0.176 HD
ENDBRANCH  24  26
ENDBRANCH  21  22
ENDBRANCH  15  16
ENDBRANCH  14  15
ENDBRANCH  11  12
ENDBRANCH   2  11
BRANCH   1  29
HETATM   29  C3  UNL     1      42.656  50.157  18.747  1.00  0.00     0.284 C 
HETATM   30  O2  UNL     1      41.447  50.346  18.995  1.00  0.00    -0.263 OA
BRANCH  29  31
HETATM   31  O1  UNL     1      43.552  51.106  19.114  1.00  0.00    -0.320 OA
BRANCH  31  32
HETATM   32  C2  UNL     1      44.047  52.205  18.377  1.00  0.00     0.174 C 
HETATM   33  C1  UNL     1      45.563  52.277  18.545  1.00  0.00     0.034 C 
ENDBRANCH  31  32
ENDBRANCH  29  31
ENDBRANCH   1  29
BRANCH   6  34
HETATM   34  O7  UNL     1      40.072  46.874  17.009  1.00  0.00    -0.294 OA
BRANCH  34  35
HETATM   35  C18 UNL     1      40.210  45.504  16.713  1.00  0.00     0.061 C 
HETATM   36  C19 UNL     1      41.500  45.088  16.109  1.00  0.00     0.046 C 
HETATM   37  C20 UNL     1      39.063  45.033  15.826  1.00  0.00     0.046 C 
HETATM   38  C21 UNL     1      40.053  44.753  18.045  1.00  0.00     0.046 C 
ENDBRANCH  34  35
ENDBRANCH   6  34
TORSDOF 11
ENDMDL
MODEL 3
REMARK VINA RESULT: -7.338053517      2.324      3.167
REMARK  11 active torsions:
REMARK  status: ('A' for Active; 'I' for Inactive)
REMARK    1  A    between atoms: C2_2  and  O1_3 
REMARK    2  A    between atoms: O1_3  and  C3_4 
REMARK    3  A    between atoms: C3_4  and  C4_6 
REMARK    4  A    between atoms: C5_7  and  O3_8 
REMARK    5  A    between atoms: O3_8  and  C6_9 
REMARK       I    between atoms: C6_9  and  N1_11 
REMARK    6  A    between atoms: N1_11  and  C7_12 
REMARK    7  A    between atoms: C7_12  and  C8_13 
REMARK    8  A    between atoms: C13_18  and  C14_19 
REMARK       I    between atoms: C14_19  and  N2_21 
REMARK    9  A    between atoms: N2_21  and  N3_23 
REMARK       I    between atoms: N4_28  and  C17_29 
REMARK   10  A    between atoms: C17_29  and  O7_31 
REMARK   11  A    between atoms: O7_31  and  C18_32 
ROOT
HETATM    1  C4  UNL     1      44.597  49.813  22.864  1.00  0.00     0.220 C 
HETATM    2  C5  UNL     1      44.063  49.574  21.497  1.00  0.00     0.179 C 
HETATM    3  C15 UNL     1      42.706  48.888  21.896  1.00  0.00     0.121 A 
HETATM    4  C16 UNL     1      42.337  49.576  23.126  1.00  0.00     0.176 A 
HETATM    5  N4  UNL     1      43.458  50.345  23.573  1.00  0.00    -0.300 N 
HETATM    6  C17 UNL     1      43.515  51.349  24.566  1.00  0.00     0.365 C 
HETATM    7  O6  UNL     1      44.635  51.814  24.998  1.00  0.00    -0.238 OA
HETATM    8  C22 UNL     1      41.517  49.857  21.948  1.00  0.00     0.272 A 
HETATM    9  F1  UNL     1      41.717  51.049  21.248  1.00  0.00    -0.203 F 
HETATM   10  F2  UNL     1      40.252  49.311  21.861  1.00  0.00    -0.203 F 
ENDROOT
BRANCH   2  11
HETATM   11  O3  UNL     1      44.794  48.720  20.731  1.00  0.00    -0.284 OA
BRANCH  11  12
HETATM   12  C6  UNL     1      44.622  48.191  19.477  1.00  0.00     0.439 C 
HETATM   13  O4  UNL     1      45.182  48.888  18.582  1.00  0.00    -0.221 OA
HETATM   14  N1  UNL     1      43.885  47.026  19.336  1.00  0.00    -0.362 NA
BRANCH  14  15
HETATM   15  C7  UNL     1      43.173  45.901  19.195  1.00  0.00     0.171 C 
BRANCH  15  16
HETATM   16  C8  UNL     1      41.878  45.952  18.455  1.00  0.00     0.076 C 
HETATM   17  C9  UNL     1      40.828  44.965  18.981  1.00  0.00     0.016 C 
HETATM   18  C10 UNL     1      41.285  43.583  18.517  1.00  0.00     0.005 C 
HETATM   19  C11 UNL     1      41.384  43.514  17.025  1.00  0.00     0.028 C 
HETATM   20  C12 UNL     1      41.659  44.805  16.399  1.00  0.00    -0.013 C 
HETATM   21  C13 UNL     1      41.888  45.949  17.006  1.00  0.00     0.018 C 
BRANCH  21  22
HETATM   22  C14 UNL     1      42.050  47.224  16.274  1.00  0.00     0.266 C 
HETATM   23  O5  UNL     1      41.180  47.647  15.442  1.00  0.00    -0.266 OA
HETATM   24  N2  UNL     1      43.188  48.038  16.477  1.00  0.00    -0.273 N 
ATOM     25  H2  UNL     1      43.913  47.729  17.125  1.00  0.00     0.189 HD
BRANCH  24  26
HETATM   26  N3  UNL     1      43.339  49.241  15.820  1.00  0.00    -0.342 N 
ATOM     27  H32 UNL     1      43.312  50.099  16.370  1.00  0.00     0.176 HD
ATOM     28  H31 UNL     1      43.475  49.282  14.809  1.00  0.00     0.176 HD
ENDBRANCH  24  26
ENDBRANCH  21  22
ENDBRANCH  15  16
ENDBRANCH  14  15
ENDBRANCH  11  12
ENDBRANCH   2  11
BRANCH   1  29
HETATM   29  C3  UNL     1      44.868  48.487  23.533  1.00  0.00     0.284 C 
HETATM   30  O2  UNL     1      44.831  47.419  22.886  1.00  0.00    -0.263 OA
BRANCH  29  31
HETATM   31  O1  UNL     1      45.173  48.439  24.852  1.00  0.00    -0.320 OA
BRANCH  31  32
HETATM   32  C2  UNL     1      45.369  47.318  25.688  1.00  0.00     0.174 C 
HETATM   33  C1  UNL     1      46.856  46.973  25.724  1.00  0.00     0.034 C 
ENDBRANCH  31  32
ENDBRANCH  29  31
ENDBRANCH   1  29
BRANCH   6  34
HETATM   34  O7  UNL     1      42.395  51.910  25.160  1.00  0.00    -0.294 OA
BRANCH  34  35
HETATM   35  C18 UNL     1      41.606  52.918  24.572  1.00  0.00     0.061 C 
HETATM   36  C19 UNL     1      42.062  53.426  23.255  1.00  0.00     0.046 C 
HETATM   37  C20 UNL     1      41.437  54.089  25.534  1.00  0.00     0.046 C 
HETATM   38  C21 UNL     1      40.203  52.319  24.383  1.00  0.00     0.046 C 
ENDBRANCH  34  35
ENDBRANCH   6  34
TORSDOF 11
ENDMDL
MODEL 4
REMARK VINA RESULT: -7.337447929      3.871      7.864
REMARK  11 active torsions:
REMARK  status: ('A' for Active; 'I' for Inactive)
REMARK    1  A    between atoms: C2_2  and  O1_3 
REMARK    2  A    between atoms: O1_3  and  C3_4 
REMARK    3  A    between atoms: C3_4  and  C4_6 
REMARK    4  A    between atoms: C5_7  and  O3_8 
REMARK    5  A    between atoms: O3_8  and  C6_9 
REMARK       I    between atoms: C6_9  and  N1_11 
REMARK    6  A    between atoms: N1_11  and  C7_12 
REMARK    7  A    between atoms: C7_12  and  C8_13 
REMARK    8  A    between atoms: C13_18  and  C14_19 
REMARK       I    between atoms: C14_19  and  N2_21 
REMARK    9  A    between atoms: N2_21  and  N3_23 
REMARK       I    between atoms: N4_28  and  C17_29 
REMARK   10  A    between atoms: C17_29  and  O7_31 
REMARK   11  A    between atoms: O7_31  and  C18_32 
ROOT
HETATM    1  C4  UNL     1      42.009  48.814  19.362  1.00  0.00     0.220 C 
HETATM    2  C5  UNL     1      43.347  48.210  19.126  1.00  0.00     0.179 C 
HETATM    3  C15 UNL     1      43.062  46.781  19.717  1.00  0.00     0.121 A 
HETATM    4  C16 UNL     1      41.666  46.552  19.370  1.00  0.00     0.176 A 
HETATM    5  N4  UNL     1      41.101  47.785  18.914  1.00  0.00    -0.300 N 
HETATM    6  C17 UNL     1      39.873  48.017  18.255  1.00  0.00     0.365 C 
HETATM    7  O6  UNL     1      39.407  49.204  18.083  1.00  0.00    -0.238 OA
HETATM    8  C22 UNL     1      42.657  45.746  18.658  1.00  0.00     0.272 A 
HETATM    9  F1  UNL     1      43.006  46.094  17.351  1.00  0.00    -0.203 F 
HETATM   10  F2  UNL     1      42.806  44.414  18.988  1.00  0.00    -0.203 F 
ENDROOT
BRANCH   2  11
HETATM   11  O3  UNL     1      44.372  48.787  19.811  1.00  0.00    -0.284 OA
BRANCH  11  12
HETATM   12  C6  UNL     1      45.706  48.497  19.937  1.00  0.00     0.439 C 
HETATM   13  O4  UNL     1      46.359  48.783  18.892  1.00  0.00    -0.221 OA
HETATM   14  N1  UNL     1      46.163  47.944  21.122  1.00  0.00    -0.362 NA
BRANCH  14  15
HETATM   15  C7  UNL     1      46.609  47.408  22.265  1.00  0.00     0.171 C 
BRANCH  15  16
HETATM   16  C8  UNL     1      46.873  48.302  23.430  1.00  0.00     0.076 C 
HETATM   17  C9  UNL     1      47.962  47.779  24.375  1.00  0.00     0.016 C 
HETATM   18  C10 UNL     1      47.328  46.617  25.139  1.00  0.00     0.005 C 
HETATM   19  C11 UNL     1      46.122  47.062  25.905  1.00  0.00     0.028 C 
HETATM   20  C12 UNL     1      45.451  48.219  25.317  1.00  0.00    -0.013 C 
HETATM   21  C13 UNL     1      45.757  48.826  24.191  1.00  0.00     0.018 C 
BRANCH  21  22
HETATM   22  C14 UNL     1      45.077  50.060  23.738  1.00  0.00     0.266 C 
HETATM   23  O5  UNL     1      44.616  50.922  24.556  1.00  0.00    -0.266 OA
HETATM   24  N2  UNL     1      44.919  50.337  22.361  1.00  0.00    -0.273 N 
ATOM     25  H2  UNL     1      45.263  49.665  21.674  1.00  0.00     0.189 HD
BRANCH  24  26
HETATM   26  N3  UNL     1      44.311  51.495  21.925  1.00  0.00    -0.342 N 
ATOM     27  H32 UNL     1      44.284  52.294  22.559  1.00  0.00     0.176 HD
ATOM     28  H31 UNL     1      43.896  51.561  20.996  1.00  0.00     0.176 HD
ENDBRANCH  24  26
ENDBRANCH  21  22
ENDBRANCH  15  16
ENDBRANCH  14  15
ENDBRANCH  11  12
ENDBRANCH   2  11
BRANCH   1  29
HETATM   29  C3  UNL     1      41.760  48.911  20.848  1.00  0.00     0.284 C 
HETATM   30  O2  UNL     1      42.692  48.777  21.669  1.00  0.00    -0.263 OA
BRANCH  29  31
HETATM   31  O1  UNL     1      40.513  49.162  21.315  1.00  0.00    -0.320 OA
BRANCH  31  32
HETATM   32  C2  UNL     1      39.771  48.482  22.306  1.00  0.00     0.174 C 
HETATM   33  C1  UNL     1      38.637  47.706  21.639  1.00  0.00     0.034 C 
ENDBRANCH  31  32
ENDBRANCH  29  31
ENDBRANCH   1  29
BRANCH   6  34
HETATM   34  O7  UNL     1      39.068  47.007  17.748  1.00  0.00    -0.294 OA
BRANCH  34  35
HETATM   35  C18 UNL     1      39.250  46.403  16.489  1.00  0.00     0.061 C 
HETATM   36  C19 UNL     1      40.343  46.952  15.649  1.00  0.00     0.046 C 
HETATM   37  C20 UNL     1      37.947  46.422  15.697  1.00  0.00     0.046 C 
HETATM   38  C21 UNL     1      39.563  44.922  16.756  1.00  0.00     0.046 C 
ENDBRANCH  34  35
ENDBRANCH   6  34
TORSDOF 11
ENDMDL
MODEL 5
REMARK VINA RESULT: -7.329122193      2.347      6.598
REMARK  11 active torsions:
REMARK  status: ('A' for Active; 'I' for Inactive)
REMARK    1  A    between atoms: C2_2  and  O1_3 
REMARK    2  A    between atoms: O1_3  and  C3_4 
REMARK    3  A    between atoms: C3_4  and  C4_6 
REMARK    4  A    between atoms: C5_7  and  O3_8 
REMARK    5  A    between atoms: O3_8  and  C6_9 
REMARK       I    between atoms: C6_9  and  N1_11 
REMARK    6  A    between atoms: N1_11  and  C7_12 
REMARK    7  A    between atoms: C7_12  and  C8_13 
REMARK    8  A    between atoms: C13_18  and  C14_19 
REMARK       I    between atoms: C14_19  and  N2_21 
REMARK    9  A    between atoms: N2_21  and  N3_23 
REMARK       I    between atoms: N4_28  and  C17_29 
REMARK   10  A    between atoms: C17_29  and  O7_31 
REMARK   11  A    between atoms: O7_31  and  C18_32 
ROOT
HETATM    1  C4  UNL     1      42.858  49.645  21.604  1.00  0.00     0.220 C 
HETATM    2  C5  UNL     1      41.828  49.855  22.656  1.00  0.00     0.179 C 
HETATM    3  C15 UNL     1      40.638  50.295  21.728  1.00  0.00     0.121 A 
HETATM    4  C16 UNL     1      40.847  49.503  20.523  1.00  0.00     0.176 A 
HETATM    5  N4  UNL     1      42.146  48.906  20.590  1.00  0.00    -0.300 N 
HETATM    6  C17 UNL     1      42.702  47.881  19.791  1.00  0.00     0.365 C 
HETATM    7  O6  UNL     1      43.953  47.584  19.840  1.00  0.00    -0.238 OA
HETATM    8  C22 UNL     1      39.694  49.146  21.349  1.00  0.00     0.272 A 
HETATM    9  F1  UNL     1      39.777  48.034  22.190  1.00  0.00    -0.203 F 
HETATM   10  F2  UNL     1      38.426  49.484  20.919  1.00  0.00    -0.203 F 
ENDROOT
BRANCH   2  11
HETATM   11  O3  UNL     1      42.101  50.849  23.544  1.00  0.00    -0.284 OA
BRANCH  11  12
HETATM   12  C6  UNL     1      42.963  50.959  24.605  1.00  0.00     0.439 C 
HETATM   13  O4  UNL     1      42.473  51.641  25.552  1.00  0.00    -0.221 OA
HETATM   14  N1  UNL     1      44.208  50.357  24.523  1.00  0.00    -0.362 NA
BRANCH  14  15
HETATM   15  C7  UNL     1      45.413  49.778  24.448  1.00  0.00     0.171 C 
BRANCH  15  16
HETATM   16  C8  UNL     1      45.511  48.370  23.965  1.00  0.00     0.076 C 
HETATM   17  C9  UNL     1      45.053  47.330  24.995  1.00  0.00     0.016 C 
HETATM   18  C10 UNL     1      46.160  47.271  26.048  1.00  0.00     0.005 C 
HETATM   19  C11 UNL     1      47.470  46.880  25.439  1.00  0.00     0.028 C 
HETATM   20  C12 UNL     1      47.593  47.250  24.031  1.00  0.00    -0.013 C 
HETATM   21  C13 UNL     1      46.725  47.926  23.310  1.00  0.00     0.018 C 
BRANCH  21  22
HETATM   22  C14 UNL     1      46.898  48.154  21.858  1.00  0.00     0.266 C 
HETATM   23  O5  UNL     1      47.692  47.452  21.149  1.00  0.00    -0.266 OA
HETATM   24  N2  UNL     1      46.174  49.169  21.192  1.00  0.00    -0.273 N 
ATOM     25  H2  UNL     1      45.538  49.762  21.727  1.00  0.00     0.189 HD
BRANCH  24  26
HETATM   26  N3  UNL     1      46.307  49.376  19.835  1.00  0.00    -0.342 N 
ATOM     27  H32 UNL     1      46.714  48.630  19.271  1.00  0.00     0.176 HD
ATOM     28  H31 UNL     1      46.010  50.248  19.398  1.00  0.00     0.176 HD
ENDBRANCH  24  26
ENDBRANCH  21  22
ENDBRANCH  15  16
ENDBRANCH  14  15
ENDBRANCH  11  12
ENDBRANCH   2  11
BRANCH   1  29
HETATM   29  C3  UNL     1      43.178  50.967  20.948  1.00  0.00     0.284 C 
HETATM   30  O2  UNL     1      43.833  51.017  19.885  1.00  0.00    -0.263 OA
BRANCH  29  31
HETATM   31  O1  UNL     1      42.743  52.125  21.500  1.00  0.00    -0.320 OA
BRANCH  31  32
HETATM   32  C2  UNL     1      43.322  53.412  21.458  1.00  0.00     0.174 C 
HETATM   33  C1  UNL     1      44.499  53.464  22.430  1.00  0.00     0.034 C 
ENDBRANCH  31  32
ENDBRANCH  29  31
ENDBRANCH   1  29
BRANCH   6  34
HETATM   34  O7  UNL     1      41.967  47.121  18.893  1.00  0.00    -0.294 OA
BRANCH  34  35
HETATM   35  C18 UNL     1      41.447  45.843  19.174  1.00  0.00     0.061 C 
HETATM   36  C19 UNL     1      41.134  45.560  20.597  1.00  0.00     0.046 C 
HETATM   37  C20 UNL     1      42.375  44.760  18.636  1.00  0.00     0.046 C 
HETATM   38  C21 UNL     1      40.140  45.719  18.374  1.00  0.00     0.046 C 
ENDBRANCH  34  35
ENDBRANCH   6  34
TORSDOF 11
ENDMDL
