MODEL 1
REMARK VINA RESULT: -6.128272481      0.000      0.000
REMARK  2 active torsions:
REMARK  status: ('A' for Active; 'I' for Inactive)
REMARK    1  A    between atoms: C2_2  and  C3_3 
REMARK    2  A    between atoms: C8_8  and  N1_9 
ROOT
HETATM    1  C3  UNL     1      24.678  38.936  42.886  1.00  0.00     0.038 C 
HETATM    2  C4  UNL     1      25.801  38.239  43.627  1.00  0.00     0.010 C 
HETATM    3  C5  UNL     1      26.876  37.804  42.680  1.00  0.00     0.001 C 
HETATM    4  C6  UNL     1      26.386  37.054  41.488  1.00  0.00     0.002 C 
HETATM    5  C7  UNL     1      25.248  37.805  40.809  1.00  0.00     0.033 C 
HETATM    6  C8  UNL     1      24.147  37.925  41.870  1.00  0.00     0.191 C 
ENDROOT
BRANCH   6   7
HETATM    7  N1  UNL     1      22.891  38.310  41.312  1.00  0.00    -0.074 N 
ATOM      8  H13 UNL     1      22.119  37.995  41.900  1.00  0.00     0.274 HD
ATOM      9  H12 UNL     1      22.754  39.318  41.384  1.00  0.00     0.274 HD
ATOM     10  H11 UNL     1      22.772  37.992  40.350  1.00  0.00     0.274 HD
ENDBRANCH   6   7
BRANCH   1  11
HETATM   11  C2  UNL     1      23.623  39.362  43.811  1.00  0.00    -0.030 C 
HETATM   12  C1  UNL     1      23.296  38.689  44.898  1.00  0.00     0.007 C 
ENDBRANCH   1  11
TORSDOF 2
ENDMDL
MODEL 2
REMARK VINA RESULT: -5.925563282      1.099      3.203
REMARK  2 active torsions:
REMARK  status: ('A' for Active; 'I' for Inactive)
REMARK    1  A    between atoms: C2_2  and  C3_3 
REMARK    2  A    between atoms: C8_8  and  N1_9 
ROOT
HETATM    1  C3  UNL     1      24.589  37.666  42.615  1.00  0.00     0.038 C 
HETATM    2  C4  UNL     1      24.775  38.697  43.710  1.00  0.00     0.010 C 
HETATM    3  C5  UNL     1      23.493  38.932  44.446  1.00  0.00     0.001 C 
HETATM    4  C6  UNL     1      22.315  39.193  43.569  1.00  0.00     0.002 C 
HETATM    5  C7  UNL     1      22.205  38.130  42.483  1.00  0.00     0.033 C 
HETATM    6  C8  UNL     1      23.512  38.224  41.686  1.00  0.00     0.191 C 
ENDROOT
BRANCH   6   7
HETATM    7  N1  UNL     1      23.442  37.529  40.441  1.00  0.00    -0.074 N 
ATOM      8  H13 UNL     1      24.285  37.686  39.888  1.00  0.00     0.274 HD
ATOM      9  H12 UNL     1      23.520  36.522  40.580  1.00  0.00     0.274 HD
ATOM     10  H11 UNL     1      22.605  37.761  39.905  1.00  0.00     0.274 HD
ENDBRANCH   6   7
BRANCH   1  11
HETATM   11  C2  UNL     1      25.844  37.435  41.892  1.00  0.00    -0.030 C 
HETATM   12  C1  UNL     1      27.026  37.414  42.479  1.00  0.00     0.007 C 
ENDBRANCH   1  11
TORSDOF 2
ENDMDL
MODEL 3
REMARK VINA RESULT: -5.663571862      1.110      1.177
REMARK  2 active torsions:
REMARK  status: ('A' for Active; 'I' for Inactive)
REMARK    1  A    between atoms: C2_2  and  C3_3 
REMARK    2  A    between atoms: C8_8  and  N1_9 
ROOT
HETATM    1  C3  UNL     1      24.052  38.577  42.172  1.00  0.00     0.038 C 
HETATM    2  C4  UNL     1      24.922  38.403  43.401  1.00  0.00     0.010 C 
HETATM    3  C5  UNL     1      26.370  38.350  43.026  1.00  0.00     0.001 C 
HETATM    4  C6  UNL     1      26.690  37.399  41.923  1.00  0.00     0.002 C 
HETATM    5  C7  UNL     1      25.765  37.621  40.734  1.00  0.00     0.033 C 
HETATM    6  C8  UNL     1      24.348  37.381  41.268  1.00  0.00     0.191 C 
ENDROOT
BRANCH   6   7
HETATM    7  N1  UNL     1      23.389  37.228  40.223  1.00  0.00    -0.074 N 
ATOM      8  H13 UNL     1      23.652  36.469  39.594  1.00  0.00     0.274 HD
ATOM      9  H12 UNL     1      22.514  36.848  40.583  1.00  0.00     0.274 HD
ATOM     10  H11 UNL     1      23.227  38.093  39.706  1.00  0.00     0.274 HD
ENDBRANCH   6   7
BRANCH   1  11
HETATM   11  C2  UNL     1      22.633  38.628  42.536  1.00  0.00    -0.030 C 
HETATM   12  C1  UNL     1      22.198  39.062  43.705  1.00  0.00     0.007 C 
ENDBRANCH   1  11
TORSDOF 2
ENDMDL
MODEL 4
REMARK VINA RESULT: -5.547665015      1.415      1.775
REMARK  2 active torsions:
REMARK  status: ('A' for Active; 'I' for Inactive)
REMARK    1  A    between atoms: C2_2  and  C3_3 
REMARK    2  A    between atoms: C8_8  and  N1_9 
ROOT
HETATM    1  C3  UNL     1      24.179  38.540  41.933  1.00  0.00     0.038 C 
HETATM    2  C4  UNL     1      24.833  39.477  42.929  1.00  0.00     0.010 C 
HETATM    3  C5  UNL     1      26.311  39.547  42.705  1.00  0.00     0.001 C 
HETATM    4  C6  UNL     1      26.984  38.220  42.596  1.00  0.00     0.002 C 
HETATM    5  C7  UNL     1      26.261  37.329  41.595  1.00  0.00     0.033 C 
HETATM    6  C8  UNL     1      24.836  37.175  42.139  1.00  0.00     0.191 C 
ENDROOT
BRANCH   6   7
HETATM    7  N1  UNL     1      24.120  36.117  41.505  1.00  0.00    -0.074 N 
ATOM      8  H13 UNL     1      23.545  36.471  40.740  1.00  0.00     0.274 HD
ATOM      9  H12 UNL     1      24.751  35.517  40.973  1.00  0.00     0.274 HD
ATOM     10  H11 UNL     1      23.561  35.569  42.160  1.00  0.00     0.274 HD
ENDBRANCH   6   7
BRANCH   1  11
HETATM   11  C2  UNL     1      22.731  38.469  42.151  1.00  0.00    -0.030 C 
HETATM   12  C1  UNL     1      22.141  38.895  43.252  1.00  0.00     0.007 C 
ENDBRANCH   1  11
TORSDOF 2
ENDMDL
MODEL 5
REMARK VINA RESULT: -5.453320364      1.585      3.126
REMARK  2 active torsions:
REMARK  status: ('A' for Active; 'I' for Inactive)
REMARK    1  A    between atoms: C2_2  and  C3_3 
REMARK    2  A    between atoms: C8_8  and  N1_9 
ROOT
HETATM    1  C3  UNL     1      25.030  38.922  42.730  1.00  0.00     0.038 C 
HETATM    2  C4  UNL     1      24.079  39.750  43.571  1.00  0.00     0.010 C 
HETATM    3  C5  UNL     1      22.932  38.918  44.054  1.00  0.00     0.001 C 
HETATM    4  C6  UNL     1      22.255  38.120  42.992  1.00  0.00     0.002 C 
HETATM    5  C7  UNL     1      23.273  37.332  42.178  1.00  0.00     0.033 C 
HETATM    6  C8  UNL     1      24.205  38.384  41.562  1.00  0.00     0.191 C 
ENDROOT
BRANCH   6   7
HETATM    7  N1  UNL     1      25.014  37.850  40.514  1.00  0.00    -0.074 N 
ATOM      8  H13 UNL     1      24.493  37.805  39.638  1.00  0.00     0.274 HD
ATOM      9  H12 UNL     1      25.741  38.510  40.242  1.00  0.00     0.274 HD
ATOM     10  H11 UNL     1      25.414  36.941  40.749  1.00  0.00     0.274 HD
ENDBRANCH   6   7
BRANCH   1  11
HETATM   11  C2  UNL     1      26.154  39.735  42.255  1.00  0.00    -0.030 C 
HETATM   12  C1  UNL     1      26.004  40.896  41.646  1.00  0.00     0.007 C 
ENDBRANCH   1  11
TORSDOF 2
ENDMDL
