MODEL 1
REMARK VINA RESULT: -2.841815916      0.000      0.000
REMARK  2 active torsions:
REMARK  status: ('A' for Active; 'I' for Inactive)
REMARK    1  A    between atoms: N2_3  and  C2_5 
REMARK    2  A    between atoms: C3_9  and  N4_10 
ROOT
HETATM    1  C2  UNL     1      53.453  17.725  18.708  1.00  0.00     0.345 A 
HETATM    2  N3  UNL     1      54.816  17.832  18.193  1.00  0.00    -0.018 N 
ATOM      3  H31 UNL     1      55.261  18.152  17.334  1.00  0.00     0.282 HD
ATOM      4  H32 UNL     1      55.543  17.189  17.879  1.00  0.00     0.282 HD
HETATM    5  C3  UNL     1      54.382  18.447  19.503  1.00  0.00     0.432 A 
ENDROOT
BRANCH   1   6
HETATM    6  N2  UNL     1      52.473  18.328  17.826  1.00  0.00    -0.357 N 
HETATM    7  C1  UNL     1      51.403  17.644  17.569  1.00  0.00     0.186 C 
HETATM    8  N1  UNL     1      50.370  18.114  16.727  1.00  0.00    -0.097 NA
ATOM      9  H2  UNL     1      52.620  19.254  17.424  1.00  0.00     0.162 HD
ENDBRANCH   1   6
BRANCH   5  10
HETATM   10  N4  UNL     1      54.975  17.774  20.654  1.00  0.00    -0.046 N 
ATOM     11  H43 UNL     1      54.284  17.721  21.402  1.00  0.00     0.276 HD
ATOM     12  H42 UNL     1      55.099  16.785  20.433  1.00  0.00     0.276 HD
ATOM     13  H41 UNL     1      55.848  18.143  21.031  1.00  0.00     0.276 HD
ENDBRANCH   5  10
TORSDOF 2
ENDMDL
MODEL 2
REMARK VINA RESULT: -2.782447121      2.070      3.957
REMARK  2 active torsions:
REMARK  status: ('A' for Active; 'I' for Inactive)
REMARK    1  A    between atoms: N2_3  and  C2_5 
REMARK    2  A    between atoms: C3_9  and  N4_10 
ROOT
HETATM    1  C2  UNL     1      54.669  17.699  18.780  1.00  0.00     0.345 A 
HETATM    2  N3  UNL     1      54.812  17.982  20.205  1.00  0.00    -0.018 N 
ATOM      3  H31 UNL     1      55.479  18.470  20.802  1.00  0.00     0.282 HD
ATOM      4  H32 UNL     1      55.025  17.453  21.051  1.00  0.00     0.282 HD
HETATM    5  C3  UNL     1      53.574  18.342  19.416  1.00  0.00     0.432 A 
ENDROOT
BRANCH   1   6
HETATM    6  N2  UNL     1      55.670  18.370  17.973  1.00  0.00    -0.357 N 
HETATM    7  C1  UNL     1      56.547  19.095  18.594  1.00  0.00     0.186 C 
HETATM    8  N1  UNL     1      57.574  19.800  17.930  1.00  0.00    -0.097 NA
ATOM      9  H2  UNL     1      55.683  18.274  16.958  1.00  0.00     0.162 HD
ENDBRANCH   1   6
BRANCH   5  10
HETATM   10  N4  UNL     1      52.422  17.531  19.794  1.00  0.00    -0.046 N 
ATOM     11  H43 UNL     1      51.713  18.132  20.211  1.00  0.00     0.276 HD
ATOM     12  H42 UNL     1      51.942  17.221  18.948  1.00  0.00     0.276 HD
ATOM     13  H41 UNL     1      52.578  16.727  20.402  1.00  0.00     0.276 HD
ENDBRANCH   5  10
TORSDOF 2
ENDMDL
MODEL 3
REMARK VINA RESULT: -2.715646734      2.070      3.696
REMARK  2 active torsions:
REMARK  status: ('A' for Active; 'I' for Inactive)
REMARK    1  A    between atoms: N2_3  and  C2_5 
REMARK    2  A    between atoms: C3_9  and  N4_10 
ROOT
HETATM    1  C2  UNL     1      52.039  17.793  19.254  1.00  0.00     0.345 A 
HETATM    2  N3  UNL     1      50.978  17.236  18.418  1.00  0.00    -0.018 N 
ATOM      3  H31 UNL     1      50.864  16.979  17.438  1.00  0.00     0.282 HD
ATOM      4  H32 UNL     1      50.084  17.553  18.044  1.00  0.00     0.282 HD
HETATM    5  C3  UNL     1      51.466  16.566  19.682  1.00  0.00     0.432 A 
ENDROOT
BRANCH   1   6
HETATM    6  N2  UNL     1      53.299  17.918  18.549  1.00  0.00    -0.357 N 
HETATM    7  C1  UNL     1      54.324  18.328  19.228  1.00  0.00     0.186 C 
HETATM    8  N1  UNL     1      55.608  18.493  18.665  1.00  0.00    -0.097 NA
ATOM      9  H2  UNL     1      53.376  17.691  17.557  1.00  0.00     0.162 HD
ENDBRANCH   1   6
BRANCH   5  10
HETATM   10  N4  UNL     1      50.470  16.604  20.748  1.00  0.00    -0.046 N 
ATOM     11  H43 UNL     1      50.812  17.198  21.502  1.00  0.00     0.276 HD
ATOM     12  H42 UNL     1      49.662  17.139  20.429  1.00  0.00     0.276 HD
ATOM     13  H41 UNL     1      50.150  15.718  21.140  1.00  0.00     0.276 HD
ENDBRANCH   5  10
TORSDOF 2
ENDMDL
MODEL 4
REMARK VINA RESULT: -2.619226629      1.046      1.487
REMARK  2 active torsions:
REMARK  status: ('A' for Active; 'I' for Inactive)
REMARK    1  A    between atoms: N2_3  and  C2_5 
REMARK    2  A    between atoms: C3_9  and  N4_10 
ROOT
HETATM    1  C2  UNL     1      53.273  18.349  18.947  1.00  0.00     0.345 A 
HETATM    2  N3  UNL     1      54.085  17.823  20.041  1.00  0.00    -0.018 N 
ATOM      3  H31 UNL     1      53.971  17.134  20.785  1.00  0.00     0.282 HD
ATOM      4  H32 UNL     1      54.439  18.165  20.934  1.00  0.00     0.282 HD
HETATM    5  C3  UNL     1      54.546  17.822  18.602  1.00  0.00     0.432 A 
ENDROOT
BRANCH   1   6
HETATM    6  N2  UNL     1      52.015  17.644  18.794  1.00  0.00    -0.357 N 
HETATM    7  C1  UNL     1      51.455  17.671  17.626  1.00  0.00     0.186 C 
HETATM    8  N1  UNL     1      50.232  17.026  17.341  1.00  0.00    -0.097 NA
ATOM      9  H2  UNL     1      51.588  17.147  19.576  1.00  0.00     0.162 HD
ENDBRANCH   1   6
BRANCH   5  10
HETATM   10  N4  UNL     1      55.641  18.758  18.372  1.00  0.00    -0.046 N 
ATOM     11  H43 UNL     1      56.125  18.501  17.512  1.00  0.00     0.276 HD
ATOM     12  H42 UNL     1      55.253  19.666  18.113  1.00  0.00     0.276 HD
ATOM     13  H41 UNL     1      56.327  18.889  19.115  1.00  0.00     0.276 HD
ENDBRANCH   5  10
TORSDOF 2
ENDMDL
MODEL 5
REMARK VINA RESULT: -2.589537841      1.435      1.832
REMARK  2 active torsions:
REMARK  status: ('A' for Active; 'I' for Inactive)
REMARK    1  A    between atoms: N2_3  and  C2_5 
REMARK    2  A    between atoms: C3_9  and  N4_10 
ROOT
HETATM    1  C2  UNL     1      51.999  18.162  18.626  1.00  0.00     0.345 A 
HETATM    2  N3  UNL     1      52.020  17.487  19.921  1.00  0.00    -0.018 N 
ATOM      3  H31 UNL     1      51.501  16.736  20.374  1.00  0.00     0.282 HD
ATOM      4  H32 UNL     1      51.777  17.719  20.884  1.00  0.00     0.282 HD
HETATM    5  C3  UNL     1      53.239  17.602  19.035  1.00  0.00     0.432 A 
ENDROOT
BRANCH   1   6
HETATM    6  N2  UNL     1      51.081  17.545  17.688  1.00  0.00    -0.357 N 
HETATM    7  C1  UNL     1      50.943  18.110  16.530  1.00  0.00     0.186 C 
HETATM    8  N1  UNL     1      50.084  17.614  15.526  1.00  0.00    -0.097 NA
ATOM      9  H2  UNL     1      50.564  16.700  17.931  1.00  0.00     0.162 HD
ENDBRANCH   1   6
BRANCH   5  10
HETATM   10  N4  UNL     1      54.247  18.496  19.595  1.00  0.00    -0.046 N 
ATOM     11  H43 UNL     1      53.781  19.253  20.094  1.00  0.00     0.276 HD
ATOM     12  H42 UNL     1      54.723  18.021  20.363  1.00  0.00     0.276 HD
ATOM     13  H41 UNL     1      54.945  18.891  18.965  1.00  0.00     0.276 HD
ENDBRANCH   5  10
TORSDOF 2
ENDMDL
