MODEL 1
REMARK VINA RESULT: -6.588954551      0.000      0.000
REMARK  12 active torsions:
REMARK  status: ('A' for Active; 'I' for Inactive)
REMARK    1  A    between atoms: N1_1  and  C1_4 
REMARK    2  A    between atoms: C3_9  and  N4_10 
REMARK    3  A    between atoms: N4_10  and  C4_12 
REMARK    4  A    between atoms: C4_12  and  N5_13 
REMARK    5  A    between atoms: C4_12  and  O1_17 
REMARK    6  A    between atoms: N8_25  and  C7_27 
REMARK    7  A    between atoms: C7_27  and  S1_28 
REMARK    8  A    between atoms: S1_28  and  C8_29 
REMARK    9  A    between atoms: C8_29  and  C9_30 
REMARK   10  A    between atoms: C10_33  and  N10_34 
REMARK   11  A    between atoms: N10_34  and  C11_36 
REMARK   12  A    between atoms: C14_44  and  N14_45 
ROOT
HETATM    1  C1  UNL     1      27.600  69.202 -12.301  1.00  0.00     0.692 A 
HETATM    2  N2  UNL     1      26.632  68.785 -13.123  1.00  0.00    -0.172 N 
ATOM      3  H2  UNL     1      25.942  68.115 -12.785  1.00  0.00     0.186 HD
HETATM    4  C2  UNL     1      26.552  69.242 -14.407  1.00  0.00     0.188 A 
HETATM    5  N3  UNL     1      27.447  70.125 -14.880  1.00  0.00    -0.067 N 
HETATM    6  C3  UNL     1      28.434  70.546 -14.034  1.00  0.00     0.719 A 
HETATM    7  N6  UNL     1      28.499  70.093 -12.786  1.00  0.00    -0.021 N 
ATOM      8  H6  UNL     1      29.246  70.425 -12.177  1.00  0.00     0.203 HD
HETATM    9  N7  UNL     1      27.146  70.425 -16.201  1.00  0.00    -0.287 N 
ATOM     10  H7  UNL     1      27.688  71.072 -16.773  1.00  0.00     0.187 HD
HETATM   11  C5  UNL     1      26.113  69.799 -16.622  1.00  0.00     0.141 A 
HETATM   12  C6  UNL     1      25.633  68.976 -15.505  1.00  0.00     0.097 A 
HETATM   13  N8  UNL     1      24.625  68.214 -15.545  1.00  0.00    -0.356 N 
ATOM     14  H8  UNL     1      24.146  68.207 -16.445  1.00  0.00     0.166 HD
ENDROOT
BRANCH  13  15
HETATM   15  C7  UNL     1      24.042  67.373 -14.576  1.00  0.00     0.134 C 
BRANCH  15  16
HETATM   16  S1  UNL     1      23.745  65.683 -15.173  1.00  0.00    -0.117 SA
BRANCH  16  17
HETATM   17  C8  UNL     1      25.222  65.167 -16.098  1.00  0.00     0.157 C 
BRANCH  17  18
HETATM   18  C9  UNL     1      25.561  63.738 -15.796  1.00  0.00     0.123 A 
HETATM   19  N9  UNL     1      26.803  63.326 -15.501  1.00  0.00    -0.179 N 
HETATM   20  C10 UNL     1      27.097  62.044 -15.231  1.00  0.00     0.695 A 
ATOM     21  H9  UNL     1      27.555  64.014 -15.481  1.00  0.00     0.185 HD
HETATM   22  N13 UNL     1      26.091  61.152 -15.263  1.00  0.00    -0.023 N 
HETATM   23  C14 UNL     1      24.832  61.526 -15.555  1.00  0.00     0.691 A 
ATOM     24  H13 UNL     1      26.287  60.172 -15.062  1.00  0.00     0.203 HD
HETATM   25  N15 UNL     1      24.583  62.822 -15.819  1.00  0.00    -0.179 N 
ATOM     26  H15 UNL     1      23.630  63.113 -16.041  1.00  0.00     0.185 HD
BRANCH  20  27
HETATM   27  N10 UNL     1      28.256  61.609 -14.948  1.00  0.00    -0.205 N 
ATOM     28  H10 UNL     1      28.760  61.137 -15.698  1.00  0.00     0.179 HD
BRANCH  27  29
HETATM   29  C11 UNL     1      28.935  61.709 -13.687  1.00  0.00     0.218 C 
HETATM   30  C12 UNL     1      29.265  60.351 -13.111  1.00  0.00     0.090 C 
HETATM   31  C13 UNL     1      28.123  60.108 -12.201  1.00  0.00     0.079 C 
HETATM   32  N11 UNL     1      27.515  61.204 -11.965  1.00  0.00    -0.317 N 
HETATM   33  N12 UNL     1      28.118  62.267 -12.638  1.00  0.00    -0.115 NA
ATOM     34  H11 UNL     1      26.696  61.292 -11.364  1.00  0.00     0.181 HD
ENDBRANCH  27  29
ENDBRANCH  20  27
BRANCH  23  35
HETATM   35  N14 UNL     1      23.883  60.634 -15.575  1.00  0.00    -0.234 N 
ATOM     36 2H14 UNL     1      24.051  59.672 -15.282  1.00  0.00     0.174 HD
ATOM     37 1H14 UNL     1      22.949  60.897 -15.891  1.00  0.00     0.174 HD
ENDBRANCH  23  35
ENDBRANCH  17  18
ENDBRANCH  16  17
ENDBRANCH  15  16
ENDBRANCH  13  15
BRANCH   1  38
HETATM   38  N1  UNL     1      27.733  68.816 -11.089  1.00  0.00    -0.234 N 
ATOM     39  H12 UNL     1      27.659  69.518 -10.351  1.00  0.00     0.174 HD
ATOM     40  H11 UNL     1      27.906  67.850 -10.810  1.00  0.00     0.174 HD
ENDBRANCH   1  38
BRANCH   6  41
HETATM   41  N4  UNL     1      29.283  71.394 -14.508  1.00  0.00    -0.172 N 
ATOM     42  H4  UNL     1      29.142  72.389 -14.337  1.00  0.00     0.182 HD
BRANCH  41  43
HETATM   43  C4  UNL     1      30.420  70.968 -15.268  1.00  0.00     0.438 C 
BRANCH  43  44
HETATM   44  N5  UNL     1      31.139  72.095 -15.836  1.00  0.00    -0.034 N 
ATOM     45  H53 UNL     1      30.824  72.296 -16.785  1.00  0.00     0.279 HD
ATOM     46  H52 UNL     1      30.870  72.971 -15.390  1.00  0.00     0.279 HD
ATOM     47  H51 UNL     1      32.149  71.955 -15.801  1.00  0.00     0.279 HD
ENDBRANCH  43  44
BRANCH  43  48
HETATM   48  O1  UNL     1      31.255  70.238 -14.396  1.00  0.00    -0.354 OA
ATOM     49  H1  UNL     1      31.740  69.616 -14.926  1.00  0.00     0.213 HD
ENDBRANCH  43  48
ENDBRANCH  41  43
ENDBRANCH   6  41
TORSDOF 12
ENDMDL
MODEL 2
REMARK VINA RESULT: -6.451042956      5.153     10.151
REMARK  12 active torsions:
REMARK  status: ('A' for Active; 'I' for Inactive)
REMARK    1  A    between atoms: N1_1  and  C1_4 
REMARK    2  A    between atoms: C3_9  and  N4_10 
REMARK    3  A    between atoms: N4_10  and  C4_12 
REMARK    4  A    between atoms: C4_12  and  N5_13 
REMARK    5  A    between atoms: C4_12  and  O1_17 
REMARK    6  A    between atoms: N8_25  and  C7_27 
REMARK    7  A    between atoms: C7_27  and  S1_28 
REMARK    8  A    between atoms: S1_28  and  C8_29 
REMARK    9  A    between atoms: C8_29  and  C9_30 
REMARK   10  A    between atoms: C10_33  and  N10_34 
REMARK   11  A    between atoms: N10_34  and  C11_36 
REMARK   12  A    between atoms: C14_44  and  N14_45 
ROOT
HETATM    1  C1  UNL     1      18.486  65.098 -14.687  1.00  0.00     0.692 A 
HETATM    2  N2  UNL     1      19.754  65.376 -15.005  1.00  0.00    -0.172 N 
ATOM      3  H2  UNL     1      20.309  65.966 -14.386  1.00  0.00     0.186 HD
HETATM    4  C2  UNL     1      20.319  64.882 -16.146  1.00  0.00     0.188 A 
HETATM    5  N3  UNL     1      19.613  64.102 -16.981  1.00  0.00    -0.067 N 
HETATM    6  C3  UNL     1      18.318  63.824 -16.649  1.00  0.00     0.719 A 
HETATM    7  N6  UNL     1      17.781  64.311 -15.535  1.00  0.00    -0.021 N 
ATOM      8  H6  UNL     1      16.812  64.086 -15.312  1.00  0.00     0.203 HD
HETATM    9  N7  UNL     1      20.411  63.736 -18.056  1.00  0.00    -0.287 N 
ATOM     10  H7  UNL     1      20.092  63.145 -18.823  1.00  0.00     0.187 HD
HETATM   11  C5  UNL     1      21.591  64.223 -17.978  1.00  0.00     0.141 A 
HETATM   12  C6  UNL     1      21.643  65.009 -16.740  1.00  0.00     0.097 A 
HETATM   13  N8  UNL     1      22.654  65.643 -16.324  1.00  0.00    -0.356 N 
ATOM     14  H8  UNL     1      23.469  65.571 -16.933  1.00  0.00     0.166 HD
ENDROOT
BRANCH  13  15
HETATM   15  C7  UNL     1      22.864  66.431 -15.174  1.00  0.00     0.134 C 
BRANCH  15  16
HETATM   16  S1  UNL     1      24.577  67.011 -15.000  1.00  0.00    -0.117 SA
BRANCH  16  17
HETATM   17  C8  UNL     1      24.933  67.127 -13.221  1.00  0.00     0.157 C 
BRANCH  17  18
HETATM   18  C9  UNL     1      26.040  68.106 -12.967  1.00  0.00     0.123 A 
HETATM   19  N9  UNL     1      26.399  69.051 -13.849  1.00  0.00    -0.179 N 
HETATM   20  C10 UNL     1      27.391  69.924 -13.613  1.00  0.00     0.695 A 
ATOM     21  H9  UNL     1      25.898  69.108 -14.735  1.00  0.00     0.185 HD
HETATM   22  N13 UNL     1      28.039  69.831 -12.438  1.00  0.00    -0.023 N 
HETATM   23  C14 UNL     1      27.708  68.898 -11.527  1.00  0.00     0.691 A 
ATOM     24  H13 UNL     1      28.796  70.482 -12.234  1.00  0.00     0.203 HD
HETATM   25  N15 UNL     1      26.707  68.043 -11.806  1.00  0.00    -0.179 N 
ATOM     26  H15 UNL     1      26.451  67.332 -11.120  1.00  0.00     0.185 HD
BRANCH  20  27
HETATM   27  N10 UNL     1      27.765  70.832 -14.417  1.00  0.00    -0.205 N 
ATOM     28  H10 UNL     1      28.122  71.691 -13.999  1.00  0.00     0.179 HD
BRANCH  27  29
HETATM   29  C11 UNL     1      27.740  70.783 -15.852  1.00  0.00     0.218 C 
HETATM   30  C12 UNL     1      28.076  72.121 -16.472  1.00  0.00     0.090 C 
HETATM   31  C13 UNL     1      26.737  72.703 -16.711  1.00  0.00     0.079 C 
HETATM   32  N11 UNL     1      25.850  71.788 -16.660  1.00  0.00    -0.317 N 
HETATM   33  N12 UNL     1      26.426  70.545 -16.396  1.00  0.00    -0.115 NA
ATOM     34  H11 UNL     1      24.851  71.943 -16.796  1.00  0.00     0.181 HD
ENDBRANCH  27  29
ENDBRANCH  20  27
BRANCH  23  35
HETATM   35  N14 UNL     1      28.357  68.839 -10.400  1.00  0.00    -0.234 N 
ATOM     36 2H14 UNL     1      29.020  69.565 -10.129  1.00  0.00     0.174 HD
ATOM     37 1H14 UNL     1      28.205  68.052  -9.770  1.00  0.00     0.174 HD
ENDBRANCH  23  35
ENDBRANCH  17  18
ENDBRANCH  16  17
ENDBRANCH  15  16
ENDBRANCH  13  15
BRANCH   1  38
HETATM   38  N1  UNL     1      17.896  65.528 -13.635  1.00  0.00    -0.234 N 
ATOM     39  H12 UNL     1      17.579  66.497 -13.627  1.00  0.00     0.174 HD
ATOM     40  H11 UNL     1      17.723  64.963 -12.804  1.00  0.00     0.174 HD
ENDBRANCH   1  38
BRANCH   6  41
HETATM   41  N4  UNL     1      17.657  63.072 -17.464  1.00  0.00    -0.172 N 
ATOM     42  H4  UNL     1      17.353  63.454 -18.359  1.00  0.00     0.182 HD
BRANCH  41  43
HETATM   43  C4  UNL     1      17.341  61.714 -17.138  1.00  0.00     0.438 C 
BRANCH  43  44
HETATM   44  N5  UNL     1      18.533  60.884 -17.083  1.00  0.00    -0.034 N 
ATOM     45  H53 UNL     1      19.312  61.319 -17.577  1.00  0.00     0.279 HD
ATOM     46  H52 UNL     1      18.930  60.865 -16.144  1.00  0.00     0.279 HD
ATOM     47  H51 UNL     1      18.352  59.942 -17.430  1.00  0.00     0.279 HD
ENDBRANCH  43  44
BRANCH  43  48
HETATM   48  O1  UNL     1      16.690  61.725 -15.887  1.00  0.00    -0.354 OA
ATOM     49  H1  UNL     1      16.565  60.819 -15.626  1.00  0.00     0.213 HD
ENDBRANCH  43  48
ENDBRANCH  41  43
ENDBRANCH   6  41
TORSDOF 12
ENDMDL
MODEL 3
REMARK VINA RESULT: -6.413179084      4.736      6.628
REMARK  12 active torsions:
REMARK  status: ('A' for Active; 'I' for Inactive)
REMARK    1  A    between atoms: N1_1  and  C1_4 
REMARK    2  A    between atoms: C3_9  and  N4_10 
REMARK    3  A    between atoms: N4_10  and  C4_12 
REMARK    4  A    between atoms: C4_12  and  N5_13 
REMARK    5  A    between atoms: C4_12  and  O1_17 
REMARK    6  A    between atoms: N8_25  and  C7_27 
REMARK    7  A    between atoms: C7_27  and  S1_28 
REMARK    8  A    between atoms: S1_28  and  C8_29 
REMARK    9  A    between atoms: C8_29  and  C9_30 
REMARK   10  A    between atoms: C10_33  and  N10_34 
REMARK   11  A    between atoms: N10_34  and  C11_36 
REMARK   12  A    between atoms: C14_44  and  N14_45 
ROOT
HETATM    1  C1  UNL     1      27.551  69.153 -12.235  1.00  0.00     0.692 A 
HETATM    2  N2  UNL     1      26.575  68.720 -13.039  1.00  0.00    -0.172 N 
ATOM      3  H2  UNL     1      25.894  68.050 -12.685  1.00  0.00     0.186 HD
HETATM    4  C2  UNL     1      26.477  69.161 -14.328  1.00  0.00     0.188 A 
HETATM    5  N3  UNL     1      27.359  70.043 -14.823  1.00  0.00    -0.067 N 
HETATM    6  C3  UNL     1      28.354  70.481 -13.995  1.00  0.00     0.719 A 
HETATM    7  N6  UNL     1      28.437  70.043 -12.742  1.00  0.00    -0.021 N 
ATOM      8  H6  UNL     1      29.190  70.387 -12.147  1.00  0.00     0.203 HD
HETATM    9  N7  UNL     1      27.039  70.326 -16.144  1.00  0.00    -0.287 N 
ATOM     10  H7  UNL     1      27.570  70.970 -16.730  1.00  0.00     0.187 HD
HETATM   11  C5  UNL     1      26.006  69.688 -16.544  1.00  0.00     0.141 A 
HETATM   12  C6  UNL     1      25.545  68.876 -15.412  1.00  0.00     0.097 A 
HETATM   13  N8  UNL     1      24.542  68.107 -15.429  1.00  0.00    -0.356 N 
ATOM     14  H8  UNL     1      24.052  68.086 -16.323  1.00  0.00     0.166 HD
ENDROOT
BRANCH  13  15
HETATM   15  C7  UNL     1      23.977  67.274 -14.443  1.00  0.00     0.134 C 
BRANCH  15  16
HETATM   16  S1  UNL     1      22.971  65.925 -15.128  1.00  0.00    -0.117 SA
BRANCH  16  17
HETATM   17  C8  UNL     1      21.318  66.602 -15.472  1.00  0.00     0.157 C 
BRANCH  17  18
HETATM   18  C9  UNL     1      20.383  65.514 -15.908  1.00  0.00     0.123 A 
HETATM   19  N9  UNL     1      19.433  65.002 -15.112  1.00  0.00    -0.179 N 
HETATM   20  C10 UNL     1      18.599  64.029 -15.511  1.00  0.00     0.695 A 
ATOM     21  H9  UNL     1      19.339  65.368 -14.165  1.00  0.00     0.185 HD
HETATM   22  N13 UNL     1      18.739  63.561 -16.763  1.00  0.00    -0.023 N 
HETATM   23  C14 UNL     1      19.679  64.048 -17.593  1.00  0.00     0.691 A 
ATOM     24  H13 UNL     1      18.118  62.821 -17.091  1.00  0.00     0.203 HD
HETATM   25  N15 UNL     1      20.494  65.024 -17.151  1.00  0.00    -0.179 N 
ATOM     26  H15 UNL     1      21.210  65.398 -17.774  1.00  0.00     0.185 HD
BRANCH  20  27
HETATM   27  N10 UNL     1      17.687  63.515 -14.792  1.00  0.00    -0.205 N 
ATOM     28  H10 UNL     1      17.749  62.510 -14.629  1.00  0.00     0.179 HD
BRANCH  27  29
HETATM   29  C11 UNL     1      16.577  64.193 -14.184  1.00  0.00     0.218 C 
HETATM   30  C12 UNL     1      15.258  63.533 -14.517  1.00  0.00     0.090 C 
HETATM   31  C13 UNL     1      14.792  64.326 -15.677  1.00  0.00     0.079 C 
HETATM   32  N11 UNL     1      15.436  65.425 -15.738  1.00  0.00    -0.317 N 
HETATM   33  N12 UNL     1      16.363  65.522 -14.701  1.00  0.00    -0.115 NA
ATOM     34  H11 UNL     1      15.292  66.140 -16.452  1.00  0.00     0.181 HD
ENDBRANCH  27  29
ENDBRANCH  20  27
BRANCH  23  35
HETATM   35  N14 UNL     1      19.785  63.570 -18.800  1.00  0.00    -0.234 N 
ATOM     36 2H14 UNL     1      19.138  62.863 -19.150  1.00  0.00     0.174 HD
ATOM     37 1H14 UNL     1      20.528  63.905 -19.413  1.00  0.00     0.174 HD
ENDBRANCH  23  35
ENDBRANCH  17  18
ENDBRANCH  16  17
ENDBRANCH  15  16
ENDBRANCH  13  15
BRANCH   1  38
HETATM   38  N1  UNL     1      27.701  68.782 -11.020  1.00  0.00    -0.234 N 
ATOM     39  H12 UNL     1      28.047  69.469 -10.349  1.00  0.00     0.174 HD
ATOM     40  H11 UNL     1      27.497  67.843 -10.677  1.00  0.00     0.174 HD
ENDBRANCH   1  38
BRANCH   6  41
HETATM   41  N4  UNL     1      29.192  71.329 -14.489  1.00  0.00    -0.172 N 
ATOM     42  H4  UNL     1      29.029  72.327 -14.356  1.00  0.00     0.182 HD
BRANCH  41  43
HETATM   43  C4  UNL     1      30.346  70.899 -15.219  1.00  0.00     0.438 C 
BRANCH  43  44
HETATM   44  N5  UNL     1      31.079  72.023 -15.776  1.00  0.00    -0.034 N 
ATOM     45  H53 UNL     1      30.448  72.705 -16.199  1.00  0.00     0.279 HD
ATOM     46  H52 UNL     1      31.476  72.609 -15.042  1.00  0.00     0.279 HD
ATOM     47  H51 UNL     1      31.794  71.718 -16.436  1.00  0.00     0.279 HD
ENDBRANCH  43  44
BRANCH  43  48
HETATM   48  O1  UNL     1      31.161  70.174 -14.325  1.00  0.00    -0.354 OA
ATOM     49  H1  UNL     1      31.620  69.515 -14.833  1.00  0.00     0.213 HD
ENDBRANCH  43  48
ENDBRANCH  41  43
ENDBRANCH   6  41
TORSDOF 12
ENDMDL
MODEL 4
REMARK VINA RESULT: -6.309568904      6.620      8.596
REMARK  12 active torsions:
REMARK  status: ('A' for Active; 'I' for Inactive)
REMARK    1  A    between atoms: N1_1  and  C1_4 
REMARK    2  A    between atoms: C3_9  and  N4_10 
REMARK    3  A    between atoms: N4_10  and  C4_12 
REMARK    4  A    between atoms: C4_12  and  N5_13 
REMARK    5  A    between atoms: C4_12  and  O1_17 
REMARK    6  A    between atoms: N8_25  and  C7_27 
REMARK    7  A    between atoms: C7_27  and  S1_28 
REMARK    8  A    between atoms: S1_28  and  C8_29 
REMARK    9  A    between atoms: C8_29  and  C9_30 
REMARK   10  A    between atoms: C10_33  and  N10_34 
REMARK   11  A    between atoms: N10_34  and  C11_36 
REMARK   12  A    between atoms: C14_44  and  N14_45 
ROOT
HETATM    1  C1  UNL     1      25.497  67.505 -13.110  1.00  0.00     0.692 A 
HETATM    2  N2  UNL     1      24.547  67.282 -14.024  1.00  0.00    -0.172 N 
ATOM      3  H2  UNL     1      23.863  66.542 -13.866  1.00  0.00     0.186 HD
HETATM    4  C2  UNL     1      24.479  68.028 -15.165  1.00  0.00     0.188 A 
HETATM    5  N3  UNL     1      25.366  69.008 -15.401  1.00  0.00    -0.067 N 
HETATM    6  C3  UNL     1      26.334  69.230 -14.462  1.00  0.00     0.719 A 
HETATM    7  N6  UNL     1      26.387  68.496 -13.355  1.00  0.00    -0.021 N 
ATOM      8  H6  UNL     1      27.120  68.684 -12.671  1.00  0.00     0.203 HD
HETATM    9  N7  UNL     1      25.080  69.608 -16.619  1.00  0.00    -0.287 N 
ATOM     10  H7  UNL     1      25.619  70.379 -17.012  1.00  0.00     0.187 HD
HETATM   11  C5  UNL     1      24.064  69.087 -17.194  1.00  0.00     0.141 A 
HETATM   12  C6  UNL     1      23.581  68.018 -16.312  1.00  0.00     0.097 A 
HETATM   13  N8  UNL     1      22.586  67.274 -16.548  1.00  0.00    -0.356 N 
ATOM     14  H8  UNL     1      22.120  67.474 -17.433  1.00  0.00     0.166 HD
ENDROOT
BRANCH  13  15
HETATM   15  C7  UNL     1      22.003  66.221 -15.816  1.00  0.00     0.134 C 
BRANCH  15  16
HETATM   16  S1  UNL     1      20.330  65.791 -16.380  1.00  0.00    -0.117 SA
BRANCH  16  17
HETATM   17  C8  UNL     1      19.336  65.426 -14.901  1.00  0.00     0.157 C 
BRANCH  17  18
HETATM   18  C9  UNL     1      18.083  64.693 -15.276  1.00  0.00     0.123 A 
HETATM   19  N9  UNL     1      16.856  65.215 -15.130  1.00  0.00    -0.179 N 
HETATM   20  C10 UNL     1      15.740  64.552 -15.469  1.00  0.00     0.695 A 
ATOM     21  H9  UNL     1      16.768  66.156 -14.746  1.00  0.00     0.185 HD
HETATM   22  N13 UNL     1      15.879  63.313 -15.974  1.00  0.00    -0.023 N 
HETATM   23  C14 UNL     1      17.091  62.754 -16.136  1.00  0.00     0.691 A 
ATOM     24  H13 UNL     1      15.046  62.787 -16.239  1.00  0.00     0.203 HD
HETATM   25  N15 UNL     1      18.184  63.455 -15.782  1.00  0.00    -0.179 N 
ATOM     26  H15 UNL     1      19.107  63.038 -15.902  1.00  0.00     0.185 HD
BRANCH  20  27
HETATM   27  N10 UNL     1      14.561  65.006 -15.349  1.00  0.00    -0.205 N 
ATOM     28  H10 UNL     1      14.264  65.691 -16.043  1.00  0.00     0.179 HD
BRANCH  27  29
HETATM   29  C11 UNL     1      13.598  64.659 -14.341  1.00  0.00     0.218 C 
HETATM   30  C12 UNL     1      12.513  63.754 -14.879  1.00  0.00     0.090 C 
HETATM   31  C13 UNL     1      11.443  64.716 -15.226  1.00  0.00     0.079 C 
HETATM   32  N11 UNL     1      11.657  65.831 -14.645  1.00  0.00    -0.317 N 
HETATM   33  N12 UNL     1      12.821  65.783 -13.879  1.00  0.00    -0.115 NA
ATOM     34  H11 UNL     1      11.055  66.650 -14.729  1.00  0.00     0.181 HD
ENDBRANCH  27  29
ENDBRANCH  20  27
BRANCH  23  35
HETATM   35  N14 UNL     1      17.186  61.552 -16.629  1.00  0.00    -0.234 N 
ATOM     36 2H14 UNL     1      16.461  61.166 -17.232  1.00  0.00     0.174 HD
ATOM     37 1H14 UNL     1      18.001  60.979 -16.409  1.00  0.00     0.174 HD
ENDBRANCH  23  35
ENDBRANCH  17  18
ENDBRANCH  16  17
ENDBRANCH  15  16
ENDBRANCH  13  15
BRANCH   1  38
HETATM   38  N1  UNL     1      25.617  66.844 -12.020  1.00  0.00    -0.234 N 
ATOM     39  H12 UNL     1      26.438  66.247 -11.911  1.00  0.00     0.174 HD
ATOM     40  H11 UNL     1      24.946  66.876 -11.253  1.00  0.00     0.174 HD
ENDBRANCH   1  38
BRANCH   6  41
HETATM   41  N4  UNL     1      27.176  70.176 -14.706  1.00  0.00    -0.172 N 
ATOM     42  H4  UNL     1      26.992  70.821 -15.474  1.00  0.00     0.182 HD
BRANCH  41  43
HETATM   43  C4  UNL     1      28.363  70.341 -13.921  1.00  0.00     0.438 C 
BRANCH  43  44
HETATM   44  N5  UNL     1      29.413  71.008 -14.670  1.00  0.00    -0.034 N 
ATOM     45  H53 UNL     1      29.707  70.453 -15.474  1.00  0.00     0.279 HD
ATOM     46  H52 UNL     1      29.056  71.827 -15.163  1.00  0.00     0.279 HD
ATOM     47  H51 UNL     1      30.206  71.250 -14.075  1.00  0.00     0.279 HD
ENDBRANCH  43  44
BRANCH  43  48
HETATM   48  O1  UNL     1      28.010  71.097 -12.784  1.00  0.00    -0.354 OA
ATOM     49  H1  UNL     1      28.803  71.227 -12.276  1.00  0.00     0.213 HD
ENDBRANCH  43  48
ENDBRANCH  41  43
ENDBRANCH   6  41
TORSDOF 12
ENDMDL
MODEL 5
REMARK VINA RESULT: -6.303966574      6.373     10.875
REMARK  12 active torsions:
REMARK  status: ('A' for Active; 'I' for Inactive)
REMARK    1  A    between atoms: N1_1  and  C1_4 
REMARK    2  A    between atoms: C3_9  and  N4_10 
REMARK    3  A    between atoms: N4_10  and  C4_12 
REMARK    4  A    between atoms: C4_12  and  N5_13 
REMARK    5  A    between atoms: C4_12  and  O1_17 
REMARK    6  A    between atoms: N8_25  and  C7_27 
REMARK    7  A    between atoms: C7_27  and  S1_28 
REMARK    8  A    between atoms: S1_28  and  C8_29 
REMARK    9  A    between atoms: C8_29  and  C9_30 
REMARK   10  A    between atoms: C10_33  and  N10_34 
REMARK   11  A    between atoms: N10_34  and  C11_36 
REMARK   12  A    between atoms: C14_44  and  N14_45 
ROOT
HETATM    1  C1  UNL     1      17.705  62.185 -17.041  1.00  0.00     0.692 A 
HETATM    2  N2  UNL     1      18.715  62.839 -16.459  1.00  0.00    -0.172 N 
ATOM      3  H2  UNL     1      19.676  62.590 -16.694  1.00  0.00     0.186 HD
HETATM    4  C2  UNL     1      18.481  63.837 -15.557  1.00  0.00     0.188 A 
HETATM    5  N3  UNL     1      17.227  64.188 -15.228  1.00  0.00    -0.067 N 
HETATM    6  C3  UNL     1      16.201  63.514 -15.827  1.00  0.00     0.719 A 
HETATM    7  N6  UNL     1      16.443  62.546 -16.705  1.00  0.00    -0.021 N 
ATOM      8  H6  UNL     1      15.658  62.060 -17.137  1.00  0.00     0.203 HD
HETATM    9  N7  UNL     1      17.265  65.218 -14.299  1.00  0.00    -0.287 N 
ATOM     10  H7  UNL     1      16.432  65.650 -13.898  1.00  0.00     0.187 HD
HETATM   11  C5  UNL     1      18.458  65.564 -13.999  1.00  0.00     0.141 A 
HETATM   12  C6  UNL     1      19.356  64.706 -14.781  1.00  0.00     0.097 A 
HETATM   13  N8  UNL     1      20.619  64.755 -14.749  1.00  0.00    -0.356 N 
ATOM     14  H8  UNL     1      20.991  65.461 -14.114  1.00  0.00     0.166 HD
ENDROOT
BRANCH  13  15
HETATM   15  C7  UNL     1      21.608  64.014 -15.428  1.00  0.00     0.134 C 
BRANCH  15  16
HETATM   16  S1  UNL     1      22.801  65.054 -16.320  1.00  0.00    -0.117 SA
BRANCH  16  17
HETATM   17  C8  UNL     1      22.537  66.770 -15.779  1.00  0.00     0.157 C 
BRANCH  17  18
HETATM   18  C9  UNL     1      23.778  67.317 -15.139  1.00  0.00     0.123 A 
HETATM   19  N9  UNL     1      24.542  68.260 -15.710  1.00  0.00    -0.179 N 
HETATM   20  C10 UNL     1      25.650  68.745 -15.129  1.00  0.00     0.695 A 
ATOM     21  H9  UNL     1      24.270  68.623 -16.623  1.00  0.00     0.185 HD
HETATM   22  N13 UNL     1      25.992  68.254 -13.925  1.00  0.00    -0.023 N 
HETATM   23  C14 UNL     1      25.251  67.308 -13.319  1.00  0.00     0.691 A 
ATOM     24  H13 UNL     1      26.830  68.605 -13.462  1.00  0.00     0.203 HD
HETATM   25  N15 UNL     1      24.147  66.850 -13.938  1.00  0.00    -0.179 N 
ATOM     26  H15 UNL     1      23.581  66.133 -13.485  1.00  0.00     0.185 HD
BRANCH  20  27
HETATM   27  N10 UNL     1      26.404  69.635 -15.633  1.00  0.00    -0.205 N 
ATOM     28  H10 UNL     1      26.783  69.439 -16.559  1.00  0.00     0.179 HD
BRANCH  27  29
HETATM   29  C11 UNL     1      26.781  70.888 -15.040  1.00  0.00     0.218 C 
HETATM   30  C12 UNL     1      27.814  71.618 -15.867  1.00  0.00     0.090 C 
HETATM   31  C13 UNL     1      29.082  71.209 -15.222  1.00  0.00     0.079 C 
HETATM   32  N11 UNL     1      28.844  70.728 -14.065  1.00  0.00    -0.317 N 
HETATM   33  N12 UNL     1      27.478  70.743 -13.786  1.00  0.00    -0.115 NA
ATOM     34  H11 UNL     1      29.560  70.379 -13.427  1.00  0.00     0.181 HD
ENDBRANCH  27  29
ENDBRANCH  20  27
BRANCH  23  35
HETATM   35  N14 UNL     1      25.612  66.856 -12.152  1.00  0.00    -0.234 N 
ATOM     36 2H14 UNL     1      26.580  66.599 -11.958  1.00  0.00     0.174 HD
ATOM     37 1H14 UNL     1      24.917  66.755 -11.412  1.00  0.00     0.174 HD
ENDBRANCH  23  35
ENDBRANCH  17  18
ENDBRANCH  16  17
ENDBRANCH  15  16
ENDBRANCH  13  15
BRANCH   1  38
HETATM   38  N1  UNL     1      17.853  61.243 -17.894  1.00  0.00    -0.234 N 
ATOM     39  H12 UNL     1      17.640  61.444 -18.872  1.00  0.00     0.174 HD
ATOM     40  H11 UNL     1      18.173  60.302 -17.661  1.00  0.00     0.174 HD
ENDBRANCH   1  38
BRANCH   6  41
HETATM   41  N4  UNL     1      15.004  63.867 -15.499  1.00  0.00    -0.172 N 
ATOM     42  H4  UNL     1      14.550  64.625 -16.009  1.00  0.00     0.182 HD
BRANCH  41  43
HETATM   43  C4  UNL     1      14.299  63.217 -14.435  1.00  0.00     0.438 C 
BRANCH  43  44
HETATM   44  N5  UNL     1      13.012  63.841 -14.183  1.00  0.00    -0.034 N 
ATOM     45  H53 UNL     1      12.263  63.365 -14.686  1.00  0.00     0.279 HD
ATOM     46  H52 UNL     1      12.696  63.671 -13.228  1.00  0.00     0.279 HD
ATOM     47  H51 UNL     1      13.028  64.838 -14.397  1.00  0.00     0.279 HD
ENDBRANCH  43  44
BRANCH  43  48
HETATM   48  O1  UNL     1      14.128  61.868 -14.810  1.00  0.00    -0.354 OA
ATOM     49  H1  UNL     1      14.095  61.355 -14.011  1.00  0.00     0.213 HD
ENDBRANCH  43  48
ENDBRANCH  41  43
ENDBRANCH   6  41
TORSDOF 12
ENDMDL
