MODEL 1
REMARK VINA RESULT: -7.097089591      0.000      0.000
REMARK  19 active torsions:
REMARK  status: ('A' for Active; 'I' for Inactive)
REMARK    1  A    between atoms: C2_2  and  N1_3 
REMARK    2  A    between atoms: N1_3  and  C3_4 
REMARK    3  A    between atoms: N1_3  and  C5_6 
REMARK    4  A    between atoms: N1_3  and  C8_10 
REMARK    5  A    between atoms: C5_6  and  C6_7 
REMARK    6  A    between atoms: C8_10  and  C9_11 
REMARK    7  A    between atoms: C9_11  and  C10_12 
REMARK    8  A    between atoms: C10_12  and  C11_13 
REMARK    9  A    between atoms: C11_13  and  O1_14 
REMARK   10  A    between atoms: O1_14  and  C12_15 
REMARK   11  A    between atoms: C12_15  and  C13_16 
REMARK   12  A    between atoms: C13_16  and  C14_17 
REMARK   13  A    between atoms: C14_17  and  C15_18 
REMARK   14  A    between atoms: C15_18  and  N3_19 
REMARK   15  A    between atoms: N3_19  and  O2_20 
REMARK   16  A    between atoms: N3_19  and  C16_22 
REMARK   17  A    between atoms: C16_22  and  C17_23 
REMARK   18  A    between atoms: C17_23  and  C18_24 
REMARK   19  A    between atoms: C18_24  and  C19_25 
ROOT
HETATM    1  C6  UNL     1      18.517  13.392  59.695  1.00  0.00     0.151 C 
HETATM    2  C7  UNL     1      18.733  14.742  59.236  1.00  0.00     0.060 C 
HETATM    3  N2  UNL     1      18.942  15.823  58.866  1.00  0.00    -0.197 NA
ENDROOT
BRANCH   1   4
HETATM    4  C5  UNL     1      17.272  13.117  60.400  1.00  0.00     0.251 C 
BRANCH   4   5
HETATM    5  N1  UNL     1      17.258  12.746  61.791  1.00  0.00    -0.067 N 
BRANCH   5   6
HETATM    6  C2  UNL     1      16.797  13.850  62.591  1.00  0.00     0.233 C 
HETATM    7  C1  UNL     1      17.920  14.445  63.414  1.00  0.00     0.035 C 
ENDBRANCH   5   6
BRANCH   5   8
HETATM    8  C3  UNL     1      16.505  11.551  61.973  1.00  0.00     0.233 C 
HETATM    9  C4  UNL     1      15.685  11.081  60.822  1.00  0.00     0.035 C 
ENDBRANCH   5   8
BRANCH   5  10
HETATM   10  C8  UNL     1      18.651  12.438  62.094  1.00  0.00     0.237 C 
BRANCH  10  11
HETATM   11  C9  UNL     1      19.051  11.072  62.363  1.00  0.00     0.030 C 
BRANCH  11  12
HETATM   12  C10 UNL     1      20.003  10.373  61.448  1.00  0.00     0.028 C 
BRANCH  12  13
HETATM   13  C11 UNL     1      19.109   9.388  60.645  1.00  0.00     0.167 C 
BRANCH  13  14
HETATM   14  O1  UNL     1      19.966   8.348  60.324  1.00  0.00    -0.391 OA
BRANCH  14  15
HETATM   15  C12 UNL     1      20.939   8.065  61.238  1.00  0.00     0.167 C 
BRANCH  15  16
HETATM   16  C13 UNL     1      22.131   7.461  60.523  1.00  0.00     0.028 C 
BRANCH  16  17
HETATM   17  C14 UNL     1      21.774   6.001  60.278  1.00  0.00     0.024 C 
BRANCH  17  18
HETATM   18  C15 UNL     1      22.491   5.578  58.979  1.00  0.00     0.155 C 
BRANCH  18  19
HETATM   19  N3  UNL     1      21.587   5.324  57.948  1.00  0.00    -0.276 N 
BRANCH  19  20
HETATM   20  O2  UNL     1      22.102   4.567  56.947  1.00  0.00    -0.288 OA
ATOM     21  H2  UNL     1      23.052   4.584  56.908  1.00  0.00     0.244 HD
ENDBRANCH  19  20
BRANCH  19  22
HETATM   22  C16 UNL     1      20.234   5.090  58.141  1.00  0.00     0.090 C 
BRANCH  22  23
HETATM   23  C17 UNL     1      19.239   5.865  57.405  1.00  0.00     0.051 C 
BRANCH  23  24
HETATM   24  C18 UNL     1      19.741   7.019  56.640  1.00  0.00     0.043 C 
BRANCH  24  25
HETATM   25  C19 UNL     1      18.905   8.258  56.940  1.00  0.00    -0.058 A 
HETATM   26  C20 UNL     1      17.574   8.148  57.259  1.00  0.00     0.007 A 
HETATM   27  C21 UNL     1      16.789   9.257  57.543  1.00  0.00     0.001 A 
HETATM   28  C22 UNL     1      17.356  10.513  57.505  1.00  0.00     0.000 A 
HETATM   29  C23 UNL     1      18.685  10.632  57.188  1.00  0.00     0.001 A 
HETATM   30  C24 UNL     1      19.467   9.516  56.904  1.00  0.00     0.007 A 
ENDBRANCH  24  25
ENDBRANCH  23  24
ENDBRANCH  22  23
ENDBRANCH  19  22
ENDBRANCH  18  19
ENDBRANCH  17  18
ENDBRANCH  16  17
ENDBRANCH  15  16
ENDBRANCH  14  15
ENDBRANCH  13  14
ENDBRANCH  12  13
ENDBRANCH  11  12
ENDBRANCH  10  11
ENDBRANCH   5  10
ENDBRANCH   4   5
ENDBRANCH   1   4
TORSDOF 19
ENDMDL
MODEL 2
REMARK VINA RESULT: -7.042812694      5.805      7.602
REMARK  19 active torsions:
REMARK  status: ('A' for Active; 'I' for Inactive)
REMARK    1  A    between atoms: C2_2  and  N1_3 
REMARK    2  A    between atoms: N1_3  and  C3_4 
REMARK    3  A    between atoms: N1_3  and  C5_6 
REMARK    4  A    between atoms: N1_3  and  C8_10 
REMARK    5  A    between atoms: C5_6  and  C6_7 
REMARK    6  A    between atoms: C8_10  and  C9_11 
REMARK    7  A    between atoms: C9_11  and  C10_12 
REMARK    8  A    between atoms: C10_12  and  C11_13 
REMARK    9  A    between atoms: C11_13  and  O1_14 
REMARK   10  A    between atoms: O1_14  and  C12_15 
REMARK   11  A    between atoms: C12_15  and  C13_16 
REMARK   12  A    between atoms: C13_16  and  C14_17 
REMARK   13  A    between atoms: C14_17  and  C15_18 
REMARK   14  A    between atoms: C15_18  and  N3_19 
REMARK   15  A    between atoms: N3_19  and  O2_20 
REMARK   16  A    between atoms: N3_19  and  C16_22 
REMARK   17  A    between atoms: C16_22  and  C17_23 
REMARK   18  A    between atoms: C17_23  and  C18_24 
REMARK   19  A    between atoms: C18_24  and  C19_25 
ROOT
HETATM    1  C6  UNL     1      20.298   9.384  60.866  1.00  0.00     0.151 C 
HETATM    2  C7  UNL     1      20.496   9.272  62.291  1.00  0.00     0.060 C 
HETATM    3  N2  UNL     1      20.658   9.146  63.434  1.00  0.00    -0.197 NA
ENDROOT
BRANCH   1   4
HETATM    4  C5  UNL     1      19.608  10.570  60.378  1.00  0.00     0.251 C 
BRANCH   4   5
HETATM    5  N1  UNL     1      18.284  10.496  59.820  1.00  0.00    -0.067 N 
BRANCH   5   6
HETATM    6  C2  UNL     1      17.317  10.294  60.867  1.00  0.00     0.233 C 
HETATM    7  C1  UNL     1      15.925  10.102  60.305  1.00  0.00     0.035 C 
ENDBRANCH   5   6
BRANCH   5   8
HETATM    8  C3  UNL     1      18.027  11.643  59.014  1.00  0.00     0.233 C 
HETATM    9  C4  UNL     1      18.829  12.866  59.294  1.00  0.00     0.035 C 
ENDBRANCH   5   8
BRANCH   5  10
HETATM   10  C8  UNL     1      18.332   9.339  58.933  1.00  0.00     0.237 C 
BRANCH  10  11
HETATM   11  C9  UNL     1      18.539   9.521  57.511  1.00  0.00     0.030 C 
BRANCH  11  12
HETATM   12  C10 UNL     1      19.438   8.594  56.759  1.00  0.00     0.028 C 
BRANCH  12  13
HETATM   13  C11 UNL     1      18.664   7.247  56.733  1.00  0.00     0.167 C 
BRANCH  13  14
HETATM   14  O1  UNL     1      19.648   6.295  56.943  1.00  0.00    -0.391 OA
BRANCH  14  15
HETATM   15  C12 UNL     1      19.595   5.188  56.146  1.00  0.00     0.167 C 
BRANCH  15  16
HETATM   16  C13 UNL     1      20.039   5.561  54.747  1.00  0.00     0.028 C 
BRANCH  16  17
HETATM   17  C14 UNL     1      19.072   4.861  53.802  1.00  0.00     0.024 C 
BRANCH  17  18
HETATM   18  C15 UNL     1      19.905   4.355  52.605  1.00  0.00     0.155 C 
BRANCH  18  19
HETATM   19  N3  UNL     1      20.364   3.054  52.807  1.00  0.00    -0.276 N 
BRANCH  19  20
HETATM   20  O2  UNL     1      19.440   2.232  53.365  1.00  0.00    -0.288 OA
ATOM     21  H2  UNL     1      18.678   2.088  52.815  1.00  0.00     0.244 HD
ENDBRANCH  19  20
BRANCH  19  22
HETATM   22  C16 UNL     1      21.205   2.383  51.934  1.00  0.00     0.090 C 
BRANCH  22  23
HETATM   23  C17 UNL     1      22.377   3.054  51.376  1.00  0.00     0.051 C 
BRANCH  23  24
HETATM   24  C18 UNL     1      23.200   2.268  50.441  1.00  0.00     0.043 C 
BRANCH  24  25
HETATM   25  C19 UNL     1      22.898   2.670  49.002  1.00  0.00    -0.058 A 
HETATM   26  C20 UNL     1      23.289   1.874  47.953  1.00  0.00     0.007 A 
HETATM   27  C21 UNL     1      23.024   2.210  46.633  1.00  0.00     0.001 A 
HETATM   28  C22 UNL     1      22.346   3.378  46.357  1.00  0.00     0.000 A 
HETATM   29  C23 UNL     1      21.951   4.179  47.399  1.00  0.00     0.001 A 
HETATM   30  C24 UNL     1      22.221   3.836  48.721  1.00  0.00     0.007 A 
ENDBRANCH  24  25
ENDBRANCH  23  24
ENDBRANCH  22  23
ENDBRANCH  19  22
ENDBRANCH  18  19
ENDBRANCH  17  18
ENDBRANCH  16  17
ENDBRANCH  15  16
ENDBRANCH  14  15
ENDBRANCH  13  14
ENDBRANCH  12  13
ENDBRANCH  11  12
ENDBRANCH  10  11
ENDBRANCH   5  10
ENDBRANCH   4   5
ENDBRANCH   1   4
TORSDOF 19
ENDMDL
MODEL 3
REMARK VINA RESULT: -7.028695692      2.952      4.950
REMARK  19 active torsions:
REMARK  status: ('A' for Active; 'I' for Inactive)
REMARK    1  A    between atoms: C2_2  and  N1_3 
REMARK    2  A    between atoms: N1_3  and  C3_4 
REMARK    3  A    between atoms: N1_3  and  C5_6 
REMARK    4  A    between atoms: N1_3  and  C8_10 
REMARK    5  A    between atoms: C5_6  and  C6_7 
REMARK    6  A    between atoms: C8_10  and  C9_11 
REMARK    7  A    between atoms: C9_11  and  C10_12 
REMARK    8  A    between atoms: C10_12  and  C11_13 
REMARK    9  A    between atoms: C11_13  and  O1_14 
REMARK   10  A    between atoms: O1_14  and  C12_15 
REMARK   11  A    between atoms: C12_15  and  C13_16 
REMARK   12  A    between atoms: C13_16  and  C14_17 
REMARK   13  A    between atoms: C14_17  and  C15_18 
REMARK   14  A    between atoms: C15_18  and  N3_19 
REMARK   15  A    between atoms: N3_19  and  O2_20 
REMARK   16  A    between atoms: N3_19  and  C16_22 
REMARK   17  A    between atoms: C16_22  and  C17_23 
REMARK   18  A    between atoms: C17_23  and  C18_24 
REMARK   19  A    between atoms: C18_24  and  C19_25 
ROOT
HETATM    1  C6  UNL     1      19.765   9.588  60.741  1.00  0.00     0.151 C 
HETATM    2  C7  UNL     1      20.360   9.445  62.047  1.00  0.00     0.060 C 
HETATM    3  N2  UNL     1      20.819   9.302  63.105  1.00  0.00    -0.197 NA
ENDROOT
BRANCH   1   4
HETATM    4  C5  UNL     1      19.836  10.901  60.114  1.00  0.00     0.251 C 
BRANCH   4   5
HETATM    5  N1  UNL     1      18.704  11.790  60.093  1.00  0.00    -0.067 N 
BRANCH   5   6
HETATM    6  C2  UNL     1      18.556  12.431  61.373  1.00  0.00     0.233 C 
HETATM    7  C1  UNL     1      17.277  12.005  62.060  1.00  0.00     0.035 C 
ENDBRANCH   5   6
BRANCH   5   8
HETATM    8  C3  UNL     1      18.818  12.702  59.004  1.00  0.00     0.233 C 
HETATM    9  C4  UNL     1      18.854  14.154  59.332  1.00  0.00     0.035 C 
ENDBRANCH   5   8
BRANCH   5  10
HETATM   10  C8  UNL     1      17.568  10.918  59.819  1.00  0.00     0.237 C 
BRANCH  10  11
HETATM   11  C9  UNL     1      16.970  10.896  58.500  1.00  0.00     0.030 C 
BRANCH  11  12
HETATM   12  C10 UNL     1      16.204   9.697  58.042  1.00  0.00     0.028 C 
BRANCH  12  13
HETATM   13  C11 UNL     1      17.299   8.640  57.729  1.00  0.00     0.167 C 
BRANCH  13  14
HETATM   14  O1  UNL     1      18.234   9.340  56.984  1.00  0.00    -0.391 OA
BRANCH  14  15
HETATM   15  C12 UNL     1      19.481   8.792  56.913  1.00  0.00     0.167 C 
BRANCH  15  16
HETATM   16  C13 UNL     1      19.438   7.387  57.479  1.00  0.00     0.028 C 
BRANCH  16  17
HETATM   17  C14 UNL     1      20.791   7.163  58.143  1.00  0.00     0.024 C 
BRANCH  17  18
HETATM   18  C15 UNL     1      20.846   5.677  58.554  1.00  0.00     0.155 C 
BRANCH  18  19
HETATM   19  N3  UNL     1      21.037   4.843  57.453  1.00  0.00    -0.276 N 
BRANCH  19  20
HETATM   20  O2  UNL     1      22.337   4.721  57.083  1.00  0.00    -0.288 OA
ATOM     21  H2  UNL     1      22.737   5.544  56.826  1.00  0.00     0.244 HD
ENDBRANCH  19  20
BRANCH  19  22
HETATM   22  C16 UNL     1      20.315   3.682  57.224  1.00  0.00     0.090 C 
BRANCH  22  23
HETATM   23  C17 UNL     1      19.447   3.572  56.054  1.00  0.00     0.051 C 
BRANCH  23  24
HETATM   24  C18 UNL     1      19.517   4.674  55.080  1.00  0.00     0.043 C 
BRANCH  24  25
HETATM   25  C19 UNL     1      20.416   4.290  53.909  1.00  0.00    -0.058 A 
HETATM   26  C20 UNL     1      20.149   3.173  53.156  1.00  0.00     0.007 A 
HETATM   27  C21 UNL     1      20.946   2.801  52.081  1.00  0.00     0.001 A 
HETATM   28  C22 UNL     1      22.040   3.572  51.753  1.00  0.00     0.000 A 
HETATM   29  C23 UNL     1      22.313   4.690  52.500  1.00  0.00     0.001 A 
HETATM   30  C24 UNL     1      21.511   5.057  53.577  1.00  0.00     0.007 A 
ENDBRANCH  24  25
ENDBRANCH  23  24
ENDBRANCH  22  23
ENDBRANCH  19  22
ENDBRANCH  18  19
ENDBRANCH  17  18
ENDBRANCH  16  17
ENDBRANCH  15  16
ENDBRANCH  14  15
ENDBRANCH  13  14
ENDBRANCH  12  13
ENDBRANCH  11  12
ENDBRANCH  10  11
ENDBRANCH   5  10
ENDBRANCH   4   5
ENDBRANCH   1   4
TORSDOF 19
ENDMDL
MODEL 4
REMARK VINA RESULT: -7.024124161      5.186      7.121
REMARK  19 active torsions:
REMARK  status: ('A' for Active; 'I' for Inactive)
REMARK    1  A    between atoms: C2_2  and  N1_3 
REMARK    2  A    between atoms: N1_3  and  C3_4 
REMARK    3  A    between atoms: N1_3  and  C5_6 
REMARK    4  A    between atoms: N1_3  and  C8_10 
REMARK    5  A    between atoms: C5_6  and  C6_7 
REMARK    6  A    between atoms: C8_10  and  C9_11 
REMARK    7  A    between atoms: C9_11  and  C10_12 
REMARK    8  A    between atoms: C10_12  and  C11_13 
REMARK    9  A    between atoms: C11_13  and  O1_14 
REMARK   10  A    between atoms: O1_14  and  C12_15 
REMARK   11  A    between atoms: C12_15  and  C13_16 
REMARK   12  A    between atoms: C13_16  and  C14_17 
REMARK   13  A    between atoms: C14_17  and  C15_18 
REMARK   14  A    between atoms: C15_18  and  N3_19 
REMARK   15  A    between atoms: N3_19  and  O2_20 
REMARK   16  A    between atoms: N3_19  and  C16_22 
REMARK   17  A    between atoms: C16_22  and  C17_23 
REMARK   18  A    between atoms: C17_23  and  C18_24 
REMARK   19  A    between atoms: C18_24  and  C19_25 
ROOT
HETATM    1  C6  UNL     1      19.521   9.272  60.807  1.00  0.00     0.151 C 
HETATM    2  C7  UNL     1      20.326   9.866  61.847  1.00  0.00     0.060 C 
HETATM    3  N2  UNL     1      20.983  10.311  62.695  1.00  0.00    -0.197 NA
ENDROOT
BRANCH   1   4
HETATM    4  C5  UNL     1      18.436  10.075  60.260  1.00  0.00     0.251 C 
BRANCH   4   5
HETATM    5  N1  UNL     1      18.481  10.591  58.917  1.00  0.00    -0.067 N 
BRANCH   5   6
HETATM    6  C2  UNL     1      17.154  10.645  58.364  1.00  0.00     0.233 C 
HETATM    7  C1  UNL     1      16.115  10.207  59.375  1.00  0.00     0.035 C 
ENDBRANCH   5   6
BRANCH   5   8
HETATM    8  C3  UNL     1      19.164  11.841  58.895  1.00  0.00     0.233 C 
HETATM    9  C4  UNL     1      18.701  12.887  59.848  1.00  0.00     0.035 C 
ENDBRANCH   5   8
BRANCH   5  10
HETATM   10  C8  UNL     1      19.303   9.628  58.191  1.00  0.00     0.237 C 
BRANCH  10  11
HETATM   11  C9  UNL     1      18.701   8.762  57.199  1.00  0.00     0.030 C 
BRANCH  11  12
HETATM   12  C10 UNL     1      19.479   7.622  56.626  1.00  0.00     0.028 C 
BRANCH  12  13
HETATM   13  C11 UNL     1      20.287   7.066  57.831  1.00  0.00     0.167 C 
BRANCH  13  14
HETATM   14  O1  UNL     1      20.786   5.859  57.368  1.00  0.00    -0.391 OA
BRANCH  14  15
HETATM   15  C12 UNL     1      20.271   4.734  57.943  1.00  0.00     0.167 C 
BRANCH  15  16
HETATM   16  C13 UNL     1      20.306   3.602  56.936  1.00  0.00     0.028 C 
BRANCH  16  17
HETATM   17  C14 UNL     1      19.528   4.097  55.724  1.00  0.00     0.024 C 
BRANCH  17  18
HETATM   18  C15 UNL     1      19.908   3.178  54.545  1.00  0.00     0.155 C 
BRANCH  18  19
HETATM   19  N3  UNL     1      19.502   3.712  53.321  1.00  0.00    -0.276 N 
BRANCH  19  20
HETATM   20  O2  UNL     1      18.278   4.295  53.362  1.00  0.00    -0.288 OA
ATOM     21  H2  UNL     1      18.219   5.092  52.847  1.00  0.00     0.244 HD
ENDBRANCH  19  20
BRANCH  19  22
HETATM   22  C16 UNL     1      20.355   4.343  52.429  1.00  0.00     0.090 C 
BRANCH  22  23
HETATM   23  C17 UNL     1      21.686   3.798  52.170  1.00  0.00     0.051 C 
BRANCH  23  24
HETATM   24  C18 UNL     1      22.508   4.517  51.183  1.00  0.00     0.043 C 
BRANCH  24  25
HETATM   25  C19 UNL     1      22.694   3.669  49.929  1.00  0.00    -0.058 A 
HETATM   26  C20 UNL     1      22.071   4.008  48.753  1.00  0.00     0.007 A 
HETATM   27  C21 UNL     1      22.227   3.258  47.594  1.00  0.00     0.001 A 
HETATM   28  C22 UNL     1      23.030   2.139  47.616  1.00  0.00     0.000 A 
HETATM   29  C23 UNL     1      23.656   1.794  48.788  1.00  0.00     0.001 A 
HETATM   30  C24 UNL     1      23.496   2.549  49.946  1.00  0.00     0.007 A 
ENDBRANCH  24  25
ENDBRANCH  23  24
ENDBRANCH  22  23
ENDBRANCH  19  22
ENDBRANCH  18  19
ENDBRANCH  17  18
ENDBRANCH  16  17
ENDBRANCH  15  16
ENDBRANCH  14  15
ENDBRANCH  13  14
ENDBRANCH  12  13
ENDBRANCH  11  12
ENDBRANCH  10  11
ENDBRANCH   5  10
ENDBRANCH   4   5
ENDBRANCH   1   4
TORSDOF 19
ENDMDL
MODEL 5
REMARK VINA RESULT: -6.997258411      1.457      2.027
REMARK  19 active torsions:
REMARK  status: ('A' for Active; 'I' for Inactive)
REMARK    1  A    between atoms: C2_2  and  N1_3 
REMARK    2  A    between atoms: N1_3  and  C3_4 
REMARK    3  A    between atoms: N1_3  and  C5_6 
REMARK    4  A    between atoms: N1_3  and  C8_10 
REMARK    5  A    between atoms: C5_6  and  C6_7 
REMARK    6  A    between atoms: C8_10  and  C9_11 
REMARK    7  A    between atoms: C9_11  and  C10_12 
REMARK    8  A    between atoms: C10_12  and  C11_13 
REMARK    9  A    between atoms: C11_13  and  O1_14 
REMARK   10  A    between atoms: O1_14  and  C12_15 
REMARK   11  A    between atoms: C12_15  and  C13_16 
REMARK   12  A    between atoms: C13_16  and  C14_17 
REMARK   13  A    between atoms: C14_17  and  C15_18 
REMARK   14  A    between atoms: C15_18  and  N3_19 
REMARK   15  A    between atoms: N3_19  and  O2_20 
REMARK   16  A    between atoms: N3_19  and  C16_22 
REMARK   17  A    between atoms: C16_22  and  C17_23 
REMARK   18  A    between atoms: C17_23  and  C18_24 
REMARK   19  A    between atoms: C18_24  and  C19_25 
ROOT
HETATM    1  C6  UNL     1      18.132  15.909  60.692  1.00  0.00     0.151 C 
HETATM    2  C7  UNL     1      18.655  15.290  59.498  1.00  0.00     0.060 C 
HETATM    3  N2  UNL     1      19.050  14.808  58.518  1.00  0.00    -0.197 NA
ENDROOT
BRANCH   1   4
HETATM    4  C5  UNL     1      18.451  15.280  61.966  1.00  0.00     0.251 C 
BRANCH   4   5
HETATM    5  N1  UNL     1      17.425  14.736  62.816  1.00  0.00    -0.067 N 
BRANCH   5   6
HETATM    6  C2  UNL     1      17.681  15.092  64.187  1.00  0.00     0.233 C 
HETATM    7  C1  UNL     1      18.533  16.339  64.286  1.00  0.00     0.035 C 
ENDBRANCH   5   6
BRANCH   5   8
HETATM    8  C3  UNL     1      16.139  15.135  62.350  1.00  0.00     0.233 C 
HETATM    9  C4  UNL     1      15.199  14.056  61.937  1.00  0.00     0.035 C 
ENDBRANCH   5   8
BRANCH   5  10
HETATM   10  C8  UNL     1      17.532  13.293  62.630  1.00  0.00     0.237 C 
BRANCH  10  11
HETATM   11  C9  UNL     1      18.769  12.712  62.150  1.00  0.00     0.030 C 
BRANCH  11  12
HETATM   12  C10 UNL     1      18.772  11.860  60.923  1.00  0.00     0.028 C 
BRANCH  12  13
HETATM   13  C11 UNL     1      19.172  10.449  61.439  1.00  0.00     0.167 C 
BRANCH  13  14
HETATM   14  O1  UNL     1      20.553  10.508  61.531  1.00  0.00    -0.391 OA
BRANCH  14  15
HETATM   15  C12 UNL     1      21.211   9.313  61.506  1.00  0.00     0.167 C 
BRANCH  15  16
HETATM   16  C13 UNL     1      20.689   8.483  60.351  1.00  0.00     0.028 C 
BRANCH  16  17
HETATM   17  C14 UNL     1      21.479   7.182  60.382  1.00  0.00     0.024 C 
BRANCH  17  18
HETATM   18  C15 UNL     1      21.756   6.792  58.915  1.00  0.00     0.155 C 
BRANCH  18  19
HETATM   19  N3  UNL     1      21.129   5.595  58.570  1.00  0.00    -0.276 N 
BRANCH  19  20
HETATM   20  O2  UNL     1      20.488   4.999  59.606  1.00  0.00    -0.288 OA
ATOM     21  H2  UNL     1      19.863   4.336  59.336  1.00  0.00     0.244 HD
ENDBRANCH  19  20
BRANCH  19  22
HETATM   22  C16 UNL     1      20.490   5.375  57.360  1.00  0.00     0.090 C 
BRANCH  22  23
HETATM   23  C17 UNL     1      19.961   6.498  56.590  1.00  0.00     0.051 C 
BRANCH  23  24
HETATM   24  C18 UNL     1      18.553   6.854  56.831  1.00  0.00     0.043 C 
BRANCH  24  25
HETATM   25  C19 UNL     1      18.416   8.356  57.051  1.00  0.00    -0.058 A 
HETATM   26  C20 UNL     1      19.489   9.194  56.866  1.00  0.00     0.007 A 
HETATM   27  C21 UNL     1      19.393  10.566  57.053  1.00  0.00     0.001 A 
HETATM   28  C22 UNL     1      18.187  11.113  57.436  1.00  0.00     0.000 A 
HETATM   29  C23 UNL     1      17.110  10.283  57.623  1.00  0.00     0.001 A 
HETATM   30  C24 UNL     1      17.213   8.908  57.435  1.00  0.00     0.007 A 
ENDBRANCH  24  25
ENDBRANCH  23  24
ENDBRANCH  22  23
ENDBRANCH  19  22
ENDBRANCH  18  19
ENDBRANCH  17  18
ENDBRANCH  16  17
ENDBRANCH  15  16
ENDBRANCH  14  15
ENDBRANCH  13  14
ENDBRANCH  12  13
ENDBRANCH  11  12
ENDBRANCH  10  11
ENDBRANCH   5  10
ENDBRANCH   4   5
ENDBRANCH   1   4
TORSDOF 19
ENDMDL
