MODEL 1
REMARK VINA RESULT: -8.372861269      0.000      0.000
REMARK  18 active torsions:
REMARK  status: ('A' for Active; 'I' for Inactive)
REMARK    1  A    between atoms: C2_2  and  C3_3 
REMARK    2  A    between atoms: C3_3  and  N1_4 
REMARK    3  A    between atoms: N1_4  and  C4_7 
REMARK    4  A    between atoms: C4_7  and  C5_8 
REMARK    5  A    between atoms: C5_8  and  C6_9 
REMARK    6  A    between atoms: C6_9  and  C7_10 
REMARK    7  A    between atoms: C7_10  and  C8_11 
REMARK    8  A    between atoms: C8_11  and  O1_12 
REMARK    9  A    between atoms: O1_12  and  C9_13 
REMARK   10  A    between atoms: C9_13  and  C10_14 
REMARK   11  A    between atoms: C10_14  and  C11_15 
REMARK   12  A    between atoms: C11_15  and  N2_16 
REMARK   13  A    between atoms: C14_19  and  C15_20 
REMARK   14  A    between atoms: C15_20  and  C16_21 
REMARK   15  A    between atoms: C16_21  and  C17_22 
REMARK   16  A    between atoms: C17_22  and  C18_23 
REMARK   17  A    between atoms: C18_23  and  C19_24 
REMARK   18  A    between atoms: C19_24  and  N3_25 
ROOT
HETATM    1  N2  UNL     1      20.243   3.988  53.188  1.00  0.00    -0.366 N 
HETATM    2  C12 UNL     1      20.225   2.726  52.746  1.00  0.00     0.091 A 
HETATM    3  C13 UNL     1      21.158   2.275  51.836  1.00  0.00     0.024 A 
HETATM    4  C14 UNL     1      22.165   3.113  51.334  1.00  0.00    -0.056 A 
HETATM    5  C24 UNL     1      22.166   4.405  51.801  1.00  0.00     0.024 A 
HETATM    6  C25 UNL     1      21.194   4.811  52.725  1.00  0.00     0.091 A 
ENDROOT
BRANCH   1   7
HETATM    7  C11 UNL     1      19.242   4.485  54.158  1.00  0.00     0.130 C 
BRANCH   7   8
HETATM    8  C10 UNL     1      19.745   4.217  55.523  1.00  0.00     0.046 C 
BRANCH   8   9
HETATM    9  C9  UNL     1      20.220   5.359  56.343  1.00  0.00     0.169 C 
BRANCH   9  10
HETATM   10  O1  UNL     1      19.868   6.592  56.065  1.00  0.00    -0.391 OA
BRANCH  10  11
HETATM   11  C8  UNL     1      19.550   7.585  56.871  1.00  0.00     0.167 C 
BRANCH  11  12
HETATM   12  C7  UNL     1      18.083   7.916  57.008  1.00  0.00     0.026 C 
BRANCH  12  13
HETATM   13  C6  UNL     1      18.001   9.424  57.298  1.00  0.00     0.004 C 
BRANCH  13  14
HETATM   14  C5  UNL     1      19.342  10.028  56.995  1.00  0.00     0.027 C 
BRANCH  14  15
HETATM   15  C4  UNL     1      19.591  11.162  57.995  1.00  0.00     0.232 C 
BRANCH  15  16
HETATM   16  N1  UNL     1      18.361  11.781  58.324  1.00  0.00    -0.072 N 
ATOM     17  H12 UNL     1      17.644  11.076  58.500  1.00  0.00     0.277 HD
ATOM     18  H11 UNL     1      17.961  12.235  57.503  1.00  0.00     0.277 HD
BRANCH  16  19
HETATM   19  C3  UNL     1      18.436  12.688  59.402  1.00  0.00     0.259 C 
BRANCH  19  20
HETATM   20  C2  UNL     1      19.048  13.966  59.011  1.00  0.00    -0.010 C 
HETATM   21  C1  UNL     1      18.664  15.142  59.446  1.00  0.00     0.008 C 
ENDBRANCH  19  20
ENDBRANCH  16  19
ENDBRANCH  15  16
ENDBRANCH  14  15
ENDBRANCH  13  14
ENDBRANCH  12  13
ENDBRANCH  11  12
ENDBRANCH  10  11
ENDBRANCH   9  10
ENDBRANCH   8   9
ENDBRANCH   7   8
ENDBRANCH   1   7
BRANCH   4  22
HETATM   22  C15 UNL     1      23.153   2.606  50.351  1.00  0.00     0.038 C 
BRANCH  22  23
HETATM   23  C16 UNL     1      22.635   2.457  48.968  1.00  0.00     0.005 C 
BRANCH  23  24
HETATM   24  C17 UNL     1      22.888   3.552  48.011  1.00  0.00     0.002 C 
BRANCH  24  25
HETATM   25  C18 UNL     1      21.759   3.935  47.134  1.00  0.00     0.020 C 
BRANCH  25  26
HETATM   26  C19 UNL     1      22.297   4.597  45.858  1.00  0.00     0.129 C 
BRANCH  26  27
HETATM   27  N3  UNL     1      21.858   3.867  44.688  1.00  0.00    -0.353 N 
HETATM   28  C20 UNL     1      20.885   4.291  43.899  1.00  0.00     0.093 A 
HETATM   29  C21 UNL     1      20.519   3.548  42.805  1.00  0.00     0.034 A 
HETATM   30  C22 UNL     1      21.159   2.340  42.506  1.00  0.00     0.090 A 
HETATM   31  N4  UNL     1      22.137   1.972  43.352  1.00  0.00    -0.362 N 
HETATM   32  C23 UNL     1      22.493   2.702  44.423  1.00  0.00     0.182 A 
ATOM     33  H4  UNL     1      22.632   1.098  43.173  1.00  0.00     0.165 HD
ENDBRANCH  26  27
ENDBRANCH  25  26
ENDBRANCH  24  25
ENDBRANCH  23  24
ENDBRANCH  22  23
ENDBRANCH   4  22
TORSDOF 18
ENDMDL
MODEL 2
REMARK VINA RESULT: -8.362322107      1.611      2.286
REMARK  18 active torsions:
REMARK  status: ('A' for Active; 'I' for Inactive)
REMARK    1  A    between atoms: C2_2  and  C3_3 
REMARK    2  A    between atoms: C3_3  and  N1_4 
REMARK    3  A    between atoms: N1_4  and  C4_7 
REMARK    4  A    between atoms: C4_7  and  C5_8 
REMARK    5  A    between atoms: C5_8  and  C6_9 
REMARK    6  A    between atoms: C6_9  and  C7_10 
REMARK    7  A    between atoms: C7_10  and  C8_11 
REMARK    8  A    between atoms: C8_11  and  O1_12 
REMARK    9  A    between atoms: O1_12  and  C9_13 
REMARK   10  A    between atoms: C9_13  and  C10_14 
REMARK   11  A    between atoms: C10_14  and  C11_15 
REMARK   12  A    between atoms: C11_15  and  N2_16 
REMARK   13  A    between atoms: C14_19  and  C15_20 
REMARK   14  A    between atoms: C15_20  and  C16_21 
REMARK   15  A    between atoms: C16_21  and  C17_22 
REMARK   16  A    between atoms: C17_22  and  C18_23 
REMARK   17  A    between atoms: C18_23  and  C19_24 
REMARK   18  A    between atoms: C19_24  and  N3_25 
ROOT
HETATM    1  N2  UNL     1      20.590   4.870  54.021  1.00  0.00    -0.366 N 
HETATM    2  C12 UNL     1      21.704   5.051  53.303  1.00  0.00     0.091 A 
HETATM    3  C13 UNL     1      22.080   4.152  52.327  1.00  0.00     0.024 A 
HETATM    4  C14 UNL     1      21.314   3.011  52.040  1.00  0.00    -0.056 A 
HETATM    5  C24 UNL     1      20.174   2.844  52.788  1.00  0.00     0.024 A 
HETATM    6  C25 UNL     1      19.841   3.788  53.768  1.00  0.00     0.091 A 
ENDROOT
BRANCH   1   7
HETATM    7  C11 UNL     1      20.183   5.823  55.076  1.00  0.00     0.130 C 
BRANCH   7   8
HETATM    8  C10 UNL     1      20.042   5.078  56.346  1.00  0.00     0.046 C 
BRANCH   8   9
HETATM    9  C9  UNL     1      20.538   5.703  57.597  1.00  0.00     0.169 C 
BRANCH   9  10
HETATM   10  O1  UNL     1      20.843   6.979  57.648  1.00  0.00    -0.391 OA
BRANCH  10  11
HETATM   11  C8  UNL     1      20.144   8.000  58.099  1.00  0.00     0.167 C 
BRANCH  11  12
HETATM   12  C7  UNL     1      19.386   8.818  57.081  1.00  0.00     0.026 C 
BRANCH  12  13
HETATM   13  C6  UNL     1      17.951   8.267  57.057  1.00  0.00     0.004 C 
BRANCH  13  14
HETATM   14  C5  UNL     1      17.179   8.939  58.156  1.00  0.00     0.027 C 
BRANCH  14  15
HETATM   15  C4  UNL     1      16.015   9.707  57.519  1.00  0.00     0.232 C 
BRANCH  15  16
HETATM   16  N1  UNL     1      15.041   9.992  58.506  1.00  0.00    -0.072 N 
ATOM     17  H12 UNL     1      14.291   9.302  58.476  1.00  0.00     0.277 HD
ATOM     18  H11 UNL     1      14.517  10.831  58.257  1.00  0.00     0.277 HD
BRANCH  16  19
HETATM   19  C3  UNL     1      15.556  10.104  59.815  1.00  0.00     0.259 C 
BRANCH  19  20
HETATM   20  C2  UNL     1      15.571  11.495  60.289  1.00  0.00    -0.010 C 
HETATM   21  C1  UNL     1      16.655  12.208  60.477  1.00  0.00     0.008 C 
ENDBRANCH  19  20
ENDBRANCH  16  19
ENDBRANCH  15  16
ENDBRANCH  14  15
ENDBRANCH  13  14
ENDBRANCH  12  13
ENDBRANCH  11  12
ENDBRANCH  10  11
ENDBRANCH   9  10
ENDBRANCH   8   9
ENDBRANCH   7   8
ENDBRANCH   1   7
BRANCH   4  22
HETATM   22  C15 UNL     1      21.742   2.056  50.990  1.00  0.00     0.038 C 
BRANCH  22  23
HETATM   23  C16 UNL     1      23.187   2.107  50.652  1.00  0.00     0.005 C 
BRANCH  23  24
HETATM   24  C17 UNL     1      23.566   2.533  49.291  1.00  0.00     0.002 C 
BRANCH  24  25
HETATM   25  C18 UNL     1      22.479   2.578  48.287  1.00  0.00     0.020 C 
BRANCH  25  26
HETATM   26  C19 UNL     1      22.574   3.878  47.478  1.00  0.00     0.129 C 
BRANCH  26  27
HETATM   27  N3  UNL     1      22.358   3.614  46.072  1.00  0.00    -0.353 N 
HETATM   28  C20 UNL     1      21.774   4.479  45.259  1.00  0.00     0.093 A 
HETATM   29  C21 UNL     1      21.600   4.163  43.935  1.00  0.00     0.034 A 
HETATM   30  C22 UNL     1      22.031   2.934  43.424  1.00  0.00     0.090 A 
HETATM   31  N4  UNL     1      22.615   2.106  44.307  1.00  0.00    -0.362 N 
HETATM   32  C23 UNL     1      22.784   2.418  45.603  1.00  0.00     0.182 A 
ATOM     33  H4  UNL     1      22.945   1.198  43.979  1.00  0.00     0.165 HD
ENDBRANCH  26  27
ENDBRANCH  25  26
ENDBRANCH  24  25
ENDBRANCH  23  24
ENDBRANCH  22  23
ENDBRANCH   4  22
TORSDOF 18
ENDMDL
MODEL 3
REMARK VINA RESULT: -8.359126392      1.009      1.256
REMARK  18 active torsions:
REMARK  status: ('A' for Active; 'I' for Inactive)
REMARK    1  A    between atoms: C2_2  and  C3_3 
REMARK    2  A    between atoms: C3_3  and  N1_4 
REMARK    3  A    between atoms: N1_4  and  C4_7 
REMARK    4  A    between atoms: C4_7  and  C5_8 
REMARK    5  A    between atoms: C5_8  and  C6_9 
REMARK    6  A    between atoms: C6_9  and  C7_10 
REMARK    7  A    between atoms: C7_10  and  C8_11 
REMARK    8  A    between atoms: C8_11  and  O1_12 
REMARK    9  A    between atoms: O1_12  and  C9_13 
REMARK   10  A    between atoms: C9_13  and  C10_14 
REMARK   11  A    between atoms: C10_14  and  C11_15 
REMARK   12  A    between atoms: C11_15  and  N2_16 
REMARK   13  A    between atoms: C14_19  and  C15_20 
REMARK   14  A    between atoms: C15_20  and  C16_21 
REMARK   15  A    between atoms: C16_21  and  C17_22 
REMARK   16  A    between atoms: C17_22  and  C18_23 
REMARK   17  A    between atoms: C18_23  and  C19_24 
REMARK   18  A    between atoms: C19_24  and  N3_25 
ROOT
HETATM    1  N2  UNL     1      20.470   3.986  53.347  1.00  0.00    -0.366 N 
HETATM    2  C12 UNL     1      20.308   2.799  52.752  1.00  0.00     0.091 A 
HETATM    3  C13 UNL     1      21.175   2.367  51.771  1.00  0.00     0.024 A 
HETATM    4  C14 UNL     1      22.264   3.147  51.352  1.00  0.00    -0.056 A 
HETATM    5  C24 UNL     1      22.412   4.362  51.975  1.00  0.00     0.024 A 
HETATM    6  C25 UNL     1      21.501   4.751  52.966  1.00  0.00     0.091 A 
ENDROOT
BRANCH   1   7
HETATM    7  C11 UNL     1      19.541   4.463  54.396  1.00  0.00     0.130 C 
BRANCH   7   8
HETATM    8  C10 UNL     1      19.869   3.765  55.658  1.00  0.00     0.046 C 
BRANCH   8   9
HETATM    9  C9  UNL     1      20.848   4.388  56.582  1.00  0.00     0.169 C 
BRANCH   9  10
HETATM   10  O1  UNL     1      20.936   5.691  56.706  1.00  0.00    -0.391 OA
BRANCH  10  11
HETATM   11  C8  UNL     1      20.219   6.523  57.434  1.00  0.00     0.167 C 
BRANCH  11  12
HETATM   12  C7  UNL     1      19.156   7.321  56.718  1.00  0.00     0.026 C 
BRANCH  12  13
HETATM   13  C6  UNL     1      18.571   8.298  57.752  1.00  0.00     0.004 C 
BRANCH  13  14
HETATM   14  C5  UNL     1      18.444   9.644  57.097  1.00  0.00     0.027 C 
BRANCH  14  15
HETATM   15  C4  UNL     1      19.852  10.230  56.935  1.00  0.00     0.232 C 
BRANCH  15  16
HETATM   16  N1  UNL     1      20.243  10.858  58.141  1.00  0.00    -0.072 N 
ATOM     17  H12 UNL     1      21.197  11.212  58.065  1.00  0.00     0.277 HD
ATOM     18  H11 UNL     1      20.372  10.165  58.878  1.00  0.00     0.277 HD
BRANCH  16  19
HETATM   19  C3  UNL     1      19.372  11.880  58.574  1.00  0.00     0.259 C 
BRANCH  19  20
HETATM   20  C2  UNL     1      19.144  11.838  60.026  1.00  0.00    -0.010 C 
HETATM   21  C1  UNL     1      19.415  10.811  60.794  1.00  0.00     0.008 C 
ENDBRANCH  19  20
ENDBRANCH  16  19
ENDBRANCH  15  16
ENDBRANCH  14  15
ENDBRANCH  13  14
ENDBRANCH  12  13
ENDBRANCH  11  12
ENDBRANCH  10  11
ENDBRANCH   9  10
ENDBRANCH   8   9
ENDBRANCH   7   8
ENDBRANCH   1   7
BRANCH   4  22
HETATM   22  C15 UNL     1      23.178   2.663  50.290  1.00  0.00     0.038 C 
BRANCH  22  23
HETATM   23  C16 UNL     1      22.602   2.667  48.922  1.00  0.00     0.005 C 
BRANCH  23  24
HETATM   24  C17 UNL     1      22.432   3.968  48.245  1.00  0.00     0.002 C 
BRANCH  24  25
HETATM   25  C18 UNL     1      21.454   4.011  47.135  1.00  0.00     0.020 C 
BRANCH  25  26
HETATM   26  C19 UNL     1      22.079   4.713  45.922  1.00  0.00     0.129 C 
BRANCH  26  27
HETATM   27  N3  UNL     1      21.855   3.937  44.721  1.00  0.00    -0.353 N 
HETATM   28  C20 UNL     1      21.095   4.358  43.724  1.00  0.00     0.093 A 
HETATM   29  C21 UNL     1      20.925   3.571  42.613  1.00  0.00     0.034 A 
HETATM   30  C22 UNL     1      21.546   2.321  42.514  1.00  0.00     0.090 A 
HETATM   31  N4  UNL     1      22.303   1.959  43.564  1.00  0.00    -0.362 N 
HETATM   32  C23 UNL     1      22.466   2.732  44.651  1.00  0.00     0.182 A 
ATOM     33  H4  UNL     1      22.774   1.054  43.535  1.00  0.00     0.165 HD
ENDBRANCH  26  27
ENDBRANCH  25  26
ENDBRANCH  24  25
ENDBRANCH  23  24
ENDBRANCH  22  23
ENDBRANCH   4  22
TORSDOF 18
ENDMDL
MODEL 4
REMARK VINA RESULT: -8.315765146      0.919      1.569
REMARK  18 active torsions:
REMARK  status: ('A' for Active; 'I' for Inactive)
REMARK    1  A    between atoms: C2_2  and  C3_3 
REMARK    2  A    between atoms: C3_3  and  N1_4 
REMARK    3  A    between atoms: N1_4  and  C4_7 
REMARK    4  A    between atoms: C4_7  and  C5_8 
REMARK    5  A    between atoms: C5_8  and  C6_9 
REMARK    6  A    between atoms: C6_9  and  C7_10 
REMARK    7  A    between atoms: C7_10  and  C8_11 
REMARK    8  A    between atoms: C8_11  and  O1_12 
REMARK    9  A    between atoms: O1_12  and  C9_13 
REMARK   10  A    between atoms: C9_13  and  C10_14 
REMARK   11  A    between atoms: C10_14  and  C11_15 
REMARK   12  A    between atoms: C11_15  and  N2_16 
REMARK   13  A    between atoms: C14_19  and  C15_20 
REMARK   14  A    between atoms: C15_20  and  C16_21 
REMARK   15  A    between atoms: C16_21  and  C17_22 
REMARK   16  A    between atoms: C17_22  and  C18_23 
REMARK   17  A    between atoms: C18_23  and  C19_24 
REMARK   18  A    between atoms: C19_24  and  N3_25 
ROOT
HETATM    1  N2  UNL     1      20.169   3.570  52.930  1.00  0.00    -0.366 N 
HETATM    2  C12 UNL     1      21.091   4.384  52.405  1.00  0.00     0.091 A 
HETATM    3  C13 UNL     1      22.087   3.901  51.583  1.00  0.00     0.024 A 
HETATM    4  C14 UNL     1      22.179   2.539  51.257  1.00  0.00    -0.056 A 
HETATM    5  C24 UNL     1      21.223   1.720  51.806  1.00  0.00     0.024 A 
HETATM    6  C25 UNL     1      20.233   2.264  52.635  1.00  0.00     0.091 A 
ENDROOT
BRANCH   1   7
HETATM    7  C11 UNL     1      19.101   4.076  53.820  1.00  0.00     0.130 C 
BRANCH   7   8
HETATM    8  C10 UNL     1      19.220   3.390  55.124  1.00  0.00     0.046 C 
BRANCH   8   9
HETATM    9  C9  UNL     1      19.535   4.198  56.328  1.00  0.00     0.169 C 
BRANCH   9  10
HETATM   10  O1  UNL     1      19.494   5.510  56.299  1.00  0.00    -0.391 OA
BRANCH  10  11
HETATM   11  C8  UNL     1      19.578   6.382  57.283  1.00  0.00     0.167 C 
BRANCH  11  12
HETATM   12  C7  UNL     1      19.496   7.844  56.914  1.00  0.00     0.026 C 
BRANCH  12  13
HETATM   13  C6  UNL     1      18.034   8.268  57.132  1.00  0.00     0.004 C 
BRANCH  13  14
HETATM   14  C5  UNL     1      18.016   9.351  58.173  1.00  0.00     0.027 C 
BRANCH  14  15
HETATM   15  C4  UNL     1      17.639  10.668  57.484  1.00  0.00     0.232 C 
BRANCH  15  16
HETATM   16  N1  UNL     1      18.801  11.455  57.302  1.00  0.00    -0.072 N 
ATOM     17  H12 UNL     1      18.574  12.315  56.803  1.00  0.00     0.277 HD
ATOM     18  H11 UNL     1      19.424  11.019  56.623  1.00  0.00     0.277 HD
BRANCH  16  19
HETATM   19  C3  UNL     1      19.498  11.747  58.494  1.00  0.00     0.259 C 
BRANCH  19  20
HETATM   20  C2  UNL     1      18.798  12.743  59.317  1.00  0.00    -0.010 C 
HETATM   21  C1  UNL     1      18.902  14.041  59.169  1.00  0.00     0.008 C 
ENDBRANCH  19  20
ENDBRANCH  16  19
ENDBRANCH  15  16
ENDBRANCH  14  15
ENDBRANCH  13  14
ENDBRANCH  12  13
ENDBRANCH  11  12
ENDBRANCH  10  11
ENDBRANCH   9  10
ENDBRANCH   8   9
ENDBRANCH   7   8
ENDBRANCH   1   7
BRANCH   4  22
HETATM   22  C15 UNL     1      23.263   2.042  50.376  1.00  0.00     0.038 C 
BRANCH  22  23
HETATM   23  C16 UNL     1      23.502   2.861  49.161  1.00  0.00     0.005 C 
BRANCH  23  24
HETATM   24  C17 UNL     1      22.532   2.757  48.053  1.00  0.00     0.002 C 
BRANCH  24  25
HETATM   25  C18 UNL     1      22.298   3.988  47.264  1.00  0.00     0.020 C 
BRANCH  25  26
HETATM   26  C19 UNL     1      23.201   3.988  46.024  1.00  0.00     0.129 C 
BRANCH  26  27
HETATM   27  N3  UNL     1      22.427   3.696  44.837  1.00  0.00    -0.353 N 
HETATM   28  C20 UNL     1      22.806   2.812  43.930  1.00  0.00     0.093 A 
HETATM   29  C21 UNL     1      22.023   2.585  42.826  1.00  0.00     0.034 A 
HETATM   30  C22 UNL     1      20.821   3.276  42.641  1.00  0.00     0.090 A 
HETATM   31  N4  UNL     1      20.499   4.159  43.603  1.00  0.00    -0.362 N 
HETATM   32  C23 UNL     1      21.269   4.379  44.682  1.00  0.00     0.182 A 
ATOM     33  H4  UNL     1      19.631   4.686  43.508  1.00  0.00     0.165 HD
ENDBRANCH  26  27
ENDBRANCH  25  26
ENDBRANCH  24  25
ENDBRANCH  23  24
ENDBRANCH  22  23
ENDBRANCH   4  22
TORSDOF 18
ENDMDL
MODEL 5
REMARK VINA RESULT: -8.273019560      2.456     12.251
REMARK  18 active torsions:
REMARK  status: ('A' for Active; 'I' for Inactive)
REMARK    1  A    between atoms: C2_2  and  C3_3 
REMARK    2  A    between atoms: C3_3  and  N1_4 
REMARK    3  A    between atoms: N1_4  and  C4_7 
REMARK    4  A    between atoms: C4_7  and  C5_8 
REMARK    5  A    between atoms: C5_8  and  C6_9 
REMARK    6  A    between atoms: C6_9  and  C7_10 
REMARK    7  A    between atoms: C7_10  and  C8_11 
REMARK    8  A    between atoms: C8_11  and  O1_12 
REMARK    9  A    between atoms: O1_12  and  C9_13 
REMARK   10  A    between atoms: C9_13  and  C10_14 
REMARK   11  A    between atoms: C10_14  and  C11_15 
REMARK   12  A    between atoms: C11_15  and  N2_16 
REMARK   13  A    between atoms: C14_19  and  C15_20 
REMARK   14  A    between atoms: C15_20  and  C16_21 
REMARK   15  A    between atoms: C16_21  and  C17_22 
REMARK   16  A    between atoms: C17_22  and  C18_23 
REMARK   17  A    between atoms: C18_23  and  C19_24 
REMARK   18  A    between atoms: C19_24  and  N3_25 
ROOT
HETATM    1  N2  UNL     1      21.739   4.404  52.263  1.00  0.00    -0.366 N 
HETATM    2  C12 UNL     1      20.607   3.693  52.203  1.00  0.00     0.091 A 
HETATM    3  C13 UNL     1      19.840   3.473  53.327  1.00  0.00     0.024 A 
HETATM    4  C14 UNL     1      20.206   3.983  54.582  1.00  0.00    -0.056 A 
HETATM    5  C24 UNL     1      21.371   4.710  54.623  1.00  0.00     0.024 A 
HETATM    6  C25 UNL     1      22.113   4.902  53.449  1.00  0.00     0.091 A 
ENDROOT
BRANCH   1   7
HETATM    7  C11 UNL     1      22.574   4.639  51.065  1.00  0.00     0.130 C 
BRANCH   7   8
HETATM    8  C10 UNL     1      22.897   3.328  50.460  1.00  0.00     0.046 C 
BRANCH   8   9
HETATM    9  C9  UNL     1      22.371   3.020  49.107  1.00  0.00     0.169 C 
BRANCH   9  10
HETATM   10  O1  UNL     1      22.415   3.905  48.140  1.00  0.00    -0.391 OA
BRANCH  10  11
HETATM   11  C8  UNL     1      21.499   4.239  47.253  1.00  0.00     0.167 C 
BRANCH  11  12
HETATM   12  C7  UNL     1      21.988   4.713  45.905  1.00  0.00     0.026 C 
BRANCH  12  13
HETATM   13  C6  UNL     1      21.807   3.534  44.934  1.00  0.00     0.004 C 
BRANCH  13  14
HETATM   14  C5  UNL     1      23.142   3.236  44.315  1.00  0.00     0.027 C 
BRANCH  14  15
HETATM   15  C4  UNL     1      23.553   1.817  44.727  1.00  0.00     0.232 C 
BRANCH  15  16
HETATM   16  N1  UNL     1      23.928   1.812  46.092  1.00  0.00    -0.072 N 
ATOM     17  H12 UNL     1      23.437   2.549  46.599  1.00  0.00     0.277 HD
ATOM     18  H11 UNL     1      24.889   2.138  46.198  1.00  0.00     0.277 HD
BRANCH  16  19
HETATM   19  C3  UNL     1      23.756   0.570  46.738  1.00  0.00     0.259 C 
BRANCH  19  20
HETATM   20  C2  UNL     1      24.622   0.433  47.918  1.00  0.00    -0.010 C 
HETATM   21  C1  UNL     1      25.769  -0.203  47.932  1.00  0.00     0.008 C 
ENDBRANCH  19  20
ENDBRANCH  16  19
ENDBRANCH  15  16
ENDBRANCH  14  15
ENDBRANCH  13  14
ENDBRANCH  12  13
ENDBRANCH  11  12
ENDBRANCH  10  11
ENDBRANCH   9  10
ENDBRANCH   8   9
ENDBRANCH   7   8
ENDBRANCH   1   7
BRANCH   4  22
HETATM   22  C15 UNL     1      19.368   3.728  55.778  1.00  0.00     0.038 C 
BRANCH  22  23
HETATM   23  C16 UNL     1      20.043   3.975  57.076  1.00  0.00     0.005 C 
BRANCH  23  24
HETATM   24  C17 UNL     1      19.687   5.200  57.820  1.00  0.00     0.002 C 
BRANCH  24  25
HETATM   25  C18 UNL     1      18.968   6.248  57.060  1.00  0.00     0.020 C 
BRANCH  25  26
HETATM   26  C19 UNL     1      19.867   7.480  56.900  1.00  0.00     0.129 C 
BRANCH  26  27
HETATM   27  N3  UNL     1      19.095   8.692  57.070  1.00  0.00    -0.353 N 
HETATM   28  C20 UNL     1      17.806   8.689  57.364  1.00  0.00     0.093 A 
HETATM   29  C21 UNL     1      17.135   9.877  57.510  1.00  0.00     0.034 A 
HETATM   30  C22 UNL     1      17.793  11.101  57.354  1.00  0.00     0.090 A 
HETATM   31  N4  UNL     1      19.102  11.028  57.055  1.00  0.00    -0.362 N 
HETATM   32  C23 UNL     1      19.756   9.863  56.912  1.00  0.00     0.182 A 
ATOM     33  H4  UNL     1      19.622  11.896  56.932  1.00  0.00     0.165 HD
ENDBRANCH  26  27
ENDBRANCH  25  26
ENDBRANCH  24  25
ENDBRANCH  23  24
ENDBRANCH  22  23
ENDBRANCH   4  22
TORSDOF 18
ENDMDL
