MODEL 1
REMARK VINA RESULT: -5.840615244      0.000      0.000
REMARK  1 active torsions:
REMARK  status: ('A' for Active; 'I' for Inactive)
REMARK    1  A    between atoms: C2_9  and  N5_10 
REMARK       I    between atoms: N5_10  and  C3_12 
ROOT
HETATM    1  C1  UNL     1      35.413  27.090 -41.609  1.00  0.00     0.199 C 
HETATM    2  N1  UNL     1      35.103  26.939 -43.021  1.00  0.00    -0.111 N 
HETATM    3  N2  UNL     1      35.362  25.940 -43.817  1.00  0.00    -0.211 N 
ATOM      4  H2  UNL     1      35.842  25.082 -43.547  1.00  0.00     0.210 HD
HETATM    5  N3  UNL     1      34.907  26.209 -45.027  1.00  0.00    -0.213 N 
ATOM      6  H3  UNL     1      34.976  25.599 -45.841  1.00  0.00     0.210 HD
HETATM    7  N4  UNL     1      34.355  27.389 -45.001  1.00  0.00    -0.115 N 
ATOM      8  H4  UNL     1      33.916  27.865 -45.790  1.00  0.00     0.207 HD
HETATM    9  C2  UNL     1      34.467  27.866 -43.748  1.00  0.00     0.718 A 
ENDROOT
BRANCH   9  10
HETATM   10  N5  UNL     1      34.048  29.017 -43.281  1.00  0.00    -0.161 N 
HETATM   11  C3  UNL     1      34.340  30.171 -44.061  1.00  0.00     0.200 C 
HETATM   12  N6  UNL     1      33.508  31.128 -44.111  1.00  0.00    -0.373 N 
HETATM   13  N7  UNL     1      35.556  30.216 -44.761  1.00  0.00    -0.063 NA
ATOM     14  H62 UNL     1      32.624  31.095 -43.603  1.00  0.00     0.158 HD
ATOM     15  H61 UNL     1      33.718  31.955 -44.670  1.00  0.00     0.158 HD
ATOM     16  H5  UNL     1      33.537  29.083 -42.401  1.00  0.00     0.187 HD
ENDBRANCH   9  10
TORSDOF 1
ENDMDL
MODEL 2
REMARK VINA RESULT: -5.645573880      1.842      3.031
REMARK  1 active torsions:
REMARK  status: ('A' for Active; 'I' for Inactive)
REMARK    1  A    between atoms: C2_9  and  N5_10 
REMARK       I    between atoms: N5_10  and  C3_12 
ROOT
HETATM    1  C1  UNL     1      35.428  27.804 -43.472  1.00  0.00     0.199 C 
HETATM    2  N1  UNL     1      34.673  28.845 -44.149  1.00  0.00    -0.111 N 
HETATM    3  N2  UNL     1      33.612  28.735 -44.898  1.00  0.00    -0.211 N 
ATOM      4  H2  UNL     1      33.140  27.860 -45.125  1.00  0.00     0.210 HD
HETATM    5  N3  UNL     1      33.241  29.931 -45.318  1.00  0.00    -0.213 N 
ATOM      6  H3  UNL     1      32.442  30.133 -45.918  1.00  0.00     0.210 HD
HETATM    7  N4  UNL     1      34.073  30.809 -44.833  1.00  0.00    -0.115 N 
ATOM      8  H4  UNL     1      34.040  31.817 -44.985  1.00  0.00     0.207 HD
HETATM    9  C2  UNL     1      34.982  30.146 -44.094  1.00  0.00     0.718 A 
ENDROOT
BRANCH   9  10
HETATM   10  N5  UNL     1      35.997  30.641 -43.428  1.00  0.00    -0.161 N 
HETATM   11  C3  UNL     1      36.951  31.389 -44.174  1.00  0.00     0.200 C 
HETATM   12  N6  UNL     1      37.521  32.392 -43.645  1.00  0.00    -0.373 N 
HETATM   13  N7  UNL     1      37.235  30.989 -45.489  1.00  0.00    -0.063 NA
ATOM     14  H62 UNL     1      37.314  32.682 -42.690  1.00  0.00     0.158 HD
ATOM     15  H61 UNL     1      38.205  32.928 -44.180  1.00  0.00     0.158 HD
ATOM     16  H5  UNL     1      36.099  30.497 -42.424  1.00  0.00     0.187 HD
ENDBRANCH   9  10
TORSDOF 1
ENDMDL
MODEL 3
REMARK VINA RESULT: -5.564032063      1.238      1.274
REMARK  1 active torsions:
REMARK  status: ('A' for Active; 'I' for Inactive)
REMARK    1  A    between atoms: C2_9  and  N5_10 
REMARK       I    between atoms: N5_10  and  C3_12 
ROOT
HETATM    1  C1  UNL     1      35.186  26.722 -41.148  1.00  0.00     0.199 C 
HETATM    2  N1  UNL     1      35.293  26.485 -42.578  1.00  0.00    -0.111 N 
HETATM    3  N2  UNL     1      35.057  25.393 -43.249  1.00  0.00    -0.211 N 
ATOM      4  H2  UNL     1      34.750  24.508 -42.845  1.00  0.00     0.210 HD
HETATM    5  N3  UNL     1      35.277  25.608 -44.533  1.00  0.00    -0.213 N 
ATOM      6  H3  UNL     1      35.169  24.922 -45.281  1.00  0.00     0.210 HD
HETATM    7  N4  UNL     1      35.656  26.846 -44.681  1.00  0.00    -0.115 N 
ATOM      8  H4  UNL     1      35.897  27.300 -45.561  1.00  0.00     0.207 HD
HETATM    9  C2  UNL     1      35.672  27.416 -43.462  1.00  0.00     0.718 A 
ENDROOT
BRANCH   9  10
HETATM   10  N5  UNL     1      35.993  28.648 -43.151  1.00  0.00    -0.161 N 
HETATM   11  C3  UNL     1      35.141  29.677 -43.641  1.00  0.00     0.200 C 
HETATM   12  N6  UNL     1      34.931  30.712 -42.938  1.00  0.00    -0.373 N 
HETATM   13  N7  UNL     1      34.550  29.512 -44.904  1.00  0.00    -0.063 NA
ATOM     14  H62 UNL     1      35.360  30.831 -42.020  1.00  0.00     0.158 HD
ATOM     15  H61 UNL     1      34.319  31.449 -43.290  1.00  0.00     0.158 HD
ATOM     16  H5  UNL     1      36.815  28.860 -42.585  1.00  0.00     0.187 HD
ENDBRANCH   9  10
TORSDOF 1
ENDMDL
MODEL 4
REMARK VINA RESULT: -5.462170087      1.607      4.108
REMARK  1 active torsions:
REMARK  status: ('A' for Active; 'I' for Inactive)
REMARK    1  A    between atoms: C2_9  and  N5_10 
REMARK       I    between atoms: N5_10  and  C3_12 
ROOT
HETATM    1  C1  UNL     1      37.391  30.960 -44.192  1.00  0.00     0.199 C 
HETATM    2  N1  UNL     1      35.946  30.835 -44.116  1.00  0.00    -0.111 N 
HETATM    3  N2  UNL     1      35.026  31.641 -44.566  1.00  0.00    -0.211 N 
ATOM      4  H2  UNL     1      35.201  32.517 -45.058  1.00  0.00     0.210 HD
HETATM    5  N3  UNL     1      33.832  31.151 -44.287  1.00  0.00    -0.213 N 
ATOM      6  H3  UNL     1      32.939  31.581 -44.525  1.00  0.00     0.210 HD
HETATM    7  N4  UNL     1      33.993  30.023 -43.653  1.00  0.00    -0.115 N 
ATOM      8  H4  UNL     1      33.249  29.416 -43.310  1.00  0.00     0.207 HD
HETATM    9  C2  UNL     1      35.315  29.806 -43.535  1.00  0.00     0.718 A 
ENDROOT
BRANCH   9  10
HETATM   10  N5  UNL     1      35.919  28.791 -42.967  1.00  0.00    -0.161 N 
HETATM   11  C3  UNL     1      35.963  27.575 -43.704  1.00  0.00     0.200 C 
HETATM   12  N6  UNL     1      36.981  26.821 -43.620  1.00  0.00    -0.373 N 
HETATM   13  N7  UNL     1      34.865  27.241 -44.513  1.00  0.00    -0.063 NA
ATOM     14  H62 UNL     1      37.779  27.063 -43.033  1.00  0.00     0.158 HD
ATOM     15  H61 UNL     1      37.012  25.949 -44.149  1.00  0.00     0.158 HD
ATOM     16  H5  UNL     1      36.337  28.868 -42.039  1.00  0.00     0.187 HD
ENDBRANCH   9  10
TORSDOF 1
ENDMDL
MODEL 5
REMARK VINA RESULT: -5.455507569      1.129      1.533
REMARK  1 active torsions:
REMARK  status: ('A' for Active; 'I' for Inactive)
REMARK    1  A    between atoms: C2_9  and  N5_10 
REMARK       I    between atoms: N5_10  and  C3_12 
ROOT
HETATM    1  C1  UNL     1      33.177  27.054 -43.066  1.00  0.00     0.199 C 
HETATM    2  N1  UNL     1      34.604  27.234 -43.272  1.00  0.00    -0.111 N 
HETATM    3  N2  UNL     1      35.509  26.347 -43.575  1.00  0.00    -0.211 N 
ATOM      4  H2  UNL     1      35.334  25.352 -43.716  1.00  0.00     0.210 HD
HETATM    5  N3  UNL     1      36.689  26.932 -43.670  1.00  0.00    -0.213 N 
ATOM      6  H3  UNL     1      37.570  26.470 -43.896  1.00  0.00     0.210 HD
HETATM    7  N4  UNL     1      36.534  28.203 -43.425  1.00  0.00    -0.115 N 
ATOM      8  H4  UNL     1      37.269  28.909 -43.426  1.00  0.00     0.207 HD
HETATM    9  C2  UNL     1      35.229  28.414 -43.172  1.00  0.00     0.718 A 
ENDROOT
BRANCH   9  10
HETATM   10  N5  UNL     1      34.637  29.546 -42.879  1.00  0.00    -0.161 N 
HETATM   11  C3  UNL     1      34.430  30.459 -43.950  1.00  0.00     0.200 C 
HETATM   12  N6  UNL     1      33.385  31.179 -43.974  1.00  0.00    -0.373 N 
HETATM   13  N7  UNL     1      35.400  30.536 -44.961  1.00  0.00    -0.063 NA
ATOM     14  H62 UNL     1      32.680  31.123 -43.239  1.00  0.00     0.158 HD
ATOM     15  H61 UNL     1      33.237  31.834 -44.743  1.00  0.00     0.158 HD
ATOM     16  H5  UNL     1      34.338  29.762 -41.927  1.00  0.00     0.187 HD
ENDBRANCH   9  10
TORSDOF 1
ENDMDL
