MODEL 1
REMARK VINA RESULT: -4.633270063      0.000      0.000
REMARK  6 active torsions:
REMARK  status: ('A' for Active; 'I' for Inactive)
REMARK    1  A    between atoms: C2_2  and  N1_4 
REMARK    2  A    between atoms: N1_4  and  C4_6 
REMARK    3  A    between atoms: C4_6  and  N2_7 
REMARK    4  A    between atoms: C4_6  and  O1_11 
REMARK    5  A    between atoms: C4_6  and  C5_13 
REMARK    6  A    between atoms: C5_13  and  N3_15 
ROOT
HETATM    1  C4  UNL     1      -3.371  -3.788  13.428  1.00  0.00     0.326 C 
ENDROOT
BRANCH   1   2
HETATM    2  N1  UNL     1      -3.359  -3.442  14.781  1.00  0.00    -0.364 N 
ATOM      3  H1  UNL     1      -3.970  -2.687  15.092  1.00  0.00     0.158 HD
BRANCH   2   4
HETATM    4  C2  UNL     1      -2.552  -4.079  15.732  1.00  0.00     0.073 C 
HETATM    5  C1  UNL     1      -3.320  -4.701  16.868  1.00  0.00     0.031 C 
HETATM    6  C3  UNL     1      -1.578  -3.097  16.408  1.00  0.00     0.031 C 
ENDBRANCH   2   4
ENDBRANCH   1   2
BRANCH   1   7
HETATM    7  N2  UNL     1      -4.748  -4.288  13.081  1.00  0.00    -0.026 N 
ATOM      8  H23 UNL     1      -5.262  -4.620  13.897  1.00  0.00     0.280 HD
ATOM      9  H22 UNL     1      -5.383  -3.536  12.814  1.00  0.00     0.280 HD
ATOM     10  H21 UNL     1      -4.656  -5.001  12.357  1.00  0.00     0.280 HD
ENDBRANCH   1   7
BRANCH   1  11
HETATM   11  O1  UNL     1      -2.559  -4.871  13.063  1.00  0.00    -0.348 OA
ATOM     12  H1  UNL     1      -2.224  -4.860  12.174  1.00  0.00     0.214 HD
ENDBRANCH   1  11
BRANCH   1  13
HETATM   13  C5  UNL     1      -3.136  -2.630  12.530  1.00  0.00     0.264 C 
HETATM   14  C6  UNL     1      -1.756  -2.051  12.779  1.00  0.00     0.047 C 
BRANCH  13  15
HETATM   15  N3  UNL     1      -4.165  -1.647  12.571  1.00  0.00    -0.069 N 
ATOM     16  H33 UNL     1      -5.004  -1.986  12.101  1.00  0.00     0.275 HD
ATOM     17  H32 UNL     1      -4.527  -1.548  13.520  1.00  0.00     0.275 HD
ATOM     18  H31 UNL     1      -3.887  -0.739  12.198  1.00  0.00     0.275 HD
ENDBRANCH  13  15
ENDBRANCH   1  13
TORSDOF 6
ENDMDL
MODEL 2
REMARK VINA RESULT: -4.559399316      1.989      3.319
REMARK  6 active torsions:
REMARK  status: ('A' for Active; 'I' for Inactive)
REMARK    1  A    between atoms: C2_2  and  N1_4 
REMARK    2  A    between atoms: N1_4  and  C4_6 
REMARK    3  A    between atoms: C4_6  and  N2_7 
REMARK    4  A    between atoms: C4_6  and  O1_11 
REMARK    5  A    between atoms: C4_6  and  C5_13 
REMARK    6  A    between atoms: C5_13  and  N3_15 
ROOT
HETATM    1  C4  UNL     1      -3.600  -3.701  13.314  1.00  0.00     0.326 C 
ENDROOT
BRANCH   1   2
HETATM    2  N1  UNL     1      -2.616  -4.108  12.411  1.00  0.00    -0.364 N 
ATOM      3  H1  UNL     1      -2.473  -5.108  12.268  1.00  0.00     0.158 HD
BRANCH   2   4
HETATM    4  C2  UNL     1      -1.815  -3.213  11.691  1.00  0.00     0.073 C 
HETATM    5  C1  UNL     1      -1.666  -3.561  10.233  1.00  0.00     0.031 C 
HETATM    6  C3  UNL     1      -0.375  -3.168  12.232  1.00  0.00     0.031 C 
ENDBRANCH   2   4
ENDBRANCH   1   2
BRANCH   1   7
HETATM    7  N2  UNL     1      -3.300  -4.326  14.651  1.00  0.00    -0.026 N 
ATOM      8  H23 UNL     1      -2.757  -5.185  14.570  1.00  0.00     0.280 HD
ATOM      9  H22 UNL     1      -2.625  -3.788  15.194  1.00  0.00     0.280 HD
ATOM     10  H21 UNL     1      -4.182  -4.463  15.144  1.00  0.00     0.280 HD
ENDBRANCH   1   7
BRANCH   1  11
HETATM   11  O1  UNL     1      -4.899  -4.158  13.056  1.00  0.00    -0.348 OA
ATOM     12  H1  UNL     1      -5.527  -4.053  13.762  1.00  0.00     0.214 HD
ENDBRANCH   1  11
BRANCH   1  13
HETATM   13  C5  UNL     1      -3.596  -2.237  13.557  1.00  0.00     0.264 C 
HETATM   14  C6  UNL     1      -2.886  -1.929  14.862  1.00  0.00     0.047 C 
BRANCH  13  15
HETATM   15  N3  UNL     1      -4.882  -1.631  13.471  1.00  0.00    -0.069 N 
ATOM     16  H33 UNL     1      -5.299  -1.542  14.398  1.00  0.00     0.275 HD
ATOM     17  H32 UNL     1      -4.797  -0.645  13.224  1.00  0.00     0.275 HD
ATOM     18  H31 UNL     1      -5.523  -2.106  12.834  1.00  0.00     0.275 HD
ENDBRANCH  13  15
ENDBRANCH   1  13
TORSDOF 6
ENDMDL
MODEL 3
REMARK VINA RESULT: -4.528347480      1.665      2.157
REMARK  6 active torsions:
REMARK  status: ('A' for Active; 'I' for Inactive)
REMARK    1  A    between atoms: C2_2  and  N1_4 
REMARK    2  A    between atoms: N1_4  and  C4_6 
REMARK    3  A    between atoms: C4_6  and  N2_7 
REMARK    4  A    between atoms: C4_6  and  O1_11 
REMARK    5  A    between atoms: C4_6  and  C5_13 
REMARK    6  A    between atoms: C5_13  and  N3_15 
ROOT
HETATM    1  C4  UNL     1      -3.929  -2.523  13.272  1.00  0.00     0.326 C 
ENDROOT
BRANCH   1   2
HETATM    2  N1  UNL     1      -3.410  -2.600  14.566  1.00  0.00    -0.364 N 
ATOM      3  H1  UNL     1      -3.732  -1.924  15.258  1.00  0.00     0.158 HD
BRANCH   2   4
HETATM    4  C2  UNL     1      -2.468  -3.559  14.961  1.00  0.00     0.073 C 
HETATM    5  C1  UNL     1      -2.780  -4.216  16.280  1.00  0.00     0.031 C 
HETATM    6  C3  UNL     1      -1.070  -2.945  15.151  1.00  0.00     0.031 C 
ENDBRANCH   2   4
ENDBRANCH   1   2
BRANCH   1   7
HETATM    7  N2  UNL     1      -3.230  -1.402  12.550  1.00  0.00    -0.026 N 
ATOM      8  H23 UNL     1      -3.310  -1.478  11.536  1.00  0.00     0.280 HD
ATOM      9  H22 UNL     1      -3.705  -0.507  12.659  1.00  0.00     0.280 HD
ATOM     10  H21 UNL     1      -2.261  -1.374  12.866  1.00  0.00     0.280 HD
ENDBRANCH   1   7
BRANCH   1  11
HETATM   11  O1  UNL     1      -5.276  -2.149  13.171  1.00  0.00    -0.348 OA
ATOM     12  H1  UNL     1      -5.505  -1.611  12.422  1.00  0.00     0.214 HD
ENDBRANCH   1  11
BRANCH   1  13
HETATM   13  C5  UNL     1      -3.659  -3.738  12.464  1.00  0.00     0.264 C 
HETATM   14  C6  UNL     1      -2.666  -3.418  11.362  1.00  0.00     0.047 C 
BRANCH  13  15
HETATM   15  N3  UNL     1      -4.832  -4.386  11.982  1.00  0.00    -0.069 N 
ATOM     16  H33 UNL     1      -4.603  -5.011  11.209  1.00  0.00     0.275 HD
ATOM     17  H32 UNL     1      -5.168  -5.069  12.661  1.00  0.00     0.275 HD
ATOM     18  H31 UNL     1      -5.580  -3.746  11.716  1.00  0.00     0.275 HD
ENDBRANCH  13  15
ENDBRANCH   1  13
TORSDOF 6
ENDMDL
MODEL 4
REMARK VINA RESULT: -4.472246012      1.978      2.407
REMARK  6 active torsions:
REMARK  status: ('A' for Active; 'I' for Inactive)
REMARK    1  A    between atoms: C2_2  and  N1_4 
REMARK    2  A    between atoms: N1_4  and  C4_6 
REMARK    3  A    between atoms: C4_6  and  N2_7 
REMARK    4  A    between atoms: C4_6  and  O1_11 
REMARK    5  A    between atoms: C4_6  and  C5_13 
REMARK    6  A    between atoms: C5_13  and  N3_15 
ROOT
HETATM    1  C4  UNL     1      -3.872  -2.665  13.018  1.00  0.00     0.326 C 
ENDROOT
BRANCH   1   2
HETATM    2  N1  UNL     1      -3.428  -2.961  14.309  1.00  0.00    -0.364 N 
ATOM      3  H1  UNL     1      -3.776  -3.808  14.758  1.00  0.00     0.158 HD
BRANCH   2   4
HETATM    4  C2  UNL     1      -2.530  -2.153  15.018  1.00  0.00     0.073 C 
HETATM    5  C1  UNL     1      -1.193  -2.799  15.269  1.00  0.00     0.031 C 
HETATM    6  C3  UNL     1      -3.061  -1.797  16.418  1.00  0.00     0.031 C 
ENDBRANCH   2   4
ENDBRANCH   1   2
BRANCH   1   7
HETATM    7  N2  UNL     1      -3.238  -1.368  12.588  1.00  0.00    -0.026 N 
ATOM      8  H23 UNL     1      -3.706  -0.553  12.984  1.00  0.00     0.280 HD
ATOM      9  H22 UNL     1      -2.322  -1.220  13.009  1.00  0.00     0.280 HD
ATOM     10  H21 UNL     1      -3.211  -1.349  11.569  1.00  0.00     0.280 HD
ENDBRANCH   1   7
BRANCH   1  11
HETATM   11  O1  UNL     1      -5.239  -2.388  12.886  1.00  0.00    -0.348 OA
ATOM     12  H1  UNL     1      -5.617  -2.552  12.029  1.00  0.00     0.214 HD
ENDBRANCH   1  11
BRANCH   1  13
HETATM   13  C5  UNL     1      -3.438  -3.665  12.011  1.00  0.00     0.264 C 
HETATM   14  C6  UNL     1      -2.091  -3.271  11.435  1.00  0.00     0.047 C 
BRANCH  13  15
HETATM   15  N3  UNL     1      -4.411  -3.937  11.008  1.00  0.00    -0.069 N 
ATOM     16  H33 UNL     1      -5.338  -3.645  11.319  1.00  0.00     0.275 HD
ATOM     17  H32 UNL     1      -4.291  -3.308  10.213  1.00  0.00     0.275 HD
ATOM     18  H31 UNL     1      -4.427  -4.908  10.696  1.00  0.00     0.275 HD
ENDBRANCH  13  15
ENDBRANCH   1  13
TORSDOF 6
ENDMDL
MODEL 5
REMARK VINA RESULT: -4.446920649      2.799      3.913
REMARK  6 active torsions:
REMARK  status: ('A' for Active; 'I' for Inactive)
REMARK    1  A    between atoms: C2_2  and  N1_4 
REMARK    2  A    between atoms: N1_4  and  C4_6 
REMARK    3  A    between atoms: C4_6  and  N2_7 
REMARK    4  A    between atoms: C4_6  and  O1_11 
REMARK    5  A    between atoms: C4_6  and  C5_13 
REMARK    6  A    between atoms: C5_13  and  N3_15 
ROOT
HETATM    1  C4  UNL     1      -2.671  -1.372  12.990  1.00  0.00     0.326 C 
ENDROOT
BRANCH   1   2
HETATM    2  N1  UNL     1      -2.067  -2.573  12.613  1.00  0.00    -0.364 N 
ATOM      3  H1  UNL     1      -2.346  -3.428  13.094  1.00  0.00     0.158 HD
BRANCH   2   4
HETATM    4  C2  UNL     1      -1.096  -2.664  11.608  1.00  0.00     0.073 C 
HETATM    5  C1  UNL     1      -1.481  -3.566  10.465  1.00  0.00     0.031 C 
HETATM    6  C3  UNL     1       0.227  -3.246  12.138  1.00  0.00     0.031 C 
ENDBRANCH   2   4
ENDBRANCH   1   2
BRANCH   1   7
HETATM    7  N2  UNL     1      -4.117  -1.421  12.574  1.00  0.00    -0.026 N 
ATOM      8  H23 UNL     1      -4.236  -1.391  11.562  1.00  0.00     0.280 HD
ATOM      9  H22 UNL     1      -4.542  -2.334  12.736  1.00  0.00     0.280 HD
ATOM     10  H21 UNL     1      -4.612  -0.667  13.050  1.00  0.00     0.280 HD
ENDBRANCH   1   7
BRANCH   1  11
HETATM   11  O1  UNL     1      -2.211  -0.221  12.338  1.00  0.00    -0.348 OA
ATOM     12  H1  UNL     1      -2.833   0.209  11.762  1.00  0.00     0.214 HD
ENDBRANCH   1  11
BRANCH   1  13
HETATM   13  C5  UNL     1      -2.693  -1.169  14.460  1.00  0.00     0.264 C 
HETATM   14  C6  UNL     1      -1.284  -0.943  14.975  1.00  0.00     0.047 C 
BRANCH  13  15
HETATM   15  N3  UNL     1      -3.386  -2.187  15.176  1.00  0.00    -0.069 N 
ATOM     16  H33 UNL     1      -4.254  -2.431  14.699  1.00  0.00     0.275 HD
ATOM     17  H32 UNL     1      -2.892  -3.076  15.101  1.00  0.00     0.275 HD
ATOM     18  H31 UNL     1      -3.567  -1.958  16.153  1.00  0.00     0.275 HD
ENDBRANCH  13  15
ENDBRANCH   1  13
TORSDOF 6
ENDMDL
