MODEL 1
REMARK VINA RESULT: -9.531212883      0.000      0.000
REMARK  16 active torsions:
REMARK  status: ('A' for Active; 'I' for Inactive)
REMARK    1  A    between atoms: C2_2  and  C3_3 
REMARK    2  A    between atoms: C3_3  and  C4_4 
REMARK    3  A    between atoms: C4_4  and  N1_5 
REMARK       I    between atoms: N1_5  and  C5_7 
REMARK    4  A    between atoms: C5_7  and  C6_9 
REMARK    5  A    between atoms: C6_9  and  C7_10 
REMARK    6  A    between atoms: C6_9  and  N2_17 
REMARK    7  A    between atoms: C7_10  and  C8_11 
REMARK    8  A    between atoms: N2_17  and  C14_19 
REMARK    9  A    between atoms: C14_19  and  C15_20 
REMARK   10  A    between atoms: C14_19  and  C16_23 
REMARK   11  A    between atoms: C16_23  and  C17_24 
REMARK   12  A    between atoms: C16_23  and  C25_35 
REMARK   13  A    between atoms: C17_24  and  C18_25 
REMARK       I    between atoms: C18_25  and  N4_27 
REMARK   14  A    between atoms: N4_27  and  C19_29 
REMARK   15  A    between atoms: C25_35  and  C26_36 
REMARK   16  A    between atoms: C26_36  and  C27_38 
REMARK       I    between atoms: C27_38  and  N5_40 
ROOT
HETATM    1  C16 UNL     1     -10.650  15.160   0.904  1.00  0.00     0.033 C 
ENDROOT
BRANCH   1   2
HETATM    2  C14 UNL     1     -11.431  14.093   1.625  1.00  0.00     0.176 C 
BRANCH   2   3
HETATM    3  N2  UNL     1     -12.157  14.646   2.723  1.00  0.00    -0.372 N 
ATOM      4  H2  UNL     1     -12.778  15.444   2.583  1.00  0.00     0.160 HD
BRANCH   3   5
HETATM    5  C6  UNL     1     -12.004  14.070   4.014  1.00  0.00     0.097 C 
BRANCH   5   6
HETATM    6  C5  UNL     1     -11.490  14.859   5.113  1.00  0.00     0.267 C 
HETATM    7  N1  UNL     1     -10.158  15.403   5.204  1.00  0.00    -0.356 N 
ATOM      8  H1  UNL     1      -9.507  15.237   4.437  1.00  0.00     0.162 HD
HETATM    9  O1  UNL     1     -12.212  15.122   6.126  1.00  0.00    -0.266 OA
BRANCH   7  10
HETATM   10  C4  UNL     1      -9.707  16.176   6.342  1.00  0.00     0.123 C 
BRANCH  10  11
HETATM   11  C3  UNL     1      -8.301  16.638   6.231  1.00  0.00     0.019 C 
BRANCH  11  12
HETATM   12  C2  UNL     1      -7.292  15.820   6.996  1.00  0.00    -0.003 C 
HETATM   13  C1  UNL     1      -7.515  15.863   8.473  1.00  0.00     0.005 C 
ENDBRANCH  11  12
ENDBRANCH  10  11
ENDBRANCH   7  10
ENDBRANCH   5   6
BRANCH   5  14
HETATM   14  C7  UNL     1     -12.837  12.901   4.337  1.00  0.00     0.037 C 
BRANCH  14  15
HETATM   15  C8  UNL     1     -14.262  13.023   4.626  1.00  0.00    -0.078 C 
HETATM   16  C9  UNL     1     -15.090  14.192   4.395  1.00  0.00     0.034 C 
HETATM   17  C10 UNL     1     -15.702  14.291   3.013  1.00  0.00     0.004 C 
HETATM   18  C11 UNL     1     -16.348  12.987   2.601  1.00  0.00     0.001 C 
HETATM   19  C12 UNL     1     -15.404  11.834   2.715  1.00  0.00     0.004 C 
HETATM   20  C13 UNL     1     -14.940  11.728   4.143  1.00  0.00     0.034 C 
ENDBRANCH  14  15
ENDBRANCH   5  14
ENDBRANCH   3   5
ENDBRANCH   2   3
BRANCH   2  21
HETATM   21  C15 UNL     1     -12.114  13.162   0.762  1.00  0.00     0.254 C 
HETATM   22  N3  UNL     1     -11.575  11.950   0.221  1.00  0.00    -0.060 NA
HETATM   23  O2  UNL     1     -13.330  13.409   0.432  1.00  0.00    -0.275 OA
ENDBRANCH   2  21
ENDBRANCH   1   2
BRANCH   1  24
HETATM   24  C17 UNL     1     -11.085  15.518  -0.462  1.00  0.00     0.110 C 
BRANCH  24  25
HETATM   25  C18 UNL     1     -10.288  15.107  -1.605  1.00  0.00     0.218 C 
HETATM   26  O3  UNL     1      -9.442  14.188  -1.533  1.00  0.00    -0.274 OA
HETATM   27  N4  UNL     1     -10.489  15.782  -2.840  1.00  0.00    -0.356 N 
ATOM     28  H4  UNL     1     -11.175  16.533  -2.915  1.00  0.00     0.162 HD
BRANCH  27  29
HETATM   29  C19 UNL     1      -9.708  15.387  -3.982  1.00  0.00     0.084 C 
HETATM   30  C20 UNL     1      -8.432  16.146  -4.128  1.00  0.00     0.025 C 
HETATM   31  C21 UNL     1      -8.344  16.846  -5.476  1.00  0.00     0.002 C 
HETATM   32  C22 UNL     1      -8.565  15.887  -6.631  1.00  0.00     0.000 C 
HETATM   33  C23 UNL     1      -9.707  14.949  -6.383  1.00  0.00     0.002 C 
HETATM   34  C24 UNL     1     -10.559  15.477  -5.256  1.00  0.00     0.025 C 
ENDBRANCH  27  29
ENDBRANCH  24  25
ENDBRANCH   1  24
BRANCH   1  35
HETATM   35  C25 UNL     1     -10.328  16.386   1.676  1.00  0.00     0.096 C 
BRANCH  35  36
HETATM   36  C26 UNL     1      -8.921  16.527   2.121  1.00  0.00     0.217 C 
HETATM   37  O4  UNL     1      -8.683  17.273   3.101  1.00  0.00    -0.287 OA
BRANCH  36  38
HETATM   38  C27 UNL     1      -7.833  15.815   1.440  1.00  0.00     0.289 C 
HETATM   39  O5  UNL     1      -7.536  14.657   1.886  1.00  0.00    -0.264 OA
HETATM   40  N5  UNL     1      -7.147  16.357   0.365  1.00  0.00    -0.346 N 
HETATM   41  C28 UNL     1      -7.439  17.650  -0.169  1.00  0.00     0.127 C 
HETATM   42  C36 UNL     1      -6.073  15.606  -0.273  1.00  0.00     0.127 C 
HETATM   43  C29 UNL     1      -6.565  17.975  -1.374  1.00  0.00     0.029 C 
HETATM   44  C30 UNL     1      -5.105  17.696  -1.127  1.00  0.00    -0.037 C 
HETATM   45  C31 UNL     1      -4.434  17.521  -2.473  1.00  0.00     0.010 C 
HETATM   46  C34 UNL     1      -4.471  18.918  -0.501  1.00  0.00     0.010 C 
HETATM   47  C35 UNL     1      -4.842  16.498  -0.279  1.00  0.00     0.029 C 
HETATM   48  C32 UNL     1      -3.969  18.903  -2.880  1.00  0.00     0.001 C 
HETATM   49  C33 UNL     1      -3.741  19.660  -1.592  1.00  0.00     0.001 C 
ENDBRANCH  36  38
ENDBRANCH  35  36
ENDBRANCH   1  35
TORSDOF 16
ENDMDL
MODEL 2
REMARK VINA RESULT: -9.507381515      2.076      3.036
REMARK  16 active torsions:
REMARK  status: ('A' for Active; 'I' for Inactive)
REMARK    1  A    between atoms: C2_2  and  C3_3 
REMARK    2  A    between atoms: C3_3  and  C4_4 
REMARK    3  A    between atoms: C4_4  and  N1_5 
REMARK       I    between atoms: N1_5  and  C5_7 
REMARK    4  A    between atoms: C5_7  and  C6_9 
REMARK    5  A    between atoms: C6_9  and  C7_10 
REMARK    6  A    between atoms: C6_9  and  N2_17 
REMARK    7  A    between atoms: C7_10  and  C8_11 
REMARK    8  A    between atoms: N2_17  and  C14_19 
REMARK    9  A    between atoms: C14_19  and  C15_20 
REMARK   10  A    between atoms: C14_19  and  C16_23 
REMARK   11  A    between atoms: C16_23  and  C17_24 
REMARK   12  A    between atoms: C16_23  and  C25_35 
REMARK   13  A    between atoms: C17_24  and  C18_25 
REMARK       I    between atoms: C18_25  and  N4_27 
REMARK   14  A    between atoms: N4_27  and  C19_29 
REMARK   15  A    between atoms: C25_35  and  C26_36 
REMARK   16  A    between atoms: C26_36  and  C27_38 
REMARK       I    between atoms: C27_38  and  N5_40 
ROOT
HETATM    1  C16 UNL     1      -8.660  16.249  -0.340  1.00  0.00     0.033 C 
ENDROOT
BRANCH   1   2
HETATM    2  C14 UNL     1      -8.848  15.774   1.077  1.00  0.00     0.176 C 
BRANCH   2   3
HETATM    3  N2  UNL     1     -10.199  15.954   1.501  1.00  0.00    -0.372 N 
ATOM      4  H2  UNL     1     -10.771  16.699   1.103  1.00  0.00     0.160 HD
BRANCH   3   5
HETATM    5  C6  UNL     1     -10.737  15.081   2.486  1.00  0.00     0.097 C 
BRANCH   5   6
HETATM    6  C5  UNL     1     -10.620  15.400   3.893  1.00  0.00     0.267 C 
HETATM    7  N1  UNL     1      -9.422  15.857   4.553  1.00  0.00    -0.356 N 
ATOM      8  H1  UNL     1      -8.574  15.980   3.999  1.00  0.00     0.162 HD
HETATM    9  O1  UNL     1     -11.611  15.276   4.679  1.00  0.00    -0.266 OA
BRANCH   7  10
HETATM   10  C4  UNL     1      -9.374  16.147   5.970  1.00  0.00     0.123 C 
BRANCH  10  11
HETATM   11  C3  UNL     1      -8.054  16.642   6.434  1.00  0.00     0.019 C 
BRANCH  11  12
HETATM   12  C2  UNL     1      -7.604  16.116   7.773  1.00  0.00    -0.003 C 
HETATM   13  C1  UNL     1      -8.634  15.258   8.433  1.00  0.00     0.005 C 
ENDBRANCH  11  12
ENDBRANCH  10  11
ENDBRANCH   7  10
ENDBRANCH   5   6
BRANCH   5  14
HETATM   14  C7  UNL     1     -11.829  14.185   2.073  1.00  0.00     0.037 C 
BRANCH  14  15
HETATM   15  C8  UNL     1     -12.096  13.887   0.670  1.00  0.00    -0.078 C 
HETATM   16  C9  UNL     1     -11.509  12.812  -0.108  1.00  0.00     0.034 C 
HETATM   17  C10 UNL     1     -12.236  11.485  -0.033  1.00  0.00     0.004 C 
HETATM   18  C11 UNL     1     -13.724  11.659  -0.245  1.00  0.00     0.001 C 
HETATM   19  C12 UNL     1     -14.308  12.672   0.686  1.00  0.00     0.004 C 
HETATM   20  C13 UNL     1     -13.618  13.991   0.461  1.00  0.00     0.034 C 
ENDBRANCH  14  15
ENDBRANCH   5  14
ENDBRANCH   3   5
ENDBRANCH   2   3
BRANCH   2  21
HETATM   21  C15 UNL     1      -8.205  14.519   1.380  1.00  0.00     0.254 C 
HETATM   22  N3  UNL     1      -7.872  13.486   0.446  1.00  0.00    -0.060 NA
HETATM   23  O2  UNL     1      -7.878  14.276   2.598  1.00  0.00    -0.275 OA
ENDBRANCH   2  21
ENDBRANCH   1   2
BRANCH   1  24
HETATM   24  C17 UNL     1      -9.647  15.802  -1.345  1.00  0.00     0.110 C 
BRANCH  24  25
HETATM   25  C18 UNL     1      -9.191  15.275  -2.621  1.00  0.00     0.218 C 
HETATM   26  O3  UNL     1      -8.421  14.294  -2.700  1.00  0.00    -0.274 OA
HETATM   27  N4  UNL     1      -9.648  15.910  -3.809  1.00  0.00    -0.356 N 
ATOM     28  H4  UNL     1     -10.278  16.711  -3.760  1.00  0.00     0.162 HD
BRANCH  27  29
HETATM   29  C19 UNL     1      -9.207  15.401  -5.080  1.00  0.00     0.084 C 
HETATM   30  C20 UNL     1      -8.105  16.196  -5.695  1.00  0.00     0.025 C 
HETATM   31  C21 UNL     1      -8.482  16.708  -7.078  1.00  0.00     0.002 C 
HETATM   32  C22 UNL     1      -8.947  15.588  -7.990  1.00  0.00     0.000 C 
HETATM   33  C23 UNL     1      -9.876  14.636  -7.299  1.00  0.00     0.002 C 
HETATM   34  C24 UNL     1     -10.401  15.271  -6.036  1.00  0.00     0.025 C 
ENDBRANCH  27  29
ENDBRANCH  24  25
ENDBRANCH   1  24
BRANCH   1  35
HETATM   35  C25 UNL     1      -8.359  17.690  -0.525  1.00  0.00     0.096 C 
BRANCH  35  36
HETATM   36  C26 UNL     1      -6.974  18.113  -0.212  1.00  0.00     0.217 C 
HETATM   37  O4  UNL     1      -6.797  19.266   0.249  1.00  0.00    -0.287 OA
BRANCH  36  38
HETATM   38  C27 UNL     1      -5.836  17.212  -0.431  1.00  0.00     0.289 C 
HETATM   39  O5  UNL     1      -5.526  16.432   0.530  1.00  0.00    -0.264 OA
HETATM   40  N5  UNL     1      -5.117  17.194  -1.617  1.00  0.00    -0.346 N 
HETATM   41  C28 UNL     1      -5.423  18.049  -2.720  1.00  0.00     0.127 C 
HETATM   42  C36 UNL     1      -3.994  16.279  -1.780  1.00  0.00     0.127 C 
HETATM   43  C29 UNL     1      -4.505  17.788  -3.909  1.00  0.00     0.029 C 
HETATM   44  C30 UNL     1      -3.050  17.733  -3.520  1.00  0.00    -0.037 C 
HETATM   45  C31 UNL     1      -2.314  16.958  -4.592  1.00  0.00     0.010 C 
HETATM   46  C34 UNL     1      -2.480  19.134  -3.554  1.00  0.00     0.010 C 
HETATM   47  C35 UNL     1      -2.791  17.114  -2.189  1.00  0.00     0.029 C 
HETATM   48  C32 UNL     1      -1.872  17.987  -5.610  1.00  0.00     0.001 C 
HETATM   49  C33 UNL     1      -1.724  19.285  -4.850  1.00  0.00     0.001 C 
ENDBRANCH  36  38
ENDBRANCH  35  36
ENDBRANCH   1  35
TORSDOF 16
ENDMDL
MODEL 3
REMARK VINA RESULT: -9.499768878      2.172     10.559
REMARK  16 active torsions:
REMARK  status: ('A' for Active; 'I' for Inactive)
REMARK    1  A    between atoms: C2_2  and  C3_3 
REMARK    2  A    between atoms: C3_3  and  C4_4 
REMARK    3  A    between atoms: C4_4  and  N1_5 
REMARK       I    between atoms: N1_5  and  C5_7 
REMARK    4  A    between atoms: C5_7  and  C6_9 
REMARK    5  A    between atoms: C6_9  and  C7_10 
REMARK    6  A    between atoms: C6_9  and  N2_17 
REMARK    7  A    between atoms: C7_10  and  C8_11 
REMARK    8  A    between atoms: N2_17  and  C14_19 
REMARK    9  A    between atoms: C14_19  and  C15_20 
REMARK   10  A    between atoms: C14_19  and  C16_23 
REMARK   11  A    between atoms: C16_23  and  C17_24 
REMARK   12  A    between atoms: C16_23  and  C25_35 
REMARK   13  A    between atoms: C17_24  and  C18_25 
REMARK       I    between atoms: C18_25  and  N4_27 
REMARK   14  A    between atoms: N4_27  and  C19_29 
REMARK   15  A    between atoms: C25_35  and  C26_36 
REMARK   16  A    between atoms: C26_36  and  C27_38 
REMARK       I    between atoms: C27_38  and  N5_40 
ROOT
HETATM    1  C16 UNL     1      -7.602  16.924  -1.036  1.00  0.00     0.033 C 
ENDROOT
BRANCH   1   2
HETATM    2  C14 UNL     1      -6.231  17.283  -1.548  1.00  0.00     0.176 C 
BRANCH   2   3
HETATM    3  N2  UNL     1      -6.319  18.043  -2.752  1.00  0.00    -0.372 N 
ATOM      4  H2  UNL     1      -6.736  18.975  -2.746  1.00  0.00     0.160 HD
BRANCH   3   5
HETATM    5  C6  UNL     1      -5.818  17.486  -3.960  1.00  0.00     0.097 C 
BRANCH   5   6
HETATM    6  C5  UNL     1      -6.613  17.519  -5.169  1.00  0.00     0.267 C 
HETATM    7  N1  UNL     1      -7.142  16.367  -5.857  1.00  0.00    -0.356 N 
ATOM      8  H1  UNL     1      -6.959  15.440  -5.473  1.00  0.00     0.162 HD
HETATM    9  O1  UNL     1      -6.897  18.619  -5.739  1.00  0.00    -0.266 OA
BRANCH   7  10
HETATM   10  C4  UNL     1      -7.923  16.473  -7.071  1.00  0.00     0.123 C 
BRANCH  10  11
HETATM   11  C3  UNL     1      -9.388  16.394  -6.849  1.00  0.00     0.019 C 
BRANCH  11  12
HETATM   12  C2  UNL     1      -9.972  15.006  -6.892  1.00  0.00    -0.003 C 
HETATM   13  C1  UNL     1      -9.941  14.409  -8.261  1.00  0.00     0.005 C 
ENDBRANCH  11  12
ENDBRANCH  10  11
ENDBRANCH   7  10
ENDBRANCH   5   6
BRANCH   5  14
HETATM   14  C7  UNL     1      -4.357  17.376  -4.101  1.00  0.00     0.037 C 
BRANCH  14  15
HETATM   15  C8  UNL     1      -3.519  18.535  -4.390  1.00  0.00    -0.078 C 
HETATM   16  C9  UNL     1      -3.950  19.920  -4.427  1.00  0.00     0.034 C 
HETATM   17  C10 UNL     1      -3.917  20.646  -3.099  1.00  0.00     0.004 C 
HETATM   18  C11 UNL     1      -2.602  20.428  -2.383  1.00  0.00     0.001 C 
HETATM   19  C12 UNL     1      -2.278  18.976  -2.237  1.00  0.00     0.004 C 
HETATM   20  C13 UNL     1      -2.205  18.357  -3.607  1.00  0.00     0.034 C 
ENDBRANCH  14  15
ENDBRANCH   5  14
ENDBRANCH   3   5
ENDBRANCH   2   3
BRANCH   2  21
HETATM   21  C15 UNL     1      -5.308  17.726  -0.533  1.00  0.00     0.254 C 
HETATM   22  N3  UNL     1      -4.451  16.896   0.260  1.00  0.00    -0.060 NA
HETATM   23  O2  UNL     1      -5.215  18.984  -0.296  1.00  0.00    -0.275 OA
ENDBRANCH   2  21
ENDBRANCH   1   2
BRANCH   1  24
HETATM   24  C17 UNL     1      -7.981  17.422   0.303  1.00  0.00     0.110 C 
BRANCH  24  25
HETATM   25  C18 UNL     1      -7.953  16.522   1.443  1.00  0.00     0.218 C 
HETATM   26  O3  UNL     1      -7.385  15.408   1.400  1.00  0.00    -0.274 OA
HETATM   27  N4  UNL     1      -8.597  16.937   2.641  1.00  0.00    -0.356 N 
ATOM     28  H4  UNL     1      -9.064  17.843   2.693  1.00  0.00     0.162 HD
BRANCH  27  29
HETATM   29  C19 UNL     1      -8.577  16.057   3.780  1.00  0.00     0.084 C 
HETATM   30  C20 UNL     1      -9.858  15.324   3.993  1.00  0.00     0.025 C 
HETATM   31  C21 UNL     1     -10.435  15.588   5.377  1.00  0.00     0.002 C 
HETATM   32  C22 UNL     1      -9.429  15.300   6.476  1.00  0.00     0.000 C 
HETATM   33  C23 UNL     1      -8.065  15.829   6.155  1.00  0.00     0.002 C 
HETATM   34  C24 UNL     1      -8.164  16.836   5.036  1.00  0.00     0.025 C 
ENDBRANCH  27  29
ENDBRANCH  24  25
ENDBRANCH   1  24
BRANCH   1  35
HETATM   35  C25 UNL     1      -8.732  17.093  -1.983  1.00  0.00     0.096 C 
BRANCH  35  36
HETATM   36  C26 UNL     1      -9.493  15.866  -2.316  1.00  0.00     0.217 C 
HETATM   37  O4  UNL     1     -10.198  15.870  -3.354  1.00  0.00    -0.287 OA
BRANCH  36  38
HETATM   38  C27 UNL     1      -9.427  14.674  -1.462  1.00  0.00     0.289 C 
HETATM   39  O5  UNL     1      -8.511  13.827  -1.727  1.00  0.00    -0.264 OA
HETATM   40  N5  UNL     1     -10.309  14.460  -0.414  1.00  0.00    -0.346 N 
HETATM   41  C28 UNL     1     -11.353  15.376  -0.079  1.00  0.00     0.127 C 
HETATM   42  C36 UNL     1     -10.198  13.257   0.402  1.00  0.00     0.127 C 
HETATM   43  C29 UNL     1     -12.142  14.914   1.140  1.00  0.00     0.029 C 
HETATM   44  C30 UNL     1     -12.558  13.469   1.052  1.00  0.00    -0.037 C 
HETATM   45  C31 UNL     1     -12.822  12.977   2.459  1.00  0.00     0.010 C 
HETATM   46  C34 UNL     1     -13.882  13.383   0.325  1.00  0.00     0.010 C 
HETATM   47  C35 UNL     1     -11.560  12.580   0.392  1.00  0.00     0.029 C 
HETATM   48  C32 UNL     1     -14.288  13.251   2.719  1.00  0.00     0.001 C 
HETATM   49  C33 UNL     1     -14.961  13.223   1.366  1.00  0.00     0.001 C 
ENDBRANCH  36  38
ENDBRANCH  35  36
ENDBRANCH   1  35
TORSDOF 16
ENDMDL
MODEL 4
REMARK VINA RESULT: -9.413891637      2.012     10.009
REMARK  16 active torsions:
REMARK  status: ('A' for Active; 'I' for Inactive)
REMARK    1  A    between atoms: C2_2  and  C3_3 
REMARK    2  A    between atoms: C3_3  and  C4_4 
REMARK    3  A    between atoms: C4_4  and  N1_5 
REMARK       I    between atoms: N1_5  and  C5_7 
REMARK    4  A    between atoms: C5_7  and  C6_9 
REMARK    5  A    between atoms: C6_9  and  C7_10 
REMARK    6  A    between atoms: C6_9  and  N2_17 
REMARK    7  A    between atoms: C7_10  and  C8_11 
REMARK    8  A    between atoms: N2_17  and  C14_19 
REMARK    9  A    between atoms: C14_19  and  C15_20 
REMARK   10  A    between atoms: C14_19  and  C16_23 
REMARK   11  A    between atoms: C16_23  and  C17_24 
REMARK   12  A    between atoms: C16_23  and  C25_35 
REMARK   13  A    between atoms: C17_24  and  C18_25 
REMARK       I    between atoms: C18_25  and  N4_27 
REMARK   14  A    between atoms: N4_27  and  C19_29 
REMARK   15  A    between atoms: C25_35  and  C26_36 
REMARK   16  A    between atoms: C26_36  and  C27_38 
REMARK       I    between atoms: C27_38  and  N5_40 
ROOT
HETATM    1  C16 UNL     1      -8.435  15.711  -0.428  1.00  0.00     0.033 C 
ENDROOT
BRANCH   1   2
HETATM    2  C14 UNL     1      -7.375  16.275  -1.338  1.00  0.00     0.176 C 
BRANCH   2   3
HETATM    3  N2  UNL     1      -7.951  17.133  -2.322  1.00  0.00    -0.372 N 
ATOM      4  H2  UNL     1      -8.667  17.812  -2.060  1.00  0.00     0.160 HD
BRANCH   3   5
HETATM    5  C6  UNL     1      -7.513  17.031  -3.671  1.00  0.00     0.097 C 
BRANCH   5   6
HETATM    6  C5  UNL     1      -6.188  17.473  -4.049  1.00  0.00     0.267 C 
HETATM    7  N1  UNL     1      -5.521  18.649  -3.548  1.00  0.00    -0.356 N 
ATOM      8  H1  UNL     1      -6.002  19.230  -2.862  1.00  0.00     0.162 HD
HETATM    9  O1  UNL     1      -5.500  16.828  -4.901  1.00  0.00    -0.266 OA
BRANCH   7  10
HETATM   10  C4  UNL     1      -4.195  19.037  -3.979  1.00  0.00     0.123 C 
BRANCH  10  11
HETATM   11  C3  UNL     1      -3.260  19.315  -2.861  1.00  0.00     0.019 C 
BRANCH  11  12
HETATM   12  C2  UNL     1      -2.818  18.107  -2.075  1.00  0.00    -0.003 C 
HETATM   13  C1  UNL     1      -2.406  16.968  -2.950  1.00  0.00     0.005 C 
ENDBRANCH  11  12
ENDBRANCH  10  11
ENDBRANCH   7  10
ENDBRANCH   5   6
BRANCH   5  14
HETATM   14  C7  UNL     1      -8.172  16.027  -4.522  1.00  0.00     0.037 C 
BRANCH  14  15
HETATM   15  C8  UNL     1      -9.079  16.404  -5.600  1.00  0.00    -0.078 C 
HETATM   16  C9  UNL     1      -8.699  16.814  -6.940  1.00  0.00     0.034 C 
HETATM   17  C10 UNL     1      -8.516  15.688  -7.936  1.00  0.00     0.004 C 
HETATM   18  C11 UNL     1      -9.677  14.720  -7.894  1.00  0.00     0.001 C 
HETATM   19  C12 UNL     1      -9.931  14.210  -6.512  1.00  0.00     0.004 C 
HETATM   20  C13 UNL     1     -10.228  15.380  -5.612  1.00  0.00     0.034 C 
ENDBRANCH  14  15
ENDBRANCH   5  14
ENDBRANCH   3   5
ENDBRANCH   2   3
BRANCH   2  21
HETATM   21  C15 UNL     1      -6.181  16.722  -0.664  1.00  0.00     0.254 C 
HETATM   22  N3  UNL     1      -5.173  15.891  -0.077  1.00  0.00    -0.060 NA
HETATM   23  O2  UNL     1      -5.966  17.984  -0.569  1.00  0.00    -0.275 OA
ENDBRANCH   2  21
ENDBRANCH   1   2
BRANCH   1  24
HETATM   24  C17 UNL     1      -8.723  16.446   0.821  1.00  0.00     0.110 C 
BRANCH  24  25
HETATM   25  C18 UNL     1      -8.482  15.811   2.105  1.00  0.00     0.218 C 
HETATM   26  O3  UNL     1      -7.964  14.677   2.202  1.00  0.00    -0.274 OA
HETATM   27  N4  UNL     1      -8.852  16.519   3.283  1.00  0.00    -0.356 N 
ATOM     28  H4  UNL     1      -9.275  17.445   3.220  1.00  0.00     0.162 HD
BRANCH  27  29
HETATM   29  C19 UNL     1      -8.619  15.904   4.562  1.00  0.00     0.084 C 
HETATM   30  C20 UNL     1      -9.848  15.339   5.189  1.00  0.00     0.025 C 
HETATM   31  C21 UNL     1     -10.107  15.938   6.565  1.00  0.00     0.002 C 
HETATM   32  C22 UNL     1      -8.899  15.812   7.475  1.00  0.00     0.000 C 
HETATM   33  C23 UNL     1      -7.618  16.149   6.775  1.00  0.00     0.002 C 
HETATM   34  C24 UNL     1      -7.921  16.898   5.501  1.00  0.00     0.025 C 
ENDBRANCH  27  29
ENDBRANCH  24  25
ENDBRANCH   1  24
BRANCH   1  35
HETATM   35  C25 UNL     1      -9.701  15.277  -1.069  1.00  0.00     0.096 C 
BRANCH  35  36
HETATM   36  C26 UNL     1     -10.487  14.255  -0.338  1.00  0.00     0.217 C 
HETATM   37  O4  UNL     1      -9.971  13.125  -0.164  1.00  0.00    -0.287 OA
BRANCH  36  38
HETATM   38  C27 UNL     1     -11.831  14.551   0.173  1.00  0.00     0.289 C 
HETATM   39  O5  UNL     1     -12.159  15.781   0.250  1.00  0.00    -0.264 OA
HETATM   40  N5  UNL     1     -12.715  13.556   0.562  1.00  0.00    -0.346 N 
HETATM   41  C28 UNL     1     -12.394  12.166   0.499  1.00  0.00     0.127 C 
HETATM   42  C36 UNL     1     -14.038  13.908   1.065  1.00  0.00     0.127 C 
HETATM   43  C29 UNL     1     -13.563  11.295   0.944  1.00  0.00     0.029 C 
HETATM   44  C30 UNL     1     -14.173  11.756   2.242  1.00  0.00    -0.037 C 
HETATM   45  C31 UNL     1     -15.584  11.215   2.309  1.00  0.00     0.010 C 
HETATM   46  C34 UNL     1     -13.425  11.114   3.391  1.00  0.00     0.010 C 
HETATM   47  C35 UNL     1     -14.197  13.236   2.419  1.00  0.00     0.029 C 
HETATM   48  C32 UNL     1     -15.474   9.866   2.987  1.00  0.00     0.001 C 
HETATM   49  C33 UNL     1     -14.250   9.947   3.872  1.00  0.00     0.001 C 
ENDBRANCH  36  38
ENDBRANCH  35  36
ENDBRANCH   1  35
TORSDOF 16
ENDMDL
MODEL 5
REMARK VINA RESULT: -9.397289303      1.856      3.076
REMARK  16 active torsions:
REMARK  status: ('A' for Active; 'I' for Inactive)
REMARK    1  A    between atoms: C2_2  and  C3_3 
REMARK    2  A    between atoms: C3_3  and  C4_4 
REMARK    3  A    between atoms: C4_4  and  N1_5 
REMARK       I    between atoms: N1_5  and  C5_7 
REMARK    4  A    between atoms: C5_7  and  C6_9 
REMARK    5  A    between atoms: C6_9  and  C7_10 
REMARK    6  A    between atoms: C6_9  and  N2_17 
REMARK    7  A    between atoms: C7_10  and  C8_11 
REMARK    8  A    between atoms: N2_17  and  C14_19 
REMARK    9  A    between atoms: C14_19  and  C15_20 
REMARK   10  A    between atoms: C14_19  and  C16_23 
REMARK   11  A    between atoms: C16_23  and  C17_24 
REMARK   12  A    between atoms: C16_23  and  C25_35 
REMARK   13  A    between atoms: C17_24  and  C18_25 
REMARK       I    between atoms: C18_25  and  N4_27 
REMARK   14  A    between atoms: N4_27  and  C19_29 
REMARK   15  A    between atoms: C25_35  and  C26_36 
REMARK   16  A    between atoms: C26_36  and  C27_38 
REMARK       I    between atoms: C27_38  and  N5_40 
ROOT
HETATM    1  C16 UNL     1      -8.936  16.250   0.650  1.00  0.00     0.033 C 
ENDROOT
BRANCH   1   2
HETATM    2  C14 UNL     1      -9.525  16.506   2.012  1.00  0.00     0.176 C 
BRANCH   2   3
HETATM    3  N2  UNL     1     -10.854  15.994   2.098  1.00  0.00    -0.372 N 
ATOM      4  H2  UNL     1     -11.622  16.463   1.617  1.00  0.00     0.160 HD
BRANCH   3   5
HETATM    5  C6  UNL     1     -11.094  14.820   2.864  1.00  0.00     0.097 C 
BRANCH   5   6
HETATM    6  C5  UNL     1     -11.448  14.915   4.264  1.00  0.00     0.267 C 
HETATM    7  N1  UNL     1     -10.540  15.229   5.339  1.00  0.00    -0.356 N 
ATOM      8  H1  UNL     1      -9.562  15.410   5.117  1.00  0.00     0.162 HD
HETATM    9  O1  UNL     1     -12.639  14.703   4.656  1.00  0.00    -0.266 OA
BRANCH   7  10
HETATM   10  C4  UNL     1     -10.962  15.298   6.722  1.00  0.00     0.123 C 
BRANCH  10  11
HETATM   11  C3  UNL     1      -9.839  15.310   7.690  1.00  0.00     0.019 C 
BRANCH  11  12
HETATM   12  C2  UNL     1      -8.638  16.121   7.275  1.00  0.00    -0.003 C 
HETATM   13  C1  UNL     1      -7.446  15.873   8.140  1.00  0.00     0.005 C 
ENDBRANCH  11  12
ENDBRANCH  10  11
ENDBRANCH   7  10
ENDBRANCH   5   6
BRANCH   5  14
HETATM   14  C7  UNL     1     -11.497  13.606   2.134  1.00  0.00     0.037 C 
BRANCH  14  15
HETATM   15  C8  UNL     1     -11.999  13.657   0.766  1.00  0.00    -0.078 C 
HETATM   16  C9  UNL     1     -11.748  12.682  -0.279  1.00  0.00     0.034 C 
HETATM   17  C10 UNL     1     -12.712  11.515  -0.324  1.00  0.00     0.004 C 
HETATM   18  C11 UNL     1     -14.149  11.983  -0.249  1.00  0.00     0.001 C 
HETATM   19  C12 UNL     1     -14.389  12.866   0.934  1.00  0.00     0.004 C 
HETATM   20  C13 UNL     1     -13.482  14.063   0.836  1.00  0.00     0.034 C 
ENDBRANCH  14  15
ENDBRANCH   5  14
ENDBRANCH   3   5
ENDBRANCH   2   3
BRANCH   2  21
HETATM   21  C15 UNL     1      -8.628  16.251   3.112  1.00  0.00     0.254 C 
HETATM   22  N3  UNL     1      -7.952  15.020   3.391  1.00  0.00    -0.060 NA
HETATM   23  O2  UNL     1      -8.383  17.204   3.938  1.00  0.00    -0.275 OA
ENDBRANCH   2  21
ENDBRANCH   1   2
BRANCH   1  24
HETATM   24  C17 UNL     1      -9.826  16.408  -0.519  1.00  0.00     0.110 C 
BRANCH  24  25
HETATM   25  C18 UNL     1      -9.530  15.703  -1.754  1.00  0.00     0.218 C 
HETATM   26  O3  UNL     1      -9.350  14.465  -1.789  1.00  0.00    -0.274 OA
HETATM   27  N4  UNL     1      -9.446  16.460  -2.955  1.00  0.00    -0.356 N 
ATOM     28  H4  UNL     1      -9.591  17.470  -2.943  1.00  0.00     0.162 HD
BRANCH  27  29
HETATM   29  C19 UNL     1      -9.153  15.777  -4.187  1.00  0.00     0.084 C 
HETATM   30  C20 UNL     1      -8.120  16.457  -5.019  1.00  0.00     0.025 C 
HETATM   31  C21 UNL     1      -8.645  16.789  -6.410  1.00  0.00     0.002 C 
HETATM   32  C22 UNL     1      -9.219  15.569  -7.106  1.00  0.00     0.000 C 
HETATM   33  C23 UNL     1     -10.072  14.740  -6.196  1.00  0.00     0.002 C 
HETATM   34  C24 UNL     1     -10.447  15.549  -4.980  1.00  0.00     0.025 C 
ENDBRANCH  27  29
ENDBRANCH  24  25
ENDBRANCH   1  24
BRANCH   1  35
HETATM   35  C25 UNL     1      -7.613  16.861   0.370  1.00  0.00     0.096 C 
BRANCH  35  36
HETATM   36  C26 UNL     1      -6.483  15.918   0.190  1.00  0.00     0.217 C 
HETATM   37  O4  UNL     1      -6.738  14.691   0.139  1.00  0.00    -0.287 OA
BRANCH  36  38
HETATM   38  C27 UNL     1      -5.102  16.401   0.071  1.00  0.00     0.289 C 
HETATM   39  O5  UNL     1      -4.381  16.346   1.122  1.00  0.00    -0.264 OA
HETATM   40  N5  UNL     1      -4.587  16.898  -1.116  1.00  0.00    -0.346 N 
HETATM   41  C28 UNL     1      -5.353  16.983  -2.318  1.00  0.00     0.127 C 
HETATM   42  C36 UNL     1      -3.207  17.366  -1.177  1.00  0.00     0.127 C 
HETATM   43  C29 UNL     1      -4.528  17.524  -3.479  1.00  0.00     0.029 C 
HETATM   44  C30 UNL     1      -3.758  18.768  -3.117  1.00  0.00    -0.037 C 
HETATM   45  C31 UNL     1      -2.606  18.898  -4.089  1.00  0.00     0.010 C 
HETATM   46  C34 UNL     1      -4.640  19.975  -3.352  1.00  0.00     0.010 C 
HETATM   47  C35 UNL     1      -3.238  18.786  -1.720  1.00  0.00     0.029 C 
HETATM   48  C32 UNL     1      -3.137  19.717  -5.246  1.00  0.00     0.001 C 
HETATM   49  C33 UNL     1      -4.235  20.583  -4.672  1.00  0.00     0.001 C 
ENDBRANCH  36  38
ENDBRANCH  35  36
ENDBRANCH   1  35
TORSDOF 16
ENDMDL
