MODEL 1
REMARK VINA RESULT: -7.165828880      0.000      0.000
REMARK  8 active torsions:
REMARK  status: ('A' for Active; 'I' for Inactive)
REMARK    1  A    between atoms: N1_1  and  C1_4 
REMARK    2  A    between atoms: C5_16  and  N5_17 
REMARK    3  A    between atoms: C6_19  and  C7_20 
REMARK    4  A    between atoms: C7_20  and  N6_21 
REMARK    5  A    between atoms: N6_21  and  O3_22 
REMARK    6  A    between atoms: N6_21  and  C8_24 
REMARK    7  A    between atoms: C8_24  and  C9_25 
REMARK    8  A    between atoms: C9_25  and  N7_26 
ROOT
HETATM    1  C1  UNL     1      42.422  50.800  50.683  1.00  0.00     0.679 A 
HETATM    2  N2  UNL     1      41.398  50.853  49.804  1.00  0.00    -0.154 N 
ATOM      3  H2  UNL     1      40.446  50.672  50.121  1.00  0.00     0.187 HD
HETATM    4  C2  UNL     1      41.628  51.143  48.517  1.00  0.00     0.288 A 
HETATM    5  O1  UNL     1      40.698  51.204  47.658  1.00  0.00    -0.265 OA
HETATM    6  C3  UNL     1      42.954  51.386  48.115  1.00  0.00     0.137 A 
HETATM    7  N3  UNL     1      43.201  51.686  46.818  1.00  0.00    -0.302 N 
ATOM      8  H3  UNL     1      42.441  51.731  46.140  1.00  0.00     0.171 HD
HETATM    9  C4  UNL     1      44.462  51.922  46.444  1.00  0.00     0.326 A 
HETATM   10  O2  UNL     1      44.738  52.208  45.237  1.00  0.00    -0.247 OA
HETATM   11  N4  UNL     1      45.478  51.869  47.321  1.00  0.00    -0.292 N 
ATOM     12  H4  UNL     1      46.420  52.059  46.981  1.00  0.00     0.172 HD
HETATM   13  C5  UNL     1      45.318  51.578  48.622  1.00  0.00     0.139 A 
HETATM   14  C10 UNL     1      43.971  51.326  49.015  1.00  0.00     0.125 A 
HETATM   15  N8  UNL     1      43.694  51.032  50.299  1.00  0.00    -0.186 N 
ATOM     16  H8  UNL     1      44.449  50.984  50.984  1.00  0.00     0.184 HD
ENDROOT
BRANCH  13  17
HETATM   17  N5  UNL     1      46.134  51.503  49.520  1.00  0.00    -0.352 N 
HETATM   18  C6  UNL     1      47.335  51.052  49.931  1.00  0.00     0.084 C 
ATOM     19  H5  UNL     1      45.732  52.004  50.312  1.00  0.00     0.166 HD
BRANCH  18  20
HETATM   20  C7  UNL     1      47.717  49.672  49.486  1.00  0.00     0.193 C 
BRANCH  20  21
HETATM   21  N6  UNL     1      47.058  48.710  50.314  1.00  0.00    -0.290 N 
BRANCH  21  22
HETATM   22  O3  UNL     1      47.868  47.946  51.041  1.00  0.00    -0.292 OA
ATOM     23  H3  UNL     1      48.021  48.252  51.927  1.00  0.00     0.244 HD
ENDBRANCH  21  22
BRANCH  21  24
HETATM   24  C8  UNL     1      45.892  48.093  49.813  1.00  0.00     0.176 C 
BRANCH  24  25
HETATM   25  C9  UNL     1      44.884  47.967  50.963  1.00  0.00     0.251 C 
BRANCH  25  26
HETATM   26  N7  UNL     1      43.735  47.252  50.414  1.00  0.00    -0.078 N 
ATOM     27  H73 UNL     1      43.510  47.518  49.455  1.00  0.00     0.274 HD
ATOM     28  H72 UNL     1      43.919  46.266  50.228  1.00  0.00     0.274 HD
ATOM     29  H71 UNL     1      42.968  47.407  51.069  1.00  0.00     0.274 HD
ENDBRANCH  25  26
ENDBRANCH  24  25
ENDBRANCH  21  24
ENDBRANCH  20  21
ENDBRANCH  18  20
ENDBRANCH  13  17
BRANCH   1  30
HETATM   30  N1  UNL     1      42.150  50.519  51.924  1.00  0.00    -0.234 N 
ATOM     31  H12 UNL     1      41.252  50.107  52.175  1.00  0.00     0.174 HD
ATOM     32  H11 UNL     1      42.860  50.721  52.629  1.00  0.00     0.174 HD
ENDBRANCH   1  30
TORSDOF 8
ENDMDL
MODEL 2
REMARK VINA RESULT: -7.030302978      2.462      6.115
REMARK  8 active torsions:
REMARK  status: ('A' for Active; 'I' for Inactive)
REMARK    1  A    between atoms: N1_1  and  C1_4 
REMARK    2  A    between atoms: C5_16  and  N5_17 
REMARK    3  A    between atoms: C6_19  and  C7_20 
REMARK    4  A    between atoms: C7_20  and  N6_21 
REMARK    5  A    between atoms: N6_21  and  O3_22 
REMARK    6  A    between atoms: N6_21  and  C8_24 
REMARK    7  A    between atoms: C8_24  and  C9_25 
REMARK    8  A    between atoms: C9_25  and  N7_26 
ROOT
HETATM    1  C1  UNL     1      46.745  48.805  48.552  1.00  0.00     0.679 A 
HETATM    2  N2  UNL     1      46.377  48.101  49.644  1.00  0.00    -0.154 N 
ATOM      3  H2  UNL     1      46.973  47.349  49.990  1.00  0.00     0.187 HD
HETATM    4  C2  UNL     1      45.231  48.385  50.275  1.00  0.00     0.288 A 
HETATM    5  O1  UNL     1      44.846  47.751  51.303  1.00  0.00    -0.265 OA
HETATM    6  C3  UNL     1      44.432  49.427  49.770  1.00  0.00     0.137 A 
HETATM    7  N3  UNL     1      43.273  49.730  50.402  1.00  0.00    -0.302 N 
ATOM      8  H3  UNL     1      42.978  49.210  51.228  1.00  0.00     0.171 HD
HETATM    9  C4  UNL     1      42.522  50.725  49.920  1.00  0.00     0.326 A 
HETATM   10  O2  UNL     1      41.428  51.042  50.482  1.00  0.00    -0.247 OA
HETATM   11  N4  UNL     1      42.892  51.424  48.834  1.00  0.00    -0.292 N 
ATOM     12  H4  UNL     1      42.281  52.173  48.511  1.00  0.00     0.172 HD
HETATM   13  C5  UNL     1      44.024  51.186  48.151  1.00  0.00     0.139 A 
HETATM   14  C10 UNL     1      44.820  50.123  48.669  1.00  0.00     0.125 A 
HETATM   15  N8  UNL     1      45.980  49.804  48.066  1.00  0.00    -0.186 N 
ATOM     16  H8  UNL     1      46.282  50.319  47.239  1.00  0.00     0.184 HD
ENDROOT
BRANCH  13  17
HETATM   17  N5  UNL     1      44.482  51.737  47.170  1.00  0.00    -0.352 N 
HETATM   18  C6  UNL     1      45.040  52.844  46.643  1.00  0.00     0.084 C 
ATOM     19  H5  UNL     1      44.417  51.062  46.408  1.00  0.00     0.166 HD
BRANCH  18  20
HETATM   20  C7  UNL     1      44.477  54.157  47.101  1.00  0.00     0.193 C 
BRANCH  20  21
HETATM   21  N6  UNL     1      43.236  54.398  46.431  1.00  0.00    -0.290 N 
BRANCH  21  22
HETATM   22  O3  UNL     1      42.167  53.877  47.024  1.00  0.00    -0.292 OA
ATOM     23  H3  UNL     1      41.559  53.438  46.442  1.00  0.00     0.244 HD
ENDBRANCH  21  22
BRANCH  21  24
HETATM   24  C8  UNL     1      43.235  54.399  45.019  1.00  0.00     0.176 C 
BRANCH  24  25
HETATM   25  C9  UNL     1      42.932  55.826  44.542  1.00  0.00     0.251 C 
BRANCH  25  26
HETATM   26  N7  UNL     1      41.550  56.095  44.933  1.00  0.00    -0.078 N 
ATOM     27  H73 UNL     1      40.992  55.251  45.063  1.00  0.00     0.274 HD
ATOM     28  H72 UNL     1      41.459  56.451  45.884  1.00  0.00     0.274 HD
ATOM     29  H71 UNL     1      41.175  56.725  44.224  1.00  0.00     0.274 HD
ENDBRANCH  25  26
ENDBRANCH  24  25
ENDBRANCH  21  24
ENDBRANCH  20  21
ENDBRANCH  18  20
ENDBRANCH  13  17
BRANCH   1  30
HETATM   30  N1  UNL     1      47.869  48.496  47.974  1.00  0.00    -0.234 N 
ATOM     31  H12 UNL     1      48.281  47.572  48.106  1.00  0.00     0.174 HD
ATOM     32  H11 UNL     1      48.318  49.201  47.390  1.00  0.00     0.174 HD
ENDBRANCH   1  30
TORSDOF 8
ENDMDL
MODEL 3
REMARK VINA RESULT: -6.883608189      1.514      2.126
REMARK  8 active torsions:
REMARK  status: ('A' for Active; 'I' for Inactive)
REMARK    1  A    between atoms: N1_1  and  C1_4 
REMARK    2  A    between atoms: C5_16  and  N5_17 
REMARK    3  A    between atoms: C6_19  and  C7_20 
REMARK    4  A    between atoms: C7_20  and  N6_21 
REMARK    5  A    between atoms: N6_21  and  O3_22 
REMARK    6  A    between atoms: N6_21  and  C8_24 
REMARK    7  A    between atoms: C8_24  and  C9_25 
REMARK    8  A    between atoms: C9_25  and  N7_26 
ROOT
HETATM    1  C1  UNL     1      42.575  50.589  50.780  1.00  0.00     0.679 A 
HETATM    2  N2  UNL     1      41.367  50.716  50.190  1.00  0.00    -0.154 N 
ATOM      3  H2  UNL     1      40.517  50.554  50.731  1.00  0.00     0.187 HD
HETATM    4  C2  UNL     1      41.279  51.053  48.897  1.00  0.00     0.288 A 
HETATM    5  O1  UNL     1      40.167  51.184  48.303  1.00  0.00    -0.265 OA
HETATM    6  C3  UNL     1      42.470  51.267  48.181  1.00  0.00     0.137 A 
HETATM    7  N3  UNL     1      42.398  51.615  46.874  1.00  0.00    -0.302 N 
ATOM      8  H3  UNL     1      41.494  51.716  46.412  1.00  0.00     0.171 HD
HETATM    9  C4  UNL     1      43.534  51.823  46.203  1.00  0.00     0.326 A 
HETATM   10  O2  UNL     1      43.510  52.151  44.975  1.00  0.00    -0.247 OA
HETATM   11  N4  UNL     1      44.734  51.696  46.792  1.00  0.00    -0.292 N 
ATOM     12  H4  UNL     1      45.568  51.868  46.231  1.00  0.00     0.172 HD
HETATM   13  C5  UNL     1      44.893  51.355  48.081  1.00  0.00     0.139 A 
HETATM   14  C10 UNL     1      43.677  51.134  48.793  1.00  0.00     0.125 A 
HETATM   15  N8  UNL     1      43.718  50.794  50.095  1.00  0.00    -0.186 N 
ATOM     16  H8  UNL     1      44.618  50.690  50.565  1.00  0.00     0.184 HD
ENDROOT
BRANCH  13  17
HETATM   17  N5  UNL     1      45.903  51.214  48.741  1.00  0.00    -0.352 N 
HETATM   18  C6  UNL     1      47.162  50.737  48.806  1.00  0.00     0.084 C 
ATOM     19  H5  UNL     1      45.717  51.649  49.644  1.00  0.00     0.166 HD
BRANCH  18  20
HETATM   20  C7  UNL     1      47.402  49.399  48.175  1.00  0.00     0.193 C 
BRANCH  20  21
HETATM   21  N6  UNL     1      47.952  48.508  49.150  1.00  0.00    -0.290 N 
BRANCH  21  22
HETATM   22  O3  UNL     1      47.379  47.310  49.202  1.00  0.00    -0.292 OA
ATOM     23  H3  UNL     1      47.593  46.731  48.481  1.00  0.00     0.244 HD
ENDBRANCH  21  22
BRANCH  21  24
HETATM   24  C8  UNL     1      48.382  49.056  50.378  1.00  0.00     0.176 C 
BRANCH  24  25
HETATM   25  C9  UNL     1      49.908  48.916  50.457  1.00  0.00     0.251 C 
BRANCH  25  26
HETATM   26  N7  UNL     1      50.276  47.944  49.430  1.00  0.00    -0.078 N 
ATOM     27  H73 UNL     1      49.777  47.059  49.510  1.00  0.00     0.274 HD
ATOM     28  H72 UNL     1      49.942  48.191  48.499  1.00  0.00     0.274 HD
ATOM     29  H71 UNL     1      51.290  47.847  49.487  1.00  0.00     0.274 HD
ENDBRANCH  25  26
ENDBRANCH  24  25
ENDBRANCH  21  24
ENDBRANCH  20  21
ENDBRANCH  18  20
ENDBRANCH  13  17
BRANCH   1  30
HETATM   30  N1  UNL     1      42.611  50.264  52.039  1.00  0.00    -0.234 N 
ATOM     31  H12 UNL     1      42.860  49.316  52.320  1.00  0.00     0.174 HD
ATOM     32  H11 UNL     1      42.386  50.983  52.727  1.00  0.00     0.174 HD
ENDBRANCH   1  30
TORSDOF 8
ENDMDL
MODEL 4
REMARK VINA RESULT: -6.878254134      2.866      5.751
REMARK  8 active torsions:
REMARK  status: ('A' for Active; 'I' for Inactive)
REMARK    1  A    between atoms: N1_1  and  C1_4 
REMARK    2  A    between atoms: C5_16  and  N5_17 
REMARK    3  A    between atoms: C6_19  and  C7_20 
REMARK    4  A    between atoms: C7_20  and  N6_21 
REMARK    5  A    between atoms: N6_21  and  O3_22 
REMARK    6  A    between atoms: N6_21  and  C8_24 
REMARK    7  A    between atoms: C8_24  and  C9_25 
REMARK    8  A    between atoms: C9_25  and  N7_26 
ROOT
HETATM    1  C1  UNL     1      42.248  50.346  48.990  1.00  0.00     0.679 A 
HETATM    2  N2  UNL     1      42.947  49.786  50.002  1.00  0.00    -0.154 N 
ATOM      3  H2  UNL     1      42.457  49.279  50.739  1.00  0.00     0.187 HD
HETATM    4  C2  UNL     1      44.281  49.895  50.041  1.00  0.00     0.288 A 
HETATM    5  O1  UNL     1      44.977  49.387  50.971  1.00  0.00    -0.265 OA
HETATM    6  C3  UNL     1      44.923  50.604  49.010  1.00  0.00     0.137 A 
HETATM    7  N3  UNL     1      46.272  50.717  49.033  1.00  0.00    -0.302 N 
ATOM      8  H3  UNL     1      46.817  50.301  49.788  1.00  0.00     0.171 HD
HETATM    9  C4  UNL     1      46.876  51.385  48.046  1.00  0.00     0.326 A 
HETATM   10  O2  UNL     1      48.140  51.515  48.029  1.00  0.00    -0.247 OA
HETATM   11  N4  UNL     1      46.178  51.940  47.042  1.00  0.00    -0.292 N 
ATOM     12  H4  UNL     1      46.691  52.438  46.315  1.00  0.00     0.172 HD
HETATM   13  C5  UNL     1      44.840  51.874  46.945  1.00  0.00     0.139 A 
HETATM   14  C10 UNL     1      44.202  51.160  48.001  1.00  0.00     0.125 A 
HETATM   15  N8  UNL     1      42.862  51.026  48.001  1.00  0.00    -0.186 N 
ATOM     16  H8  UNL     1      42.310  51.439  47.249  1.00  0.00     0.184 HD
ENDROOT
BRANCH  13  17
HETATM   17  N5  UNL     1      44.088  52.316  46.099  1.00  0.00    -0.352 N 
HETATM   18  C6  UNL     1      43.762  53.343  45.291  1.00  0.00     0.084 C 
ATOM     19  H5  UNL     1      43.399  51.585  45.921  1.00  0.00     0.166 HD
BRANCH  18  20
HETATM   20  C7  UNL     1      43.892  54.718  45.875  1.00  0.00     0.193 C 
BRANCH  20  21
HETATM   21  N6  UNL     1      42.690  55.048  46.578  1.00  0.00    -0.290 N 
BRANCH  21  22
HETATM   22  O3  UNL     1      42.035  54.011  47.089  1.00  0.00    -0.292 OA
ATOM     23  H3  UNL     1      41.116  53.961  46.853  1.00  0.00     0.244 HD
ENDBRANCH  21  22
BRANCH  21  24
HETATM   24  C8  UNL     1      41.901  56.108  46.079  1.00  0.00     0.176 C 
BRANCH  24  25
HETATM   25  C9  UNL     1      41.203  56.785  47.265  1.00  0.00     0.251 C 
BRANCH  25  26
HETATM   26  N7  UNL     1      39.834  56.274  47.271  1.00  0.00    -0.078 N 
ATOM     27  H73 UNL     1      39.470  56.075  46.339  1.00  0.00     0.274 HD
ATOM     28  H72 UNL     1      39.755  55.326  47.639  1.00  0.00     0.274 HD
ATOM     29  H71 UNL     1      39.281  56.959  47.786  1.00  0.00     0.274 HD
ENDBRANCH  25  26
ENDBRANCH  24  25
ENDBRANCH  21  24
ENDBRANCH  20  21
ENDBRANCH  18  20
ENDBRANCH  13  17
BRANCH   1  30
HETATM   30  N1  UNL     1      40.954  50.211  48.991  1.00  0.00    -0.234 N 
ATOM     31  H12 UNL     1      40.350  51.019  48.842  1.00  0.00     0.174 HD
ATOM     32  H11 UNL     1      40.569  49.278  49.144  1.00  0.00     0.174 HD
ENDBRANCH   1  30
TORSDOF 8
ENDMDL
MODEL 5
REMARK VINA RESULT: -6.872273458      1.342      1.646
REMARK  8 active torsions:
REMARK  status: ('A' for Active; 'I' for Inactive)
REMARK    1  A    between atoms: N1_1  and  C1_4 
REMARK    2  A    between atoms: C5_16  and  N5_17 
REMARK    3  A    between atoms: C6_19  and  C7_20 
REMARK    4  A    between atoms: C7_20  and  N6_21 
REMARK    5  A    between atoms: N6_21  and  O3_22 
REMARK    6  A    between atoms: N6_21  and  C8_24 
REMARK    7  A    between atoms: C8_24  and  C9_25 
REMARK    8  A    between atoms: C9_25  and  N7_26 
ROOT
HETATM    1  C1  UNL     1      42.372  50.805  48.534  1.00  0.00     0.679 A 
HETATM    2  N2  UNL     1      41.899  51.093  47.302  1.00  0.00    -0.154 N 
ATOM      3  H2  UNL     1      40.939  50.851  47.057  1.00  0.00     0.187 HD
HETATM    4  C2  UNL     1      42.686  51.694  46.401  1.00  0.00     0.288 A 
HETATM    5  O1  UNL     1      42.284  51.983  45.234  1.00  0.00    -0.265 OA
HETATM    6  C3  UNL     1      44.005  52.011  46.773  1.00  0.00     0.137 A 
HETATM    7  N3  UNL     1      44.810  52.625  45.874  1.00  0.00    -0.302 N 
ATOM      8  H3  UNL     1      44.471  52.851  44.939  1.00  0.00     0.171 HD
HETATM    9  C4  UNL     1      46.060  52.930  46.237  1.00  0.00     0.326 A 
HETATM   10  O2  UNL     1      46.849  53.506  45.424  1.00  0.00    -0.247 OA
HETATM   11  N4  UNL     1      46.527  52.642  47.463  1.00  0.00    -0.292 N 
ATOM     12  H4  UNL     1      47.488  52.899  47.685  1.00  0.00     0.172 HD
HETATM   13  C5  UNL     1      45.794  52.035  48.411  1.00  0.00     0.139 A 
HETATM   14  C10 UNL     1      44.462  51.713  48.018  1.00  0.00     0.125 A 
HETATM   15  N8  UNL     1      43.636  51.108  48.893  1.00  0.00    -0.186 N 
ATOM     16  H8  UNL     1      43.968  50.878  49.830  1.00  0.00     0.184 HD
ENDROOT
BRANCH  13  17
HETATM   17  N5  UNL     1      46.080  51.726  49.551  1.00  0.00    -0.352 N 
HETATM   18  C6  UNL     1      46.964  51.143  50.384  1.00  0.00     0.084 C 
ATOM     19  H5  UNL     1      45.310  52.051  50.135  1.00  0.00     0.166 HD
BRANCH  18  20
HETATM   20  C7  UNL     1      47.615  49.885  49.892  1.00  0.00     0.193 C 
BRANCH  20  21
HETATM   21  N6  UNL     1      46.948  48.755  50.462  1.00  0.00    -0.290 N 
BRANCH  21  22
HETATM   22  O3  UNL     1      47.750  47.834  50.985  1.00  0.00    -0.292 OA
ATOM     23  H3  UNL     1      48.674  48.055  50.977  1.00  0.00     0.244 HD
ENDBRANCH  21  22
BRANCH  21  24
HETATM   24  C8  UNL     1      45.780  48.284  49.823  1.00  0.00     0.176 C 
BRANCH  24  25
HETATM   25  C9  UNL     1      44.645  48.261  50.856  1.00  0.00     0.251 C 
BRANCH  25  26
HETATM   26  N7  UNL     1      43.749  47.183  50.445  1.00  0.00    -0.078 N 
ATOM     27  H73 UNL     1      43.277  47.362  49.558  1.00  0.00     0.274 HD
ATOM     28  H72 UNL     1      44.238  46.336  50.155  1.00  0.00     0.274 HD
ATOM     29  H71 UNL     1      43.108  47.038  51.225  1.00  0.00     0.274 HD
ENDBRANCH  25  26
ENDBRANCH  24  25
ENDBRANCH  21  24
ENDBRANCH  20  21
ENDBRANCH  18  20
ENDBRANCH  13  17
BRANCH   1  30
HETATM   30  N1  UNL     1      41.570  50.225  49.378  1.00  0.00    -0.234 N 
ATOM     31  H12 UNL     1      41.920  49.507  50.013  1.00  0.00     0.174 HD
ATOM     32  H11 UNL     1      40.591  50.509  49.384  1.00  0.00     0.174 HD
ENDBRANCH   1  30
TORSDOF 8
ENDMDL
