MODEL 1
REMARK VINA RESULT: -6.471336936      0.000      0.000
REMARK  16 active torsions:
REMARK  status: ('A' for Active; 'I' for Inactive)
REMARK    1  A    between atoms: C2_3  and  C3_4 
REMARK    2  A    between atoms: C3_4  and  C4_5 
REMARK    3  A    between atoms: C4_5  and  C5_6 
REMARK    4  A    between atoms: C5_6  and  C6_7 
REMARK    5  A    between atoms: C6_7  and  O1_8 
REMARK    6  A    between atoms: O1_8  and  C7_9 
REMARK    7  A    between atoms: C7_9  and  C8_10 
REMARK    8  A    between atoms: C8_10  and  C9_11 
REMARK    9  A    between atoms: C9_11  and  N2_12 
REMARK   10  A    between atoms: N2_12  and  C10_14 
REMARK   11  A    between atoms: C11_17  and  N4_18 
REMARK   12  A    between atoms: N4_18  and  C12_20 
REMARK   13  A    between atoms: C12_20  and  C13_21 
REMARK   14  A    between atoms: C13_21  and  O2_22 
REMARK   15  A    between atoms: C14_26  and  N6_27 
REMARK   16  A    between atoms: N6_27  and  C15_29 
ROOT
HETATM    1  N1  UNL     1      72.788   4.905  13.498  1.00  0.00    -0.197 NA
HETATM    2  C1  UNL     1      71.976   4.904  12.669  1.00  0.00     0.059 C 
HETATM    3  C2  UNL     1      70.951   4.893  11.601  1.00  0.00     0.124 C 
ENDROOT
BRANCH   3   4
HETATM    4  C3  UNL     1      70.842   6.252  10.992  1.00  0.00     0.014 C 
BRANCH   4   5
HETATM    5  C4  UNL     1      72.111   6.723  10.355  1.00  0.00     0.003 C 
BRANCH   5   6
HETATM    6  C5  UNL     1      72.334   8.166  10.658  1.00  0.00     0.026 C 
BRANCH   6   7
HETATM    7  C6  UNL     1      71.229   9.025  10.067  1.00  0.00     0.167 C 
BRANCH   7   8
HETATM    8  O1  UNL     1      71.170  10.287  10.605  1.00  0.00    -0.391 OA
BRANCH   8   9
HETATM    9  C7  UNL     1      71.459  10.359  11.945  1.00  0.00     0.169 C 
BRANCH   9  10
HETATM   10  C8  UNL     1      72.141  11.652  12.333  1.00  0.00     0.046 C 
BRANCH  10  11
HETATM   11  C9  UNL     1      72.829  12.300  11.168  1.00  0.00     0.140 C 
BRANCH  11  12
HETATM   12  N2  UNL     1      74.041  11.582  10.836  1.00  0.00    -0.225 N 
ATOM     13  H2  UNL     1      74.614  11.207  11.593  1.00  0.00     0.177 HD
BRANCH  12  14
HETATM   14  C10 UNL     1      74.425  11.399   9.615  1.00  0.00     0.707 A 
HETATM   15  N3  UNL     1      74.282  12.424   8.764  1.00  0.00    -0.022 N 
HETATM   16  C11 UNL     1      74.670  12.273   7.486  1.00  0.00     0.707 A 
ATOM     17  H3  UNL     1      73.885  13.308   9.081  1.00  0.00     0.203 HD
HETATM   18  N5  UNL     1      75.195  11.089   7.089  1.00  0.00    -0.022 N 
HETATM   19  C14 UNL     1      75.349  10.032   7.935  1.00  0.00     0.707 A 
ATOM     20  H5  UNL     1      75.487  10.985   6.118  1.00  0.00     0.203 HD
HETATM   21  N7  UNL     1      74.951  10.223   9.200  1.00  0.00    -0.022 N 
ATOM     22  H7  UNL     1      75.049   9.460   9.871  1.00  0.00     0.203 HD
BRANCH  16  23
HETATM   23  N4  UNL     1      74.543  13.253   6.638  1.00  0.00    -0.223 N 
ATOM     24  H4  UNL     1      73.975  14.071   6.859  1.00  0.00     0.177 HD
BRANCH  23  25
HETATM   25  C12 UNL     1      75.235  13.142   5.376  1.00  0.00     0.164 C 
BRANCH  25  26
HETATM   26  C13 UNL     1      74.831  14.217   4.410  1.00  0.00     0.184 C 
BRANCH  26  27
HETATM   27  O2  UNL     1      73.427  14.363   4.438  1.00  0.00    -0.399 OA
ATOM     28  H2  UNL     1      73.211  15.269   4.626  1.00  0.00     0.209 HD
ENDBRANCH  26  27
ENDBRANCH  25  26
ENDBRANCH  23  25
ENDBRANCH  16  23
BRANCH  19  29
HETATM   29  N6  UNL     1      75.851   8.929   7.517  1.00  0.00    -0.220 N 
ATOM     30  H6  UNL     1      76.642   8.518   8.012  1.00  0.00     0.178 HD
BRANCH  29  31
HETATM   31  C15 UNL     1      75.321   8.270   6.374  1.00  0.00     0.099 C 
HETATM   32  C16 UNL     1      74.419   7.103   6.743  1.00  0.00     0.026 C 
HETATM   33  C17 UNL     1      73.960   6.460   5.467  1.00  0.00     0.002 C 
HETATM   34  C18 UNL     1      74.315   7.240   4.237  1.00  0.00     0.000 C 
HETATM   35  C19 UNL     1      75.776   7.519   4.106  1.00  0.00     0.002 C 
HETATM   36  C20 UNL     1      76.400   7.686   5.474  1.00  0.00     0.026 C 
ENDBRANCH  29  31
ENDBRANCH  19  29
ENDBRANCH  12  14
ENDBRANCH  11  12
ENDBRANCH  10  11
ENDBRANCH   9  10
ENDBRANCH   8   9
ENDBRANCH   7   8
ENDBRANCH   6   7
ENDBRANCH   5   6
ENDBRANCH   4   5
ENDBRANCH   3   4
TORSDOF 16
ENDMDL
MODEL 2
REMARK VINA RESULT: -6.334723955      3.474      7.572
REMARK  16 active torsions:
REMARK  status: ('A' for Active; 'I' for Inactive)
REMARK    1  A    between atoms: C2_3  and  C3_4 
REMARK    2  A    between atoms: C3_4  and  C4_5 
REMARK    3  A    between atoms: C4_5  and  C5_6 
REMARK    4  A    between atoms: C5_6  and  C6_7 
REMARK    5  A    between atoms: C6_7  and  O1_8 
REMARK    6  A    between atoms: O1_8  and  C7_9 
REMARK    7  A    between atoms: C7_9  and  C8_10 
REMARK    8  A    between atoms: C8_10  and  C9_11 
REMARK    9  A    between atoms: C9_11  and  N2_12 
REMARK   10  A    between atoms: N2_12  and  C10_14 
REMARK   11  A    between atoms: C11_17  and  N4_18 
REMARK   12  A    between atoms: N4_18  and  C12_20 
REMARK   13  A    between atoms: C12_20  and  C13_21 
REMARK   14  A    between atoms: C13_21  and  O2_22 
REMARK   15  A    between atoms: C14_26  and  N6_27 
REMARK   16  A    between atoms: N6_27  and  C15_29 
ROOT
HETATM    1  N1  UNL     1      73.116   4.872  13.846  1.00  0.00    -0.197 NA
HETATM    2  C1  UNL     1      72.333   4.749  13.000  1.00  0.00     0.059 C 
HETATM    3  C2  UNL     1      71.344   4.597  11.908  1.00  0.00     0.124 C 
ENDROOT
BRANCH   3   4
HETATM    4  C3  UNL     1      70.341   5.701  11.977  1.00  0.00     0.014 C 
BRANCH   4   5
HETATM    5  C4  UNL     1      70.268   6.518  10.727  1.00  0.00     0.003 C 
BRANCH   5   6
HETATM    6  C5  UNL     1      70.865   7.865  10.957  1.00  0.00     0.026 C 
BRANCH   6   7
HETATM    7  C6  UNL     1      72.383   7.802  10.929  1.00  0.00     0.167 C 
BRANCH   7   8
HETATM    8  O1  UNL     1      72.884   7.164   9.821  1.00  0.00    -0.391 OA
BRANCH   8   9
HETATM    9  C7  UNL     1      73.735   7.920   9.053  1.00  0.00     0.169 C 
BRANCH   9  10
HETATM   10  C8  UNL     1      73.013   8.945   8.207  1.00  0.00     0.046 C 
BRANCH  10  11
HETATM   11  C9  UNL     1      73.234  10.344   8.703  1.00  0.00     0.140 C 
BRANCH  11  12
HETATM   12  N2  UNL     1      72.039  10.843   9.352  1.00  0.00    -0.225 N 
ATOM     13  H2  UNL     1      71.149  10.783   8.856  1.00  0.00     0.177 HD
BRANCH  12  14
HETATM   14  C10 UNL     1      72.059  11.361  10.536  1.00  0.00     0.707 A 
HETATM   15  N3  UNL     1      73.257  11.665  11.055  1.00  0.00    -0.022 N 
HETATM   16  C11 UNL     1      73.319  12.206  12.284  1.00  0.00     0.707 A 
ATOM     17  H3  UNL     1      74.111  11.488  10.525  1.00  0.00     0.203 HD
HETATM   18  N5  UNL     1      72.172  12.431  12.967  1.00  0.00    -0.022 N 
HETATM   19  C14 UNL     1      70.943  12.130  12.461  1.00  0.00     0.707 A 
ATOM     20  H5  UNL     1      72.231  12.843  13.898  1.00  0.00     0.203 HD
HETATM   21  N7  UNL     1      70.923  11.593  11.234  1.00  0.00    -0.022 N 
ATOM     22  H7  UNL     1      70.026  11.353  10.813  1.00  0.00     0.203 HD
BRANCH  16  23
HETATM   23  N4  UNL     1      74.470  12.511  12.811  1.00  0.00    -0.223 N 
ATOM     24  H4  UNL     1      75.133  11.786  13.087  1.00  0.00     0.177 HD
BRANCH  23  25
HETATM   25  C12 UNL     1      74.775  13.910  12.992  1.00  0.00     0.164 C 
BRANCH  25  26
HETATM   26  C13 UNL     1      76.057  14.120  13.743  1.00  0.00     0.184 C 
BRANCH  26  27
HETATM   27  O2  UNL     1      75.762  14.481  15.075  1.00  0.00    -0.399 OA
ATOM     28  H2  UNL     1      76.403  15.114  15.376  1.00  0.00     0.209 HD
ENDBRANCH  26  27
ENDBRANCH  25  26
ENDBRANCH  23  25
ENDBRANCH  16  23
BRANCH  19  29
HETATM   29  N6  UNL     1      69.883  12.360  13.143  1.00  0.00    -0.220 N 
ATOM     30  H6  UNL     1      69.068  11.760  13.020  1.00  0.00     0.178 HD
BRANCH  29  31
HETATM   31  C15 UNL     1      69.826  13.438  14.068  1.00  0.00     0.099 C 
HETATM   32  C16 UNL     1      68.647  13.325  15.020  1.00  0.00     0.026 C 
HETATM   33  C17 UNL     1      68.662  14.533  15.911  1.00  0.00     0.002 C 
HETATM   34  C18 UNL     1      69.901  15.365  15.777  1.00  0.00     0.000 C 
HETATM   35  C19 UNL     1      70.164  15.827  14.382  1.00  0.00     0.002 C 
HETATM   36  C20 UNL     1      69.678  14.794  13.390  1.00  0.00     0.026 C 
ENDBRANCH  29  31
ENDBRANCH  19  29
ENDBRANCH  12  14
ENDBRANCH  11  12
ENDBRANCH  10  11
ENDBRANCH   9  10
ENDBRANCH   8   9
ENDBRANCH   7   8
ENDBRANCH   6   7
ENDBRANCH   5   6
ENDBRANCH   4   5
ENDBRANCH   3   4
TORSDOF 16
ENDMDL
MODEL 3
REMARK VINA RESULT: -6.166865101      1.479      1.832
REMARK  16 active torsions:
REMARK  status: ('A' for Active; 'I' for Inactive)
REMARK    1  A    between atoms: C2_3  and  C3_4 
REMARK    2  A    between atoms: C3_4  and  C4_5 
REMARK    3  A    between atoms: C4_5  and  C5_6 
REMARK    4  A    between atoms: C5_6  and  C6_7 
REMARK    5  A    between atoms: C6_7  and  O1_8 
REMARK    6  A    between atoms: O1_8  and  C7_9 
REMARK    7  A    between atoms: C7_9  and  C8_10 
REMARK    8  A    between atoms: C8_10  and  C9_11 
REMARK    9  A    between atoms: C9_11  and  N2_12 
REMARK   10  A    between atoms: N2_12  and  C10_14 
REMARK   11  A    between atoms: C11_17  and  N4_18 
REMARK   12  A    between atoms: N4_18  and  C12_20 
REMARK   13  A    between atoms: C12_20  and  C13_21 
REMARK   14  A    between atoms: C13_21  and  O2_22 
REMARK   15  A    between atoms: C14_26  and  N6_27 
REMARK   16  A    between atoms: N6_27  and  C15_29 
ROOT
HETATM    1  N1  UNL     1      71.130   3.748  12.360  1.00  0.00    -0.197 NA
HETATM    2  C1  UNL     1      71.699   4.758  12.392  1.00  0.00     0.059 C 
HETATM    3  C2  UNL     1      72.412   6.055  12.444  1.00  0.00     0.124 C 
ENDROOT
BRANCH   3   4
HETATM    4  C3  UNL     1      72.247   6.774  11.146  1.00  0.00     0.014 C 
BRANCH   4   5
HETATM    5  C4  UNL     1      70.818   7.021  10.779  1.00  0.00     0.003 C 
BRANCH   5   6
HETATM    6  C5  UNL     1      70.613   8.462  10.453  1.00  0.00     0.026 C 
BRANCH   6   7
HETATM    7  C6  UNL     1      70.759   9.329  11.692  1.00  0.00     0.167 C 
BRANCH   7   8
HETATM    8  O1  UNL     1      71.304  10.563  11.436  1.00  0.00    -0.391 OA
BRANCH   8   9
HETATM    9  C7  UNL     1      71.123  11.493  12.429  1.00  0.00     0.169 C 
BRANCH   9  10
HETATM   10  C8  UNL     1      72.365  12.311  12.704  1.00  0.00     0.046 C 
BRANCH  10  11
HETATM   11  C9  UNL     1      72.985  12.839  11.443  1.00  0.00     0.140 C 
BRANCH  11  12
HETATM   12  N2  UNL     1      74.075  11.984  11.022  1.00  0.00    -0.225 N 
ATOM     13  H2  UNL     1      74.827  11.785  11.683  1.00  0.00     0.177 HD
BRANCH  12  14
HETATM   14  C10 UNL     1      74.131  11.464   9.840  1.00  0.00     0.707 A 
HETATM   15  N3  UNL     1      74.580  12.242   8.845  1.00  0.00    -0.022 N 
HETATM   16  C11 UNL     1      74.654  11.737   7.602  1.00  0.00     0.707 A 
ATOM     17  H3  UNL     1      74.864  13.205   9.030  1.00  0.00     0.203 HD
HETATM   18  N5  UNL     1      74.272  10.457   7.384  1.00  0.00    -0.022 N 
HETATM   19  C14 UNL     1      73.811   9.647   8.378  1.00  0.00     0.707 A 
ATOM     20  H5  UNL     1      74.332  10.084   6.437  1.00  0.00     0.203 HD
HETATM   21  N7  UNL     1      73.754  10.187   9.603  1.00  0.00    -0.022 N 
ATOM     22  H7  UNL     1      73.416   9.617  10.379  1.00  0.00     0.203 HD
BRANCH  16  23
HETATM   23  N4  UNL     1      75.087  12.471   6.618  1.00  0.00    -0.223 N 
ATOM     24  H4  UNL     1      74.849  12.251   5.650  1.00  0.00     0.177 HD
BRANCH  23  25
HETATM   25  C12 UNL     1      75.916  13.608   6.943  1.00  0.00     0.164 C 
BRANCH  25  26
HETATM   26  C13 UNL     1      75.260  14.910   6.588  1.00  0.00     0.184 C 
BRANCH  26  27
HETATM   27  O2  UNL     1      74.292  15.224   7.566  1.00  0.00    -0.399 OA
ATOM     28  H2  UNL     1      74.510  16.058   7.965  1.00  0.00     0.209 HD
ENDBRANCH  26  27
ENDBRANCH  25  26
ENDBRANCH  23  25
ENDBRANCH  16  23
BRANCH  19  29
HETATM   29  N6  UNL     1      73.460   8.441   8.126  1.00  0.00    -0.220 N 
ATOM     30  H6  UNL     1      72.501   8.147   8.312  1.00  0.00     0.178 HD
BRANCH  29  31
HETATM   31  C15 UNL     1      74.387   7.504   7.592  1.00  0.00     0.099 C 
HETATM   32  C16 UNL     1      75.827   7.972   7.721  1.00  0.00     0.026 C 
HETATM   33  C17 UNL     1      76.704   6.933   7.086  1.00  0.00     0.002 C 
HETATM   34  C18 UNL     1      75.978   5.674   6.719  1.00  0.00     0.000 C 
HETATM   35  C19 UNL     1      74.811   5.899   5.815  1.00  0.00     0.002 C 
HETATM   36  C20 UNL     1      74.172   7.238   6.109  1.00  0.00     0.026 C 
ENDBRANCH  29  31
ENDBRANCH  19  29
ENDBRANCH  12  14
ENDBRANCH  11  12
ENDBRANCH  10  11
ENDBRANCH   9  10
ENDBRANCH   8   9
ENDBRANCH   7   8
ENDBRANCH   6   7
ENDBRANCH   5   6
ENDBRANCH   4   5
ENDBRANCH   3   4
TORSDOF 16
ENDMDL
MODEL 4
REMARK VINA RESULT: -6.163288617      2.443      2.878
REMARK  16 active torsions:
REMARK  status: ('A' for Active; 'I' for Inactive)
REMARK    1  A    between atoms: C2_3  and  C3_4 
REMARK    2  A    between atoms: C3_4  and  C4_5 
REMARK    3  A    between atoms: C4_5  and  C5_6 
REMARK    4  A    between atoms: C5_6  and  C6_7 
REMARK    5  A    between atoms: C6_7  and  O1_8 
REMARK    6  A    between atoms: O1_8  and  C7_9 
REMARK    7  A    between atoms: C7_9  and  C8_10 
REMARK    8  A    between atoms: C8_10  and  C9_11 
REMARK    9  A    between atoms: C9_11  and  N2_12 
REMARK   10  A    between atoms: N2_12  and  C10_14 
REMARK   11  A    between atoms: C11_17  and  N4_18 
REMARK   12  A    between atoms: N4_18  and  C12_20 
REMARK   13  A    between atoms: C12_20  and  C13_21 
REMARK   14  A    between atoms: C13_21  and  O2_22 
REMARK   15  A    between atoms: C14_26  and  N6_27 
REMARK   16  A    between atoms: N6_27  and  C15_29 
ROOT
HETATM    1  N1  UNL     1      73.089   4.881  13.719  1.00  0.00    -0.197 NA
HETATM    2  C1  UNL     1      72.181   4.879  12.998  1.00  0.00     0.059 C 
HETATM    3  C2  UNL     1      71.025   4.858  12.072  1.00  0.00     0.124 C 
ENDROOT
BRANCH   3   4
HETATM    4  C3  UNL     1      71.354   5.630  10.837  1.00  0.00     0.014 C 
BRANCH   4   5
HETATM    5  C4  UNL     1      72.278   6.781  11.082  1.00  0.00     0.003 C 
BRANCH   5   6
HETATM    6  C5  UNL     1      72.340   7.656   9.876  1.00  0.00     0.026 C 
BRANCH   6   7
HETATM    7  C6  UNL     1      71.156   8.606   9.829  1.00  0.00     0.167 C 
BRANCH   7   8
HETATM    8  O1  UNL     1      71.453   9.824   9.270  1.00  0.00    -0.391 OA
BRANCH   8   9
HETATM    9  C7  UNL     1      71.112  10.911  10.036  1.00  0.00     0.169 C 
BRANCH   9  10
HETATM   10  C8  UNL     1      71.926  11.017  11.306  1.00  0.00     0.046 C 
BRANCH  10  11
HETATM   11  C9  UNL     1      73.081  11.965  11.160  1.00  0.00     0.140 C 
BRANCH  11  12
HETATM   12  N2  UNL     1      73.559  11.970   9.793  1.00  0.00    -0.225 N 
ATOM     13  H2  UNL     1      73.015  12.463   9.084  1.00  0.00     0.177 HD
BRANCH  12  14
HETATM   14  C10 UNL     1      74.648  11.372   9.438  1.00  0.00     0.707 A 
HETATM   15  N3  UNL     1      75.788  12.073   9.515  1.00  0.00    -0.022 N 
HETATM   16  C11 UNL     1      76.943  11.486   9.156  1.00  0.00     0.707 A 
ATOM     17  H3  UNL     1      75.780  13.040   9.843  1.00  0.00     0.203 HD
HETATM   18  N5  UNL     1      76.927  10.203   8.725  1.00  0.00    -0.022 N 
HETATM   19  C14 UNL     1      75.782   9.470   8.637  1.00  0.00     0.707 A 
ATOM     20  H5  UNL     1      77.809   9.767   8.456  1.00  0.00     0.203 HD
HETATM   21  N7  UNL     1      74.652  10.090   9.005  1.00  0.00    -0.022 N 
ATOM     22  H7  UNL     1      73.770   9.581   8.958  1.00  0.00     0.203 HD
BRANCH  16  23
HETATM   23  N4  UNL     1      78.064  12.145   9.222  1.00  0.00    -0.223 N 
ATOM     24  H4  UNL     1      78.243  12.946   8.616  1.00  0.00     0.177 HD
BRANCH  23  25
HETATM   25  C12 UNL     1      79.047  11.702  10.182  1.00  0.00     0.164 C 
BRANCH  25  26
HETATM   26  C13 UNL     1      80.324  11.264   9.529  1.00  0.00     0.184 C 
BRANCH  26  27
HETATM   27  O2  UNL     1      80.075  10.118   8.743  1.00  0.00    -0.399 OA
ATOM     28  H2  UNL     1      79.288  10.256   8.230  1.00  0.00     0.209 HD
ENDBRANCH  26  27
ENDBRANCH  25  26
ENDBRANCH  23  25
ENDBRANCH  16  23
BRANCH  19  29
HETATM   29  N6  UNL     1      75.813   8.258   8.224  1.00  0.00    -0.220 N 
ATOM     30  H6  UNL     1      76.098   7.517   8.863  1.00  0.00     0.178 HD
BRANCH  29  31
HETATM   31  C15 UNL     1      75.456   7.930   6.888  1.00  0.00     0.099 C 
HETATM   32  C16 UNL     1      74.285   6.963   6.819  1.00  0.00     0.026 C 
HETATM   33  C17 UNL     1      74.030   6.656   5.372  1.00  0.00     0.002 C 
HETATM   34  C18 UNL     1      74.813   7.515   4.427  1.00  0.00     0.000 C 
HETATM   35  C19 UNL     1      76.288   7.461   4.650  1.00  0.00     0.002 C 
HETATM   36  C20 UNL     1      76.587   7.260   6.119  1.00  0.00     0.026 C 
ENDBRANCH  29  31
ENDBRANCH  19  29
ENDBRANCH  12  14
ENDBRANCH  11  12
ENDBRANCH  10  11
ENDBRANCH   9  10
ENDBRANCH   8   9
ENDBRANCH   7   8
ENDBRANCH   6   7
ENDBRANCH   5   6
ENDBRANCH   4   5
ENDBRANCH   3   4
TORSDOF 16
ENDMDL
MODEL 5
REMARK VINA RESULT: -6.117329404      2.671      4.881
REMARK  16 active torsions:
REMARK  status: ('A' for Active; 'I' for Inactive)
REMARK    1  A    between atoms: C2_3  and  C3_4 
REMARK    2  A    between atoms: C3_4  and  C4_5 
REMARK    3  A    between atoms: C4_5  and  C5_6 
REMARK    4  A    between atoms: C5_6  and  C6_7 
REMARK    5  A    between atoms: C6_7  and  O1_8 
REMARK    6  A    between atoms: O1_8  and  C7_9 
REMARK    7  A    between atoms: C7_9  and  C8_10 
REMARK    8  A    between atoms: C8_10  and  C9_11 
REMARK    9  A    between atoms: C9_11  and  N2_12 
REMARK   10  A    between atoms: N2_12  and  C10_14 
REMARK   11  A    between atoms: C11_17  and  N4_18 
REMARK   12  A    between atoms: N4_18  and  C12_20 
REMARK   13  A    between atoms: C12_20  and  C13_21 
REMARK   14  A    between atoms: C13_21  and  O2_22 
REMARK   15  A    between atoms: C14_26  and  N6_27 
REMARK   16  A    between atoms: N6_27  and  C15_29 
ROOT
HETATM    1  N1  UNL     1      73.056   4.936  13.661  1.00  0.00    -0.197 NA
HETATM    2  C1  UNL     1      72.205   4.910  12.873  1.00  0.00     0.059 C 
HETATM    3  C2  UNL     1      71.125   4.861  11.861  1.00  0.00     0.124 C 
ENDROOT
BRANCH   3   4
HETATM    4  C3  UNL     1      71.381   5.881  10.800  1.00  0.00     0.014 C 
BRANCH   4   5
HETATM    5  C4  UNL     1      70.253   6.846  10.618  1.00  0.00     0.003 C 
BRANCH   5   6
HETATM    6  C5  UNL     1      70.770   8.245  10.605  1.00  0.00     0.026 C 
BRANCH   6   7
HETATM    7  C6  UNL     1      70.940   8.777  12.018  1.00  0.00     0.167 C 
BRANCH   7   8
HETATM    8  O1  UNL     1      72.147   9.397  12.227  1.00  0.00    -0.391 OA
BRANCH   8   9
HETATM    9  C7  UNL     1      72.068  10.635  12.816  1.00  0.00     0.169 C 
BRANCH   9  10
HETATM   10  C8  UNL     1      71.568  11.706  11.873  1.00  0.00     0.046 C 
BRANCH  10  11
HETATM   11  C9  UNL     1      72.626  12.143  10.902  1.00  0.00     0.140 C 
BRANCH  11  12
HETATM   12  N2  UNL     1      72.642  11.270   9.747  1.00  0.00    -0.225 N 
ATOM     13  H2  UNL     1      71.760  11.059   9.279  1.00  0.00     0.177 HD
BRANCH  12  14
HETATM   14  C10 UNL     1      73.731  10.749   9.288  1.00  0.00     0.707 A 
HETATM   15  N3  UNL     1      73.631   9.968   8.204  1.00  0.00    -0.022 N 
HETATM   16  C11 UNL     1      74.743   9.407   7.696  1.00  0.00     0.707 A 
ATOM     17  H3  UNL     1      72.724   9.800   7.769  1.00  0.00     0.203 HD
HETATM   18  N5  UNL     1      75.935   9.645   8.291  1.00  0.00    -0.022 N 
HETATM   19  C14 UNL     1      76.063  10.435   9.395  1.00  0.00     0.707 A 
ATOM     20  H5  UNL     1      76.772   9.216   7.897  1.00  0.00     0.203 HD
HETATM   21  N7  UNL     1      74.932  10.975   9.870  1.00  0.00    -0.022 N 
ATOM     22  H7  UNL     1      74.979  11.575  10.694  1.00  0.00     0.203 HD
BRANCH  16  23
HETATM   23  N4  UNL     1      74.674   8.645   6.643  1.00  0.00    -0.223 N 
ATOM     24  H4  UNL     1      74.970   8.982   5.727  1.00  0.00     0.177 HD
BRANCH  23  25
HETATM   25  C12 UNL     1      74.163   7.306   6.817  1.00  0.00     0.164 C 
BRANCH  25  26
HETATM   26  C13 UNL     1      74.137   6.536   5.530  1.00  0.00     0.184 C 
BRANCH  26  27
HETATM   27  O2  UNL     1      73.561   7.337   4.520  1.00  0.00    -0.399 OA
ATOM     28  H2  UNL     1      73.965   7.128   3.687  1.00  0.00     0.209 HD
ENDBRANCH  26  27
ENDBRANCH  25  26
ENDBRANCH  23  25
ENDBRANCH  16  23
BRANCH  19  29
HETATM   29  N6  UNL     1      77.211  10.633   9.926  1.00  0.00    -0.220 N 
ATOM     30  H6  UNL     1      77.869   9.858  10.003  1.00  0.00     0.178 HD
BRANCH  29  31
HETATM   31  C15 UNL     1      77.584  11.917  10.410  1.00  0.00     0.099 C 
HETATM   32  C16 UNL     1      78.208  12.786   9.331  1.00  0.00     0.026 C 
HETATM   33  C17 UNL     1      78.600  14.089   9.964  1.00  0.00     0.002 C 
HETATM   34  C18 UNL     1      78.091  14.256  11.364  1.00  0.00     0.000 C 
HETATM   35  C19 UNL     1      78.506  13.159  12.287  1.00  0.00     0.002 C 
HETATM   36  C20 UNL     1      78.611  11.852  11.532  1.00  0.00     0.026 C 
ENDBRANCH  29  31
ENDBRANCH  19  29
ENDBRANCH  12  14
ENDBRANCH  11  12
ENDBRANCH  10  11
ENDBRANCH   9  10
ENDBRANCH   8   9
ENDBRANCH   7   8
ENDBRANCH   6   7
ENDBRANCH   5   6
ENDBRANCH   4   5
ENDBRANCH   3   4
TORSDOF 16
ENDMDL
