MODEL 1
REMARK VINA RESULT: -5.914448816      0.000      0.000
REMARK  8 active torsions:
REMARK  status: ('A' for Active; 'I' for Inactive)
REMARK    1  A    between atoms: C2_2  and  O1_3 
REMARK    2  A    between atoms: O1_3  and  C3_4 
REMARK    3  A    between atoms: C3_4  and  C4_5 
REMARK    4  A    between atoms: C4_5  and  C5_6 
REMARK    5  A    between atoms: C5_6  and  N1_7 
REMARK    6  A    between atoms: N1_7  and  C6_9 
REMARK    7  A    between atoms: C7_12  and  N3_13 
REMARK    8  A    between atoms: C8_18  and  N5_19 
ROOT
HETATM    1  C6  UNL     1      34.699  42.353  -6.655  1.00  0.00     0.707 A 
HETATM    2  N2  UNL     1      35.303  41.318  -7.287  1.00  0.00    -0.022 N 
ATOM      3  H2  UNL     1      36.033  40.784  -6.814  1.00  0.00     0.203 HD
HETATM    4  C7  UNL     1      34.936  40.996  -8.537  1.00  0.00     0.705 A 
HETATM    5  N4  UNL     1      33.969  41.726  -9.120  1.00  0.00    -0.022 N 
ATOM      6  H4  UNL     1      33.680  41.492 -10.070  1.00  0.00     0.203 HD
HETATM    7  C8  UNL     1      33.369  42.757  -8.491  1.00  0.00     0.705 A 
HETATM    8  N6  UNL     1      33.734  43.082  -7.239  1.00  0.00    -0.022 N 
ATOM      9  H6  UNL     1      33.293  43.858  -6.747  1.00  0.00     0.203 HD
ENDROOT
BRANCH   1  10
HETATM   10  N1  UNL     1      35.062  42.649  -5.459  1.00  0.00    -0.225 N 
ATOM     11  H1  UNL     1      34.373  43.006  -4.796  1.00  0.00     0.177 HD
BRANCH  10  12
HETATM   12  C5  UNL     1      36.417  42.482  -5.050  1.00  0.00     0.140 C 
BRANCH  12  13
HETATM   13  C4  UNL     1      36.432  42.141  -3.563  1.00  0.00     0.046 C 
BRANCH  13  14
HETATM   14  C3  UNL     1      37.779  42.578  -3.061  1.00  0.00     0.169 C 
BRANCH  14  15
HETATM   15  O1  UNL     1      37.803  43.898  -2.775  1.00  0.00    -0.391 OA
BRANCH  15  16
HETATM   16  C2  UNL     1      36.956  44.250  -1.764  1.00  0.00     0.163 C 
HETATM   17  C1  UNL     1      37.755  45.245  -0.886  1.00  0.00     0.033 C 
ENDBRANCH  15  16
ENDBRANCH  14  15
ENDBRANCH  13  14
ENDBRANCH  12  13
ENDBRANCH  10  12
ENDBRANCH   1  10
BRANCH   4  18
HETATM   18  N3  UNL     1      35.483  40.007  -9.193  1.00  0.00    -0.234 N 
ATOM     19  H32 UNL     1      36.493  39.871  -9.148  1.00  0.00     0.174 HD
ATOM     20  H31 UNL     1      34.935  39.357  -9.756  1.00  0.00     0.174 HD
ENDBRANCH   4  18
BRANCH   7  21
HETATM   21  N5  UNL     1      32.454  43.438  -9.062  1.00  0.00    -0.234 N 
ATOM     22  H52 UNL     1      32.644  43.848  -9.976  1.00  0.00     0.174 HD
ATOM     23  H51 UNL     1      31.545  43.575  -8.621  1.00  0.00     0.174 HD
ENDBRANCH   7  21
TORSDOF 8
ENDMDL
MODEL 2
REMARK VINA RESULT: -5.895248583      1.517      2.100
REMARK  8 active torsions:
REMARK  status: ('A' for Active; 'I' for Inactive)
REMARK    1  A    between atoms: C2_2  and  O1_3 
REMARK    2  A    between atoms: O1_3  and  C3_4 
REMARK    3  A    between atoms: C3_4  and  C4_5 
REMARK    4  A    between atoms: C4_5  and  C5_6 
REMARK    5  A    between atoms: C5_6  and  N1_7 
REMARK    6  A    between atoms: N1_7  and  C6_9 
REMARK    7  A    between atoms: C7_12  and  N3_13 
REMARK    8  A    between atoms: C8_18  and  N5_19 
ROOT
HETATM    1  C6  UNL     1      35.800  42.102  -4.965  1.00  0.00     0.707 A 
HETATM    2  N2  UNL     1      36.121  40.840  -5.341  1.00  0.00    -0.022 N 
ATOM      3  H2  UNL     1      36.779  40.292  -4.788  1.00  0.00     0.203 HD
HETATM    4  C7  UNL     1      35.568  40.314  -6.445  1.00  0.00     0.705 A 
HETATM    5  N4  UNL     1      34.705  41.073  -7.143  1.00  0.00    -0.022 N 
ATOM      6  H4  UNL     1      34.277  40.686  -7.984  1.00  0.00     0.203 HD
HETATM    7  C8  UNL     1      34.387  42.329  -6.769  1.00  0.00     0.705 A 
HETATM    8  N6  UNL     1      34.939  42.858  -5.664  1.00  0.00    -0.022 N 
ATOM      9  H6  UNL     1      34.711  43.806  -5.365  1.00  0.00     0.203 HD
ENDROOT
BRANCH   1  10
HETATM   10  N1  UNL     1      36.338  42.591  -3.907  1.00  0.00    -0.225 N 
ATOM     11  H1  UNL     1      36.481  43.598  -3.831  1.00  0.00     0.177 HD
BRANCH  10  12
HETATM   12  C5  UNL     1      36.737  41.738  -2.836  1.00  0.00     0.140 C 
BRANCH  12  13
HETATM   13  C4  UNL     1      35.746  41.912  -1.689  1.00  0.00     0.046 C 
BRANCH  13  14
HETATM   14  C3  UNL     1      36.343  42.961  -0.794  1.00  0.00     0.169 C 
BRANCH  14  15
HETATM   15  O1  UNL     1      36.415  44.163  -1.409  1.00  0.00    -0.391 OA
BRANCH  15  16
HETATM   16  C2  UNL     1      37.535  44.873  -1.081  1.00  0.00     0.163 C 
HETATM   17  C1  UNL     1      38.333  43.959  -0.119  1.00  0.00     0.033 C 
ENDBRANCH  15  16
ENDBRANCH  14  15
ENDBRANCH  13  14
ENDBRANCH  12  13
ENDBRANCH  10  12
ENDBRANCH   1  10
BRANCH   4  18
HETATM   18  N3  UNL     1      35.840  39.103  -6.854  1.00  0.00    -0.234 N 
ATOM     19  H32 UNL     1      35.399  38.306  -6.395  1.00  0.00     0.174 HD
ATOM     20  H31 UNL     1      36.484  38.919  -7.622  1.00  0.00     0.174 HD
ENDBRANCH   4  18
BRANCH   7  21
HETATM   21  N5  UNL     1      33.566  43.032  -7.445  1.00  0.00    -0.234 N 
ATOM     22  H52 UNL     1      32.819  43.525  -6.956  1.00  0.00     0.174 HD
ATOM     23  H51 UNL     1      33.646  43.108  -8.459  1.00  0.00     0.174 HD
ENDBRANCH   7  21
TORSDOF 8
ENDMDL
MODEL 3
REMARK VINA RESULT: -5.884201242      1.512      2.924
REMARK  8 active torsions:
REMARK  status: ('A' for Active; 'I' for Inactive)
REMARK    1  A    between atoms: C2_2  and  O1_3 
REMARK    2  A    between atoms: O1_3  and  C3_4 
REMARK    3  A    between atoms: C3_4  and  C4_5 
REMARK    4  A    between atoms: C4_5  and  C5_6 
REMARK    5  A    between atoms: C5_6  and  N1_7 
REMARK    6  A    between atoms: N1_7  and  C6_9 
REMARK    7  A    between atoms: C7_12  and  N3_13 
REMARK    8  A    between atoms: C8_18  and  N5_19 
ROOT
HETATM    1  C6  UNL     1      35.801  42.090  -4.955  1.00  0.00     0.707 A 
HETATM    2  N2  UNL     1      34.937  42.857  -5.663  1.00  0.00    -0.022 N 
ATOM      3  H2  UNL     1      34.713  43.801  -5.349  1.00  0.00     0.203 HD
HETATM    4  C7  UNL     1      34.377  42.368  -6.781  1.00  0.00     0.705 A 
HETATM    5  N4  UNL     1      34.702  41.119  -7.157  1.00  0.00    -0.022 N 
ATOM      6  H4  UNL     1      34.284  40.735  -8.005  1.00  0.00     0.203 HD
HETATM    7  C8  UNL     1      35.562  40.356  -6.451  1.00  0.00     0.705 A 
HETATM    8  N6  UNL     1      36.124  40.843  -5.332  1.00  0.00    -0.022 N 
ATOM      9  H6  UNL     1      36.776  40.282  -4.784  1.00  0.00     0.203 HD
ENDROOT
BRANCH   1  10
HETATM   10  N1  UNL     1      36.329  42.572  -3.888  1.00  0.00    -0.225 N 
ATOM     11  H1  UNL     1      36.492  43.576  -3.814  1.00  0.00     0.177 HD
BRANCH  10  12
HETATM   12  C5  UNL     1      36.687  41.716  -2.805  1.00  0.00     0.140 C 
BRANCH  12  13
HETATM   13  C4  UNL     1      35.699  41.943  -1.666  1.00  0.00     0.046 C 
BRANCH  13  14
HETATM   14  C3  UNL     1      36.330  42.984  -0.785  1.00  0.00     0.169 C 
BRANCH  14  15
HETATM   15  O1  UNL     1      36.398  44.187  -1.399  1.00  0.00    -0.391 OA
BRANCH  15  16
HETATM   16  C2  UNL     1      37.528  44.888  -1.092  1.00  0.00     0.163 C 
HETATM   17  C1  UNL     1      38.342  43.965  -0.152  1.00  0.00     0.033 C 
ENDBRANCH  15  16
ENDBRANCH  14  15
ENDBRANCH  13  14
ENDBRANCH  12  13
ENDBRANCH  10  12
ENDBRANCH   1  10
BRANCH   4  18
HETATM   18  N3  UNL     1      33.538  43.063  -7.503  1.00  0.00    -0.234 N 
ATOM     19  H32 UNL     1      33.893  43.674  -8.238  1.00  0.00     0.174 HD
ATOM     20  H31 UNL     1      32.529  43.019  -7.360  1.00  0.00     0.174 HD
ENDBRANCH   4  18
BRANCH   7  21
HETATM   21  N5  UNL     1      35.856  39.173  -6.825  1.00  0.00    -0.234 N 
ATOM     22  H52 UNL     1      36.711  38.743  -6.471  1.00  0.00     0.174 HD
ATOM     23  H51 UNL     1      35.255  38.657  -7.466  1.00  0.00     0.174 HD
ENDBRANCH   7  21
TORSDOF 8
ENDMDL
MODEL 4
REMARK VINA RESULT: -5.853717716      0.599      2.189
REMARK  8 active torsions:
REMARK  status: ('A' for Active; 'I' for Inactive)
REMARK    1  A    between atoms: C2_2  and  O1_3 
REMARK    2  A    between atoms: O1_3  and  C3_4 
REMARK    3  A    between atoms: C3_4  and  C4_5 
REMARK    4  A    between atoms: C4_5  and  C5_6 
REMARK    5  A    between atoms: C5_6  and  N1_7 
REMARK    6  A    between atoms: N1_7  and  C6_9 
REMARK    7  A    between atoms: C7_12  and  N3_13 
REMARK    8  A    between atoms: C8_18  and  N5_19 
ROOT
HETATM    1  C6  UNL     1      34.838  42.334  -6.518  1.00  0.00     0.707 A 
HETATM    2  N2  UNL     1      33.846  43.063  -7.084  1.00  0.00    -0.022 N 
ATOM      3  H2  UNL     1      33.417  43.832  -6.569  1.00  0.00     0.203 HD
HETATM    4  C7  UNL     1      33.428  42.768  -8.325  1.00  0.00     0.705 A 
HETATM    5  N4  UNL     1      34.022  41.747  -8.966  1.00  0.00    -0.022 N 
ATOM      6  H4  UNL     1      33.715  41.512  -9.910  1.00  0.00     0.203 HD
HETATM    7  C8  UNL     1      35.010  41.022  -8.403  1.00  0.00     0.705 A 
HETATM    8  N6  UNL     1      35.430  41.314  -7.160  1.00  0.00    -0.022 N 
ATOM      9  H6  UNL     1      36.175  40.777  -6.717  1.00  0.00     0.203 HD
ENDROOT
BRANCH   1  10
HETATM   10  N1  UNL     1      35.226  42.628  -5.330  1.00  0.00    -0.225 N 
ATOM     11  H1  UNL     1      34.860  43.462  -4.870  1.00  0.00     0.177 HD
BRANCH  10  12
HETATM   12  C5  UNL     1      36.164  41.799  -4.648  1.00  0.00     0.140 C 
BRANCH  12  13
HETATM   13  C4  UNL     1      37.439  42.605  -4.419  1.00  0.00     0.046 C 
BRANCH  13  14
HETATM   14  C3  UNL     1      37.483  42.881  -2.942  1.00  0.00     0.169 C 
BRANCH  14  15
HETATM   15  O1  UNL     1      37.963  44.117  -2.677  1.00  0.00    -0.391 OA
BRANCH  15  16
HETATM   16  C2  UNL     1      37.545  44.615  -1.477  1.00  0.00     0.163 C 
HETATM   17  C1  UNL     1      37.167  43.375  -0.628  1.00  0.00     0.033 C 
ENDBRANCH  15  16
ENDBRANCH  14  15
ENDBRANCH  13  14
ENDBRANCH  12  13
ENDBRANCH  10  12
ENDBRANCH   1  10
BRANCH   4  18
HETATM   18  N3  UNL     1      32.476  43.438  -8.918  1.00  0.00    -0.234 N 
ATOM     19  H32 UNL     1      32.141  44.309  -8.508  1.00  0.00     0.174 HD
ATOM     20  H31 UNL     1      32.047  43.121  -9.788  1.00  0.00     0.174 HD
ENDBRANCH   4  18
BRANCH   7  21
HETATM   21  N5  UNL     1      35.560  40.056  -9.028  1.00  0.00    -0.234 N 
ATOM     22  H52 UNL     1      36.575  40.045  -9.122  1.00  0.00     0.174 HD
ATOM     23  H51 UNL     1      35.004  39.302  -9.430  1.00  0.00     0.174 HD
ENDBRANCH   7  21
TORSDOF 8
ENDMDL
MODEL 5
REMARK VINA RESULT: -5.846075524      3.442      7.071
REMARK  8 active torsions:
REMARK  status: ('A' for Active; 'I' for Inactive)
REMARK    1  A    between atoms: C2_2  and  O1_3 
REMARK    2  A    between atoms: O1_3  and  C3_4 
REMARK    3  A    between atoms: C3_4  and  C4_5 
REMARK    4  A    between atoms: C4_5  and  C5_6 
REMARK    5  A    between atoms: C5_6  and  N1_7 
REMARK    6  A    between atoms: N1_7  and  C6_9 
REMARK    7  A    between atoms: C7_12  and  N3_13 
REMARK    8  A    between atoms: C8_18  and  N5_19 
ROOT
HETATM    1  C6  UNL     1      36.149  42.081  -3.054  1.00  0.00     0.707 A 
HETATM    2  N2  UNL     1      36.596  43.345  -2.855  1.00  0.00    -0.022 N 
ATOM      3  H2  UNL     1      36.490  44.047  -3.587  1.00  0.00     0.203 HD
HETATM    4  C7  UNL     1      37.179  43.668  -1.690  1.00  0.00     0.705 A 
HETATM    5  N4  UNL     1      37.296  42.710  -0.755  1.00  0.00    -0.022 N 
ATOM      6  H4  UNL     1      37.737  42.942   0.136  1.00  0.00     0.203 HD
HETATM    7  C8  UNL     1      36.851  41.452  -0.953  1.00  0.00     0.705 A 
HETATM    8  N6  UNL     1      36.267  41.126  -2.119  1.00  0.00    -0.022 N 
ATOM      9  H6  UNL     1      35.924  40.180  -2.288  1.00  0.00     0.203 HD
ENDROOT
BRANCH   1  10
HETATM   10  N1  UNL     1      35.593  41.788  -4.174  1.00  0.00    -0.225 N 
ATOM     11  H1  UNL     1      34.784  41.166  -4.190  1.00  0.00     0.177 HD
BRANCH  10  12
HETATM   12  C5  UNL     1      36.097  42.322  -5.396  1.00  0.00     0.140 C 
BRANCH  12  13
HETATM   13  C4  UNL     1      34.914  42.659  -6.297  1.00  0.00     0.046 C 
BRANCH  13  14
HETATM   14  C3  UNL     1      35.256  42.089  -7.645  1.00  0.00     0.169 C 
BRANCH  14  15
HETATM   15  O1  UNL     1      35.015  42.972  -8.639  1.00  0.00    -0.391 OA
BRANCH  15  16
HETATM   16  C2  UNL     1      33.868  42.709  -9.331  1.00  0.00     0.163 C 
HETATM   17  C1  UNL     1      33.873  43.697 -10.524  1.00  0.00     0.033 C 
ENDBRANCH  15  16
ENDBRANCH  14  15
ENDBRANCH  13  14
ENDBRANCH  12  13
ENDBRANCH  10  12
ENDBRANCH   1  10
BRANCH   4  18
HETATM   18  N3  UNL     1      37.628  44.870  -1.444  1.00  0.00    -0.234 N 
ATOM     19  H32 UNL     1      36.976  45.654  -1.409  1.00  0.00     0.174 HD
ATOM     20  H31 UNL     1      38.617  45.060  -1.284  1.00  0.00     0.174 HD
ENDBRANCH   4  18
BRANCH   7  21
HETATM   21  N5  UNL     1      36.972  40.558  -0.053  1.00  0.00    -0.234 N 
ATOM     22  H52 UNL     1      36.822  40.817   0.922  1.00  0.00     0.174 HD
ATOM     23  H51 UNL     1      37.215  39.597  -0.292  1.00  0.00     0.174 HD
ENDBRANCH   7  21
TORSDOF 8
ENDMDL
