MODEL 1
REMARK VINA RESULT: -6.917556152      0.000      0.000
REMARK  12 active torsions:
REMARK  status: ('A' for Active; 'I' for Inactive)
REMARK    1  A    between atoms: C2_3  and  S1_4 
REMARK    2  A    between atoms: S1_4  and  C3_5 
REMARK    3  A    between atoms: C7_9  and  C8_10 
REMARK    4  A    between atoms: C8_10  and  O1_11 
REMARK    5  A    between atoms: O1_11  and  C9_12 
REMARK       I    between atoms: C9_12  and  N2_14 
REMARK    6  A    between atoms: N2_14  and  C10_16 
REMARK    7  A    between atoms: C10_16  and  C11_17 
REMARK    8  A    between atoms: C11_17  and  O3_18 
REMARK    9  A    between atoms: N3_20  and  O4_22 
REMARK   10  A    between atoms: C14_26  and  N4_27 
REMARK   11  A    between atoms: N4_27  and  N5_29 
REMARK   12  A    between atoms: N5_29  and  N6_30 
ROOT
HETATM    1  N1  UNL     1      27.144  47.760  43.193  1.00  0.00    -0.197 NA
HETATM    2  C1  UNL     1      26.444  47.126  43.858  1.00  0.00     0.069 C 
HETATM    3  C2  UNL     1      25.536  46.311  44.689  1.00  0.00     0.197 C 
ENDROOT
BRANCH   3   4
HETATM    4  S1  UNL     1      26.417  44.819  45.147  1.00  0.00    -0.150 SA
BRANCH   4   5
HETATM    5  C3  UNL     1      27.205  45.024  46.734  1.00  0.00     0.048 C 
HETATM    6  C4  UNL     1      26.228  45.362  47.841  1.00  0.00     0.015 C 
HETATM    7  C5  UNL     1      26.979  45.447  49.152  1.00  0.00     0.002 C 
HETATM    8  C6  UNL     1      28.405  44.964  49.005  1.00  0.00     0.007 C 
HETATM    9  C7  UNL     1      29.174  45.741  47.956  1.00  0.00     0.011 C 
HETATM   10  C17 UNL     1      28.295  46.073  46.763  1.00  0.00     0.022 C 
BRANCH   9  11
HETATM   11  C8  UNL     1      29.767  46.949  48.586  1.00  0.00     0.185 C 
BRANCH  11  12
HETATM   12  O1  UNL     1      29.372  48.108  47.932  1.00  0.00    -0.304 OA
BRANCH  12  13
HETATM   13  C9  UNL     1      30.222  49.053  47.418  1.00  0.00     0.361 C 
HETATM   14  O2  UNL     1      30.410  49.097  46.176  1.00  0.00    -0.238 OA
HETATM   15  N2  UNL     1      30.899  49.992  48.290  1.00  0.00    -0.320 N 
ATOM     16  H2  UNL     1      30.747  49.959  49.298  1.00  0.00     0.166 HD
BRANCH  15  17
HETATM   17  C10 UNL     1      31.805  50.995  47.708  1.00  0.00     0.101 C 
HETATM   18  C12 UNL     1      32.359  51.775  48.903  1.00  0.00     0.042 C 
HETATM   19  C13 UNL     1      33.150  52.933  48.340  1.00  0.00     0.030 C 
HETATM   20  C14 UNL     1      32.101  53.896  47.779  1.00  0.00     0.114 C 
HETATM   21  C15 UNL     1      31.436  53.252  46.614  1.00  0.00     0.030 C 
HETATM   22  C16 UNL     1      31.001  51.841  46.801  1.00  0.00     0.042 C 
BRANCH  17  23
HETATM   23  C11 UNL     1      32.968  50.305  47.123  1.00  0.00     0.164 C 
HETATM   24  N3  UNL     1      33.372  50.243  45.937  1.00  0.00    -0.249 N 
ATOM     25  H3  UNL     1      34.218  49.683  45.831  1.00  0.00     0.196 HD
BRANCH  23  26
HETATM   26  O3  UNL     1      33.756  49.596  48.066  1.00  0.00    -0.346 OA
ATOM     27  H3  UNL     1      34.456  49.083  47.679  1.00  0.00     0.219 HD
ENDBRANCH  23  26
BRANCH  24  28
HETATM   28  O4  UNL     1      32.934  50.749  44.789  1.00  0.00    -0.288 OA
ATOM     29  H4  UNL     1      32.070  50.934  44.440  1.00  0.00     0.244 HD
ENDBRANCH  24  28
ENDBRANCH  17  23
BRANCH  20  30
HETATM   30  N4  UNL     1      32.779  55.098  47.327  1.00  0.00    -0.248 N 
ATOM     31  H4  UNL     1      32.514  56.005  47.710  1.00  0.00     0.197 HD
BRANCH  30  32
HETATM   32  N5  UNL     1      33.675  55.025  46.481  1.00  0.00    -0.248 NA
BRANCH  32  33
HETATM   33  N6  UNL     1      34.708  55.023  45.797  1.00  0.00    -0.261 N 
ATOM     34  H62 UNL     1      34.785  56.030  45.944  1.00  0.00     0.193 HD
ATOM     35  H61 UNL     1      35.527  54.840  45.218  1.00  0.00     0.193 HD
ENDBRANCH  32  33
ENDBRANCH  30  32
ENDBRANCH  20  30
ENDBRANCH  15  17
ENDBRANCH  12  13
ENDBRANCH  11  12
ENDBRANCH   9  11
ENDBRANCH   4   5
ENDBRANCH   3   4
TORSDOF 12
ENDMDL
MODEL 2
REMARK VINA RESULT: -6.852425458      3.380      5.127
REMARK  12 active torsions:
REMARK  status: ('A' for Active; 'I' for Inactive)
REMARK    1  A    between atoms: C2_3  and  S1_4 
REMARK    2  A    between atoms: S1_4  and  C3_5 
REMARK    3  A    between atoms: C7_9  and  C8_10 
REMARK    4  A    between atoms: C8_10  and  O1_11 
REMARK    5  A    between atoms: O1_11  and  C9_12 
REMARK       I    between atoms: C9_12  and  N2_14 
REMARK    6  A    between atoms: N2_14  and  C10_16 
REMARK    7  A    between atoms: C10_16  and  C11_17 
REMARK    8  A    between atoms: C11_17  and  O3_18 
REMARK    9  A    between atoms: N3_20  and  O4_22 
REMARK   10  A    between atoms: C14_26  and  N4_27 
REMARK   11  A    between atoms: N4_27  and  N5_29 
REMARK   12  A    between atoms: N5_29  and  N6_30 
ROOT
HETATM    1  N1  UNL     1      25.297  40.019  47.935  1.00  0.00    -0.197 NA
HETATM    2  C1  UNL     1      24.848  41.079  47.843  1.00  0.00     0.069 C 
HETATM    3  C2  UNL     1      24.295  42.444  47.730  1.00  0.00     0.197 C 
ENDROOT
BRANCH   3   4
HETATM    4  S1  UNL     1      23.803  42.686  46.023  1.00  0.00    -0.150 SA
BRANCH   4   5
HETATM    5  C3  UNL     1      25.046  43.614  45.143  1.00  0.00     0.048 C 
HETATM    6  C4  UNL     1      26.454  43.314  45.616  1.00  0.00     0.015 C 
HETATM    7  C5  UNL     1      27.435  44.094  44.768  1.00  0.00     0.002 C 
HETATM    8  C6  UNL     1      26.749  44.749  43.590  1.00  0.00     0.007 C 
HETATM    9  C7  UNL     1      25.633  45.681  44.015  1.00  0.00     0.011 C 
HETATM   10  C17 UNL     1      24.867  45.115  45.199  1.00  0.00     0.022 C 
BRANCH   9  11
HETATM   11  C8  UNL     1      26.201  47.026  44.289  1.00  0.00     0.185 C 
BRANCH  11  12
HETATM   12  O1  UNL     1      26.087  47.361  45.631  1.00  0.00    -0.304 OA
BRANCH  12  13
HETATM   13  C9  UNL     1      27.131  47.448  46.514  1.00  0.00     0.361 C 
HETATM   14  O2  UNL     1      27.340  46.499  47.311  1.00  0.00    -0.238 OA
HETATM   15  N2  UNL     1      27.989  48.616  46.535  1.00  0.00    -0.320 N 
ATOM     16  H2  UNL     1      27.822  49.388  45.889  1.00  0.00     0.166 HD
BRANCH  15  17
HETATM   17  C10 UNL     1      29.101  48.680  47.496  1.00  0.00     0.101 C 
HETATM   18  C12 UNL     1      29.545  50.145  47.499  1.00  0.00     0.042 C 
HETATM   19  C13 UNL     1      30.803  50.219  48.331  1.00  0.00     0.030 C 
HETATM   20  C14 UNL     1      31.885  49.553  47.478  1.00  0.00     0.114 C 
HETATM   21  C15 UNL     1      31.566  48.105  47.348  1.00  0.00     0.030 C 
HETATM   22  C16 UNL     1      30.157  47.768  47.006  1.00  0.00     0.042 C 
BRANCH  17  23
HETATM   23  C11 UNL     1      28.578  48.430  48.850  1.00  0.00     0.164 C 
HETATM   24  N3  UNL     1      28.727  47.450  49.618  1.00  0.00    -0.249 N 
ATOM     25  H3  UNL     1      28.239  47.560  50.507  1.00  0.00     0.196 HD
BRANCH  23  26
HETATM   26  O3  UNL     1      27.773  49.481  49.363  1.00  0.00    -0.346 OA
ATOM     27  H3  UNL     1      26.973  49.630  48.873  1.00  0.00     0.219 HD
ENDBRANCH  23  26
BRANCH  24  28
HETATM   28  O4  UNL     1      29.384  46.300  49.522  1.00  0.00    -0.288 OA
ATOM     29  H4  UNL     1      29.312  45.462  49.966  1.00  0.00     0.244 HD
ENDBRANCH  24  28
ENDBRANCH  17  23
BRANCH  20  30
HETATM   30  N4  UNL     1      33.158  49.694  48.161  1.00  0.00    -0.248 N 
ATOM     31  H4  UNL     1      33.952  49.120  47.879  1.00  0.00     0.197 HD
BRANCH  30  32
HETATM   32  N5  UNL     1      33.283  50.506  49.082  1.00  0.00    -0.248 NA
BRANCH  32  33
HETATM   33  N6  UNL     1      33.530  51.437  49.861  1.00  0.00    -0.261 N 
ATOM     34  H62 UNL     1      33.740  52.029  49.057  1.00  0.00     0.193 HD
ATOM     35  H61 UNL     1      33.692  52.082  50.633  1.00  0.00     0.193 HD
ENDBRANCH  32  33
ENDBRANCH  30  32
ENDBRANCH  20  30
ENDBRANCH  15  17
ENDBRANCH  12  13
ENDBRANCH  11  12
ENDBRANCH   9  11
ENDBRANCH   4   5
ENDBRANCH   3   4
TORSDOF 12
ENDMDL
MODEL 3
REMARK VINA RESULT: -6.845051769      3.516      8.259
REMARK  12 active torsions:
REMARK  status: ('A' for Active; 'I' for Inactive)
REMARK    1  A    between atoms: C2_3  and  S1_4 
REMARK    2  A    between atoms: S1_4  and  C3_5 
REMARK    3  A    between atoms: C7_9  and  C8_10 
REMARK    4  A    between atoms: C8_10  and  O1_11 
REMARK    5  A    between atoms: O1_11  and  C9_12 
REMARK       I    between atoms: C9_12  and  N2_14 
REMARK    6  A    between atoms: N2_14  and  C10_16 
REMARK    7  A    between atoms: C10_16  and  C11_17 
REMARK    8  A    between atoms: C11_17  and  O3_18 
REMARK    9  A    between atoms: N3_20  and  O4_22 
REMARK   10  A    between atoms: C14_26  and  N4_27 
REMARK   11  A    between atoms: N4_27  and  N5_29 
REMARK   12  A    between atoms: N5_29  and  N6_30 
ROOT
HETATM    1  N1  UNL     1      33.428  49.579  48.481  1.00  0.00    -0.197 NA
HETATM    2  C1  UNL     1      33.636  50.715  48.498  1.00  0.00     0.069 C 
HETATM    3  C2  UNL     1      33.926  52.163  48.521  1.00  0.00     0.197 C 
ENDROOT
BRANCH   3   4
HETATM    4  S1  UNL     1      33.480  52.827  46.917  1.00  0.00    -0.150 SA
BRANCH   4   5
HETATM    5  C3  UNL     1      31.740  52.588  46.607  1.00  0.00     0.048 C 
HETATM    6  C4  UNL     1      31.065  53.820  46.039  1.00  0.00     0.015 C 
HETATM    7  C5  UNL     1      29.616  53.497  45.747  1.00  0.00     0.002 C 
HETATM    8  C6  UNL     1      29.337  52.019  45.898  1.00  0.00     0.007 C 
HETATM    9  C7  UNL     1      29.677  51.504  47.282  1.00  0.00     0.011 C 
HETATM   10  C17 UNL     1      30.940  52.158  47.816  1.00  0.00     0.022 C 
BRANCH   9  11
HETATM   11  C8  UNL     1      28.506  51.701  48.175  1.00  0.00     0.185 C 
BRANCH  11  12
HETATM   12  O1  UNL     1      28.292  50.594  48.983  1.00  0.00    -0.304 OA
BRANCH  12  13
HETATM   13  C9  UNL     1      28.220  49.298  48.542  1.00  0.00     0.361 C 
HETATM   14  O2  UNL     1      27.116  48.849  48.141  1.00  0.00    -0.238 OA
HETATM   15  N2  UNL     1      29.395  48.451  48.535  1.00  0.00    -0.320 N 
ATOM     16  H2  UNL     1      30.292  48.813  48.859  1.00  0.00     0.166 HD
BRANCH  15  17
HETATM   17  C10 UNL     1      29.284  47.064  48.056  1.00  0.00     0.101 C 
HETATM   18  C12 UNL     1      28.300  47.122  46.885  1.00  0.00     0.042 C 
HETATM   19  C13 UNL     1      28.016  45.694  46.482  1.00  0.00     0.030 C 
HETATM   20  C14 UNL     1      27.148  45.128  47.609  1.00  0.00     0.114 C 
HETATM   21  C15 UNL     1      27.969  45.047  48.848  1.00  0.00     0.030 C 
HETATM   22  C16 UNL     1      28.780  46.249  49.181  1.00  0.00     0.042 C 
BRANCH  17  23
HETATM   23  C11 UNL     1      30.570  46.659  47.461  1.00  0.00     0.164 C 
HETATM   24  N3  UNL     1      31.442  47.331  46.860  1.00  0.00    -0.249 N 
ATOM     25  H3  UNL     1      32.240  46.772  46.556  1.00  0.00     0.196 HD
BRANCH  23  26
HETATM   26  O3  UNL     1      30.863  45.277  47.598  1.00  0.00    -0.346 OA
ATOM     27  H3  UNL     1      31.627  44.993  47.111  1.00  0.00     0.219 HD
ENDBRANCH  23  26
BRANCH  24  28
HETATM   28  O4  UNL     1      31.549  48.614  46.533  1.00  0.00    -0.288 OA
ATOM     29  H4  UNL     1      31.417  49.101  45.728  1.00  0.00     0.244 HD
ENDBRANCH  24  28
ENDBRANCH  17  23
BRANCH  20  30
HETATM   30  N4  UNL     1      26.729  43.789  47.235  1.00  0.00    -0.248 N 
ATOM     31  H4  UNL     1      26.677  43.530  46.250  1.00  0.00     0.197 HD
BRANCH  30  32
HETATM   32  N5  UNL     1      26.435  42.964  48.104  1.00  0.00    -0.248 NA
BRANCH  32  33
HETATM   33  N6  UNL     1      26.151  41.986  48.810  1.00  0.00    -0.261 N 
ATOM     34  H62 UNL     1      25.352  41.803  48.203  1.00  0.00     0.193 HD
ATOM     35  H61 UNL     1      26.066  41.230  49.489  1.00  0.00     0.193 HD
ENDBRANCH  32  33
ENDBRANCH  30  32
ENDBRANCH  20  30
ENDBRANCH  15  17
ENDBRANCH  12  13
ENDBRANCH  11  12
ENDBRANCH   9  11
ENDBRANCH   4   5
ENDBRANCH   3   4
TORSDOF 12
ENDMDL
MODEL 4
REMARK VINA RESULT: -6.784793115      3.551      7.574
REMARK  12 active torsions:
REMARK  status: ('A' for Active; 'I' for Inactive)
REMARK    1  A    between atoms: C2_3  and  S1_4 
REMARK    2  A    between atoms: S1_4  and  C3_5 
REMARK    3  A    between atoms: C7_9  and  C8_10 
REMARK    4  A    between atoms: C8_10  and  O1_11 
REMARK    5  A    between atoms: O1_11  and  C9_12 
REMARK       I    between atoms: C9_12  and  N2_14 
REMARK    6  A    between atoms: N2_14  and  C10_16 
REMARK    7  A    between atoms: C10_16  and  C11_17 
REMARK    8  A    between atoms: C11_17  and  O3_18 
REMARK    9  A    between atoms: N3_20  and  O4_22 
REMARK   10  A    between atoms: C14_26  and  N4_27 
REMARK   11  A    between atoms: N4_27  and  N5_29 
REMARK   12  A    between atoms: N5_29  and  N6_30 
ROOT
HETATM    1  N1  UNL     1      28.790  51.713  45.465  1.00  0.00    -0.197 NA
HETATM    2  C1  UNL     1      29.224  52.709  45.857  1.00  0.00     0.069 C 
HETATM    3  C2  UNL     1      29.782  53.972  46.379  1.00  0.00     0.197 C 
ENDROOT
BRANCH   3   4
HETATM    4  S1  UNL     1      31.317  54.285  45.508  1.00  0.00    -0.150 SA
BRANCH   4   5
HETATM    5  C3  UNL     1      32.568  53.118  46.012  1.00  0.00     0.048 C 
HETATM    6  C4  UNL     1      32.595  51.870  45.154  1.00  0.00     0.015 C 
HETATM    7  C5  UNL     1      33.728  50.979  45.615  1.00  0.00     0.002 C 
HETATM    8  C6  UNL     1      34.608  51.681  46.624  1.00  0.00     0.007 C 
HETATM    9  C7  UNL     1      33.835  52.149  47.841  1.00  0.00     0.011 C 
HETATM   10  C17 UNL     1      32.461  52.666  47.453  1.00  0.00     0.022 C 
BRANCH   9  11
HETATM   11  C8  UNL     1      33.774  51.044  48.832  1.00  0.00     0.185 C 
BRANCH  11  12
HETATM   12  O1  UNL     1      32.463  50.722  49.153  1.00  0.00    -0.304 OA
BRANCH  12  13
HETATM   13  C9  UNL     1      31.783  49.627  48.689  1.00  0.00     0.361 C 
HETATM   14  O2  UNL     1      32.409  48.552  48.503  1.00  0.00    -0.238 OA
HETATM   15  N2  UNL     1      30.362  49.697  48.416  1.00  0.00    -0.320 N 
ATOM     16  H2  UNL     1      29.852  50.567  48.567  1.00  0.00     0.166 HD
BRANCH  15  17
HETATM   17  C10 UNL     1      29.661  48.502  47.919  1.00  0.00     0.101 C 
HETATM   18  C12 UNL     1      28.320  49.017  47.387  1.00  0.00     0.042 C 
HETATM   19  C13 UNL     1      27.494  47.802  47.037  1.00  0.00     0.030 C 
HETATM   20  C14 UNL     1      27.097  47.189  48.382  1.00  0.00     0.114 C 
HETATM   21  C15 UNL     1      28.323  46.671  49.049  1.00  0.00     0.030 C 
HETATM   22  C16 UNL     1      29.501  47.579  49.061  1.00  0.00     0.042 C 
BRANCH  17  23
HETATM   23  C11 UNL     1      30.374  47.987  46.737  1.00  0.00     0.164 C 
HETATM   24  N3  UNL     1      30.969  46.899  46.550  1.00  0.00    -0.249 N 
ATOM     25  H3  UNL     1      31.375  46.819  45.617  1.00  0.00     0.196 HD
BRANCH  23  26
HETATM   26  O3  UNL     1      30.383  48.877  45.632  1.00  0.00    -0.346 OA
ATOM     27  H3  UNL     1      29.655  48.759  45.033  1.00  0.00     0.219 HD
ENDBRANCH  23  26
BRANCH  24  28
HETATM   28  O4  UNL     1      31.184  45.827  47.305  1.00  0.00    -0.288 OA
ATOM     29  H4  UNL     1      31.848  45.148  47.308  1.00  0.00     0.244 HD
ENDBRANCH  24  28
ENDBRANCH  17  23
BRANCH  20  30
HETATM   30  N4  UNL     1      26.194  46.080  48.130  1.00  0.00    -0.248 N 
ATOM     31  H4  UNL     1      25.219  46.144  48.421  1.00  0.00     0.197 HD
BRANCH  30  32
HETATM   32  N5  UNL     1      26.603  45.061  47.567  1.00  0.00    -0.248 NA
BRANCH  32  33
HETATM   33  N6  UNL     1      26.797  43.997  46.962  1.00  0.00    -0.261 N 
ATOM     34  H62 UNL     1      26.592  43.491  47.824  1.00  0.00     0.193 HD
ATOM     35  H61 UNL     1      26.990  43.231  46.319  1.00  0.00     0.193 HD
ENDBRANCH  32  33
ENDBRANCH  30  32
ENDBRANCH  20  30
ENDBRANCH  15  17
ENDBRANCH  12  13
ENDBRANCH  11  12
ENDBRANCH   9  11
ENDBRANCH   4   5
ENDBRANCH   3   4
TORSDOF 12
ENDMDL
MODEL 5
REMARK VINA RESULT: -6.784108328      1.577      1.769
REMARK  12 active torsions:
REMARK  status: ('A' for Active; 'I' for Inactive)
REMARK    1  A    between atoms: C2_3  and  S1_4 
REMARK    2  A    between atoms: S1_4  and  C3_5 
REMARK    3  A    between atoms: C7_9  and  C8_10 
REMARK    4  A    between atoms: C8_10  and  O1_11 
REMARK    5  A    between atoms: O1_11  and  C9_12 
REMARK       I    between atoms: C9_12  and  N2_14 
REMARK    6  A    between atoms: N2_14  and  C10_16 
REMARK    7  A    between atoms: C10_16  and  C11_17 
REMARK    8  A    between atoms: C11_17  and  O3_18 
REMARK    9  A    between atoms: N3_20  and  O4_22 
REMARK   10  A    between atoms: C14_26  and  N4_27 
REMARK   11  A    between atoms: N4_27  and  N5_29 
REMARK   12  A    between atoms: N5_29  and  N6_30 
ROOT
HETATM    1  N1  UNL     1      26.821  47.548  43.148  1.00  0.00    -0.197 NA
HETATM    2  C1  UNL     1      26.490  46.559  43.646  1.00  0.00     0.069 C 
HETATM    3  C2  UNL     1      26.090  45.290  44.287  1.00  0.00     0.197 C 
ENDROOT
BRANCH   3   4
HETATM    4  S1  UNL     1      25.218  45.700  45.798  1.00  0.00    -0.150 SA
BRANCH   4   5
HETATM    5  C3  UNL     1      26.376  46.023  47.116  1.00  0.00     0.048 C 
HETATM    6  C4  UNL     1      26.408  47.479  47.533  1.00  0.00     0.015 C 
HETATM    7  C5  UNL     1      27.363  47.638  48.696  1.00  0.00     0.002 C 
HETATM    8  C6  UNL     1      27.820  46.296  49.223  1.00  0.00     0.007 C 
HETATM    9  C7  UNL     1      28.492  45.454  48.158  1.00  0.00     0.011 C 
HETATM   10  C17 UNL     1      27.801  45.614  46.815  1.00  0.00     0.022 C 
BRANCH   9  11
HETATM   11  C8  UNL     1      29.936  45.799  48.105  1.00  0.00     0.185 C 
BRANCH  11  12
HETATM   12  O1  UNL     1      30.176  46.843  47.223  1.00  0.00    -0.304 OA
BRANCH  12  13
HETATM   13  C9  UNL     1      30.748  48.043  47.558  1.00  0.00     0.361 C 
HETATM   14  O2  UNL     1      31.022  48.275  48.762  1.00  0.00    -0.238 OA
HETATM   15  N2  UNL     1      31.035  49.036  46.543  1.00  0.00    -0.320 N 
ATOM     16  H2  UNL     1      30.814  48.849  45.564  1.00  0.00     0.166 HD
BRANCH  15  17
HETATM   17  C10 UNL     1      31.649  50.314  46.934  1.00  0.00     0.101 C 
HETATM   18  C12 UNL     1      30.873  50.768  48.173  1.00  0.00     0.042 C 
HETATM   19  C13 UNL     1      31.348  52.165  48.499  1.00  0.00     0.030 C 
HETATM   20  C14 UNL     1      30.757  53.053  47.400  1.00  0.00     0.114 C 
HETATM   21  C15 UNL     1      31.396  52.696  46.104  1.00  0.00     0.030 C 
HETATM   22  C16 UNL     1      31.495  51.243  45.795  1.00  0.00     0.042 C 
BRANCH  17  23
HETATM   23  C11 UNL     1      33.021  50.060  47.408  1.00  0.00     0.164 C 
HETATM   24  N3  UNL     1      34.093  49.916  46.774  1.00  0.00    -0.249 N 
ATOM     25  H3  UNL     1      34.897  49.749  47.379  1.00  0.00     0.196 HD
BRANCH  23  26
HETATM   26  O3  UNL     1      33.138  49.965  48.820  1.00  0.00    -0.346 OA
ATOM     27  H3  UNL     1      32.971  50.780  49.278  1.00  0.00     0.219 HD
ENDBRANCH  23  26
BRANCH  24  28
HETATM   28  O4  UNL     1      34.406  49.933  45.483  1.00  0.00    -0.288 OA
ATOM     29  H4  UNL     1      34.691  50.614  44.885  1.00  0.00     0.244 HD
ENDBRANCH  24  28
ENDBRANCH  17  23
BRANCH  20  30
HETATM   30  N4  UNL     1      31.069  54.436  47.713  1.00  0.00    -0.248 N 
ATOM     31  H4  UNL     1      30.648  55.187  47.167  1.00  0.00     0.197 HD
BRANCH  30  32
HETATM   32  N5  UNL     1      31.842  54.705  48.637  1.00  0.00    -0.248 NA
BRANCH  32  33
HETATM   33  N6  UNL     1      32.458  55.118  49.629  1.00  0.00    -0.261 N 
ATOM     34  H62 UNL     1      32.651  54.151  49.889  1.00  0.00     0.193 HD
ATOM     35  H61 UNL     1      32.920  55.626  50.382  1.00  0.00     0.193 HD
ENDBRANCH  32  33
ENDBRANCH  30  32
ENDBRANCH  20  30
ENDBRANCH  15  17
ENDBRANCH  12  13
ENDBRANCH  11  12
ENDBRANCH   9  11
ENDBRANCH   4   5
ENDBRANCH   3   4
TORSDOF 12
ENDMDL
