MODEL 1
REMARK VINA RESULT: -9.438868603      0.000      0.000
REMARK  7 active torsions:
REMARK  status: ('A' for Active; 'I' for Inactive)
REMARK    1  A    between atoms: N2_5  and  C3_6 
REMARK    2  A    between atoms: C3_6  and  C4_7 
REMARK    3  A    between atoms: N3_10  and  C7_11 
REMARK    4  A    between atoms: C7_11  and  S1_12 
REMARK    5  A    between atoms: S1_12  and  C8_14 
REMARK    6  A    between atoms: C16_26  and  C17_27 
REMARK    7  A    between atoms: C17_27  and  C18_28 
ROOT
HETATM    1  C4  UNL     1       4.480   7.376  22.126  1.00  0.00     0.035 A 
HETATM    2  C5  UNL     1       5.744   7.650  21.710  1.00  0.00     0.044 A 
HETATM    3  C6  UNL     1       6.614   8.297  22.549  1.00  0.00     0.098 A 
HETATM    4  N3  UNL     1       6.227   8.667  23.797  1.00  0.00    -0.298 N 
HETATM    5  C14 UNL     1       4.974   8.374  24.158  1.00  0.00     0.327 A 
HETATM    6  O2  UNL     1       4.579   8.704  25.312  1.00  0.00    -0.246 OA
HETATM    7  N4  UNL     1       4.093   7.738  23.350  1.00  0.00    -0.310 N 
ATOM      8  H4  UNL     1       3.146   7.538  23.673  1.00  0.00     0.170 HD
ENDROOT
BRANCH   1   9
HETATM    9  C3  UNL     1       3.536   6.682  21.232  1.00  0.00     0.209 C 
BRANCH   9  10
HETATM   10  N2  UNL     1       4.091   5.375  20.900  1.00  0.00    -0.251 N 
HETATM   11  N1  UNL     1       4.129   4.372  21.720  1.00  0.00    -0.295 N 
HETATM   12  C2  UNL     1       4.712   3.284  21.111  1.00  0.00     0.054 A 
ATOM     13  H1  UNL     1       3.779   4.387  22.677  1.00  0.00     0.187 HD
HETATM   14  C1  UNL     1       4.865   2.150  21.734  1.00  0.00     0.045 C 
HETATM   15  C16 UNL     1       5.030   3.692  19.855  1.00  0.00     0.061 A 
HETATM   16  C15 UNL     1       4.621   5.056  19.728  1.00  0.00     0.274 A 
HETATM   17  O3  UNL     1       4.766   5.744  18.693  1.00  0.00    -0.266 OA
BRANCH  15  18
HETATM   18  C17 UNL     1       5.597   3.034  18.892  1.00  0.00     0.030 C 
BRANCH  18  19
HETATM   19  C18 UNL     1       6.980   3.032  18.523  1.00  0.00    -0.035 A 
HETATM   20  C19 UNL     1       7.611   4.041  17.811  1.00  0.00     0.014 A 
HETATM   21  C20 UNL     1       8.964   3.964  17.553  1.00  0.00     0.043 A 
HETATM   22  C21 UNL     1       9.697   2.899  17.992  1.00  0.00     0.116 A 
HETATM   23  F1  UNL     1      11.025   2.866  17.714  1.00  0.00    -0.206 F 
HETATM   24  C22 UNL     1       9.104   1.881  18.701  1.00  0.00     0.043 A 
HETATM   25  C23 UNL     1       7.767   1.952  18.959  1.00  0.00     0.014 A 
ENDBRANCH  18  19
ENDBRANCH  15  18
ENDBRANCH   9  10
ENDBRANCH   1   9
BRANCH   4  26
HETATM   26  C7  UNL     1       7.154   9.358  24.697  1.00  0.00     0.247 C 
BRANCH  26  27
HETATM   27  S1  UNL     1       8.760   9.246  23.950  1.00  0.00     0.068 S 
HETATM   28  O1  UNL     1       9.200  10.758  23.404  1.00  0.00    -0.251 OA
BRANCH  27  29
HETATM   29  C8  UNL     1       9.937   8.588  25.060  1.00  0.00     0.033 A 
HETATM   30  C9  UNL     1       9.453   7.909  26.160  1.00  0.00     0.021 A 
HETATM   31  C10 UNL     1      10.324   7.353  27.095  1.00  0.00     0.001 A 
HETATM   32  C11 UNL     1      11.686   7.483  26.919  1.00  0.00     0.000 A 
HETATM   33  C12 UNL     1      12.145   8.166  25.813  1.00  0.00     0.001 A 
HETATM   34  C13 UNL     1      11.287   8.720  24.880  1.00  0.00     0.021 A 
ENDBRANCH  27  29
ENDBRANCH  26  27
ENDBRANCH   4  26
TORSDOF 7
ENDMDL
MODEL 2
REMARK VINA RESULT: -9.416252911      1.839      2.719
REMARK  7 active torsions:
REMARK  status: ('A' for Active; 'I' for Inactive)
REMARK    1  A    between atoms: N2_5  and  C3_6 
REMARK    2  A    between atoms: C3_6  and  C4_7 
REMARK    3  A    between atoms: N3_10  and  C7_11 
REMARK    4  A    between atoms: C7_11  and  S1_12 
REMARK    5  A    between atoms: S1_12  and  C8_14 
REMARK    6  A    between atoms: C16_26  and  C17_27 
REMARK    7  A    between atoms: C17_27  and  C18_28 
ROOT
HETATM    1  C4  UNL     1       6.324   9.167  20.656  1.00  0.00     0.035 A 
HETATM    2  C5  UNL     1       5.811   9.667  21.809  1.00  0.00     0.044 A 
HETATM    3  C6  UNL     1       6.646   9.987  22.848  1.00  0.00     0.098 A 
HETATM    4  N3  UNL     1       7.988   9.810  22.737  1.00  0.00    -0.298 N 
HETATM    5  C14 UNL     1       8.443   9.315  21.581  1.00  0.00     0.327 A 
HETATM    6  O2  UNL     1       9.687   9.137  21.443  1.00  0.00    -0.246 OA
HETATM    7  N4  UNL     1       7.642   8.990  20.540  1.00  0.00    -0.310 N 
ATOM      8  H4  UNL     1       8.039   8.614  19.679  1.00  0.00     0.170 HD
ENDROOT
BRANCH   1   9
HETATM    9  C3  UNL     1       5.435   8.819  19.534  1.00  0.00     0.209 C 
BRANCH   9  10
HETATM   10  N2  UNL     1       5.459   7.372  19.357  1.00  0.00    -0.251 N 
HETATM   11  N1  UNL     1       4.901   6.531  20.169  1.00  0.00    -0.295 N 
HETATM   12  C2  UNL     1       5.101   5.242  19.728  1.00  0.00     0.054 A 
ATOM     13  H1  UNL     1       4.389   6.786  21.013  1.00  0.00     0.187 HD
HETATM   14  C1  UNL     1       4.633   4.215  20.378  1.00  0.00     0.045 C 
HETATM   15  C16 UNL     1       5.824   5.353  18.584  1.00  0.00     0.061 A 
HETATM   16  C15 UNL     1       6.052   6.744  18.351  1.00  0.00     0.274 A 
HETATM   17  O3  UNL     1       6.689   7.203  17.376  1.00  0.00    -0.266 OA
BRANCH  15  18
HETATM   18  C17 UNL     1       6.264   4.425  17.792  1.00  0.00     0.030 C 
BRANCH  18  19
HETATM   19  C18 UNL     1       7.434   3.615  17.950  1.00  0.00    -0.035 A 
HETATM   20  C19 UNL     1       7.532   2.522  18.797  1.00  0.00     0.014 A 
HETATM   21  C20 UNL     1       8.692   1.777  18.834  1.00  0.00     0.043 A 
HETATM   22  C21 UNL     1       9.755   2.105  18.042  1.00  0.00     0.116 A 
HETATM   23  F1  UNL     1      10.877   1.343  18.114  1.00  0.00    -0.206 F 
HETATM   24  C22 UNL     1       9.693   3.182  17.192  1.00  0.00     0.043 A 
HETATM   25  C23 UNL     1       8.548   3.922  17.150  1.00  0.00     0.014 A 
ENDBRANCH  18  19
ENDBRANCH  15  18
ENDBRANCH   9  10
ENDBRANCH   1   9
BRANCH   4  26
HETATM   26  C7  UNL     1       8.885  10.151  23.844  1.00  0.00     0.247 C 
BRANCH  26  27
HETATM   27  S1  UNL     1       8.732   8.846  25.037  1.00  0.00     0.068 S 
HETATM   28  O1  UNL     1       7.897   7.582  24.341  1.00  0.00    -0.251 OA
BRANCH  27  29
HETATM   29  C8  UNL     1      10.293   8.342  25.637  1.00  0.00     0.033 A 
HETATM   30  C9  UNL     1      11.398   8.694  24.890  1.00  0.00     0.021 A 
HETATM   31  C10 UNL     1      12.680   8.332  25.298  1.00  0.00     0.001 A 
HETATM   32  C11 UNL     1      12.846   7.613  26.462  1.00  0.00     0.000 A 
HETATM   33  C12 UNL     1      11.728   7.271  27.192  1.00  0.00     0.001 A 
HETATM   34  C13 UNL     1      10.451   7.628  26.794  1.00  0.00     0.021 A 
ENDBRANCH  27  29
ENDBRANCH  26  27
ENDBRANCH   4  26
TORSDOF 7
ENDMDL
MODEL 3
REMARK VINA RESULT: -9.248054527      0.201      1.206
REMARK  7 active torsions:
REMARK  status: ('A' for Active; 'I' for Inactive)
REMARK    1  A    between atoms: N2_5  and  C3_6 
REMARK    2  A    between atoms: C3_6  and  C4_7 
REMARK    3  A    between atoms: N3_10  and  C7_11 
REMARK    4  A    between atoms: C7_11  and  S1_12 
REMARK    5  A    between atoms: S1_12  and  C8_14 
REMARK    6  A    between atoms: C16_26  and  C17_27 
REMARK    7  A    between atoms: C17_27  and  C18_28 
ROOT
HETATM    1  C4  UNL     1       4.367   7.499  21.953  1.00  0.00     0.035 A 
HETATM    2  C5  UNL     1       5.557   7.960  21.489  1.00  0.00     0.044 A 
HETATM    3  C6  UNL     1       6.412   8.620  22.334  1.00  0.00     0.098 A 
HETATM    4  N3  UNL     1       6.082   8.818  23.636  1.00  0.00    -0.298 N 
HETATM    5  C14 UNL     1       4.899   8.344  24.043  1.00  0.00     0.327 A 
HETATM    6  O2  UNL     1       4.559   8.511  25.249  1.00  0.00    -0.246 OA
HETATM    7  N4  UNL     1       4.036   7.690  23.231  1.00  0.00    -0.310 N 
ATOM      8  H4  UNL     1       3.145   7.349  23.591  1.00  0.00     0.170 HD
ENDROOT
BRANCH   1   9
HETATM    9  C3  UNL     1       3.441   6.789  21.053  1.00  0.00     0.209 C 
BRANCH   9  10
HETATM   10  N2  UNL     1       4.010   5.482  20.744  1.00  0.00    -0.251 N 
HETATM   11  N1  UNL     1       4.012   4.478  21.564  1.00  0.00    -0.295 N 
HETATM   12  C2  UNL     1       4.619   3.390  20.979  1.00  0.00     0.054 A 
ATOM     13  H1  UNL     1       3.620   4.492  22.505  1.00  0.00     0.187 HD
HETATM   14  C1  UNL     1       4.745   2.256  21.607  1.00  0.00     0.045 C 
HETATM   15  C16 UNL     1       4.991   3.799  19.738  1.00  0.00     0.061 A 
HETATM   16  C15 UNL     1       4.589   5.163  19.596  1.00  0.00     0.274 A 
HETATM   17  O3  UNL     1       4.779   5.853  18.568  1.00  0.00    -0.266 OA
BRANCH  15  18
HETATM   18  C17 UNL     1       5.599   3.142  18.800  1.00  0.00     0.030 C 
BRANCH  18  19
HETATM   19  C18 UNL     1       7.009   3.016  18.586  1.00  0.00    -0.035 A 
HETATM   20  C19 UNL     1       7.774   1.926  18.972  1.00  0.00     0.014 A 
HETATM   21  C20 UNL     1       9.119   1.882  18.669  1.00  0.00     0.043 A 
HETATM   22  C21 UNL     1       9.713   2.907  17.989  1.00  0.00     0.116 A 
HETATM   23  F1  UNL     1      11.039   2.821  17.714  1.00  0.00    -0.206 F 
HETATM   24  C22 UNL     1       8.985   4.003  17.591  1.00  0.00     0.043 A 
HETATM   25  C23 UNL     1       7.655   4.051  17.887  1.00  0.00     0.014 A 
ENDBRANCH  18  19
ENDBRANCH  15  18
ENDBRANCH   9  10
ENDBRANCH   1   9
BRANCH   4  26
HETATM   26  C7  UNL     1       6.991   9.522  24.543  1.00  0.00     0.247 C 
BRANCH  26  27
HETATM   27  S1  UNL     1       8.621   9.333  23.868  1.00  0.00     0.068 S 
HETATM   28  O1  UNL     1       9.149  10.819  23.326  1.00  0.00    -0.251 OA
BRANCH  27  29
HETATM   29  C8  UNL     1       9.721   8.641  25.036  1.00  0.00     0.033 A 
HETATM   30  C9  UNL     1      11.070   8.801  24.802  1.00  0.00     0.021 A 
HETATM   31  C10 UNL     1      12.015   8.280  25.684  1.00  0.00     0.001 A 
HETATM   32  C11 UNL     1      11.595   7.595  26.804  1.00  0.00     0.000 A 
HETATM   33  C12 UNL     1      10.241   7.446  27.017  1.00  0.00     0.001 A 
HETATM   34  C13 UNL     1       9.297   7.962  26.147  1.00  0.00     0.021 A 
ENDBRANCH  27  29
ENDBRANCH  26  27
ENDBRANCH   4  26
TORSDOF 7
ENDMDL
MODEL 4
REMARK VINA RESULT: -9.239077354      1.908      2.719
REMARK  7 active torsions:
REMARK  status: ('A' for Active; 'I' for Inactive)
REMARK    1  A    between atoms: N2_5  and  C3_6 
REMARK    2  A    between atoms: C3_6  and  C4_7 
REMARK    3  A    between atoms: N3_10  and  C7_11 
REMARK    4  A    between atoms: C7_11  and  S1_12 
REMARK    5  A    between atoms: S1_12  and  C8_14 
REMARK    6  A    between atoms: C16_26  and  C17_27 
REMARK    7  A    between atoms: C17_27  and  C18_28 
ROOT
HETATM    1  C4  UNL     1       5.017   7.220  20.889  1.00  0.00     0.035 A 
HETATM    2  C5  UNL     1       5.450   8.465  20.563  1.00  0.00     0.044 A 
HETATM    3  C6  UNL     1       6.040   9.256  21.516  1.00  0.00     0.098 A 
HETATM    4  N3  UNL     1       6.196   8.806  22.787  1.00  0.00    -0.298 N 
HETATM    5  C14 UNL     1       5.753   7.574  23.057  1.00  0.00     0.327 A 
HETATM    6  O2  UNL     1       5.882   7.123  24.230  1.00  0.00    -0.246 OA
HETATM    7  N4  UNL     1       5.167   6.772  22.136  1.00  0.00    -0.310 N 
ATOM      8  H4  UNL     1       4.845   5.839  22.393  1.00  0.00     0.170 HD
ENDROOT
BRANCH   1   9
HETATM    9  C3  UNL     1       4.382   6.363  19.872  1.00  0.00     0.209 C 
BRANCH   9  10
HETATM   10  N2  UNL     1       5.382   6.022  18.866  1.00  0.00    -0.251 N 
HETATM   11  N1  UNL     1       5.239   6.239  17.597  1.00  0.00    -0.295 N 
HETATM   12  C2  UNL     1       6.353   5.807  16.914  1.00  0.00     0.054 A 
ATOM     13  H1  UNL     1       4.421   6.668  17.166  1.00  0.00     0.187 HD
HETATM   14  C1  UNL     1       6.449   5.916  15.620  1.00  0.00     0.045 C 
HETATM   15  C16 UNL     1       7.193   5.307  17.858  1.00  0.00     0.061 A 
HETATM   16  C15 UNL     1       6.550   5.453  19.126  1.00  0.00     0.274 A 
HETATM   17  O3  UNL     1       7.049   5.093  20.217  1.00  0.00    -0.266 OA
BRANCH  15  18
HETATM   18  C17 UNL     1       8.370   4.781  17.721  1.00  0.00     0.030 C 
BRANCH  18  19
HETATM   19  C18 UNL     1       8.697   3.411  17.460  1.00  0.00    -0.035 A 
HETATM   20  C19 UNL     1       7.976   2.571  16.626  1.00  0.00     0.014 A 
HETATM   21  C20 UNL     1       8.410   1.280  16.403  1.00  0.00     0.043 A 
HETATM   22  C21 UNL     1       9.547   0.815  16.998  1.00  0.00     0.116 A 
HETATM   23  F1  UNL     1       9.934  -0.462  16.750  1.00  0.00    -0.206 F 
HETATM   24  C22 UNL     1      10.285   1.621  17.831  1.00  0.00     0.043 A 
HETATM   25  C23 UNL     1       9.863   2.898  18.055  1.00  0.00     0.014 A 
ENDBRANCH  18  19
ENDBRANCH  15  18
ENDBRANCH   9  10
ENDBRANCH   1   9
BRANCH   4  26
HETATM   26  C7  UNL     1       6.825   9.647  23.809  1.00  0.00     0.247 C 
BRANCH  26  27
HETATM   27  S1  UNL     1       8.552   9.720  23.409  1.00  0.00     0.068 S 
HETATM   28  O1  UNL     1       8.979  11.315  23.182  1.00  0.00    -0.251 OA
BRANCH  27  29
HETATM   29  C8  UNL     1       9.527   8.954  24.639  1.00  0.00     0.033 A 
HETATM   30  C9  UNL     1      10.896   9.060  24.513  1.00  0.00     0.021 A 
HETATM   31  C10 UNL     1      11.747   8.478  25.451  1.00  0.00     0.001 A 
HETATM   32  C11 UNL     1      11.212   7.788  26.519  1.00  0.00     0.000 A 
HETATM   33  C12 UNL     1       9.841   7.695  26.624  1.00  0.00     0.001 A 
HETATM   34  C13 UNL     1       8.990   8.271  25.697  1.00  0.00     0.021 A 
ENDBRANCH  27  29
ENDBRANCH  26  27
ENDBRANCH   4  26
TORSDOF 7
ENDMDL
MODEL 5
REMARK VINA RESULT: -9.180728475      1.543      2.078
REMARK  7 active torsions:
REMARK  status: ('A' for Active; 'I' for Inactive)
REMARK    1  A    between atoms: N2_5  and  C3_6 
REMARK    2  A    between atoms: C3_6  and  C4_7 
REMARK    3  A    between atoms: N3_10  and  C7_11 
REMARK    4  A    between atoms: C7_11  and  S1_12 
REMARK    5  A    between atoms: S1_12  and  C8_14 
REMARK    6  A    between atoms: C16_26  and  C17_27 
REMARK    7  A    between atoms: C17_27  and  C18_28 
ROOT
HETATM    1  C4  UNL     1       5.205   8.069  20.760  1.00  0.00     0.035 A 
HETATM    2  C5  UNL     1       6.086   9.102  20.705  1.00  0.00     0.044 A 
HETATM    3  C6  UNL     1       6.761   9.485  21.835  1.00  0.00     0.098 A 
HETATM    4  N3  UNL     1       6.560   8.842  23.014  1.00  0.00    -0.298 N 
HETATM    5  C14 UNL     1       5.684   7.831  23.014  1.00  0.00     0.327 A 
HETATM    6  O2  UNL     1       5.471   7.210  24.094  1.00  0.00    -0.246 OA
HETATM    7  N4  UNL     1       5.003   7.432  21.914  1.00  0.00    -0.310 N 
ATOM      8  H4  UNL     1       4.344   6.656  21.968  1.00  0.00     0.170 HD
ENDROOT
BRANCH   1   9
HETATM    9  C3  UNL     1       4.475   7.649  19.551  1.00  0.00     0.209 C 
BRANCH   9  10
HETATM   10  N2  UNL     1       5.120   6.457  19.012  1.00  0.00    -0.251 N 
HETATM   11  N1  UNL     1       4.824   5.247  19.368  1.00  0.00    -0.295 N 
HETATM   12  C2  UNL     1       5.606   4.347  18.682  1.00  0.00     0.054 A 
ATOM     13  H1  UNL     1       4.115   4.997  20.057  1.00  0.00     0.187 HD
HETATM   14  C1  UNL     1       5.496   3.062  18.866  1.00  0.00     0.045 C 
HETATM   15  C16 UNL     1       6.406   5.093  17.877  1.00  0.00     0.061 A 
HETATM   16  C15 UNL     1       6.081   6.467  18.100  1.00  0.00     0.274 A 
HETATM   17  O3  UNL     1       6.633   7.428  17.517  1.00  0.00    -0.266 OA
BRANCH  15  18
HETATM   18  C17 UNL     1       7.318   4.713  17.036  1.00  0.00     0.030 C 
BRANCH  18  19
HETATM   19  C18 UNL     1       8.241   3.627  17.171  1.00  0.00    -0.035 A 
HETATM   20  C19 UNL     1       9.425   3.679  17.890  1.00  0.00     0.014 A 
HETATM   21  C20 UNL     1      10.218   2.556  17.999  1.00  0.00     0.043 A 
HETATM   22  C21 UNL     1       9.851   1.384  17.403  1.00  0.00     0.116 A 
HETATM   23  F1  UNL     1      10.664   0.305  17.537  1.00  0.00    -0.206 F 
HETATM   24  C22 UNL     1       8.684   1.296  16.682  1.00  0.00     0.043 A 
HETATM   25  C23 UNL     1       7.895   2.403  16.571  1.00  0.00     0.014 A 
ENDBRANCH  18  19
ENDBRANCH  15  18
ENDBRANCH   9  10
ENDBRANCH   1   9
BRANCH   4  26
HETATM   26  C7  UNL     1       7.278   9.247  24.224  1.00  0.00     0.247 C 
BRANCH  26  27
HETATM   27  S1  UNL     1       9.000   9.296  23.795  1.00  0.00     0.068 S 
HETATM   28  O1  UNL     1       9.432  10.879  23.500  1.00  0.00    -0.251 OA
BRANCH  27  29
HETATM   29  C8  UNL     1       9.989   8.573  25.041  1.00  0.00     0.033 A 
HETATM   30  C9  UNL     1      11.357   8.685  24.901  1.00  0.00     0.021 A 
HETATM   31  C10 UNL     1      12.219   8.138  25.850  1.00  0.00     0.001 A 
HETATM   32  C11 UNL     1      11.697   7.476  26.941  1.00  0.00     0.000 A 
HETATM   33  C12 UNL     1      10.327   7.376  27.059  1.00  0.00     0.001 A 
HETATM   34  C13 UNL     1       9.466   7.918  26.122  1.00  0.00     0.021 A 
ENDBRANCH  27  29
ENDBRANCH  26  27
ENDBRANCH   4  26
TORSDOF 7
ENDMDL
