MODEL 1
REMARK VINA RESULT: -5.865897424      0.000      0.000
REMARK  7 active torsions:
REMARK  status: ('A' for Active; 'I' for Inactive)
REMARK    1  A    between atoms: C2_2  and  N1_5 
REMARK    2  A    between atoms: N1_5  and  C5_8 
REMARK    3  A    between atoms: C5_8  and  C6_9 
REMARK    4  A    between atoms: C7_12  and  C8_13 
REMARK    5  A    between atoms: C8_13  and  O1_14 
REMARK    6  A    between atoms: C8_13  and  N3_16 
REMARK    7  A    between atoms: N3_16  and  C9_18 
ROOT
HETATM    1  C6  UNL     1      21.834  36.203  -4.147  1.00  0.00     0.077 A 
HETATM    2  N2  UNL     1      23.084  35.879  -3.869  1.00  0.00    -0.352 N 
ATOM      3  H2  UNL     1      23.666  36.511  -3.319  1.00  0.00     0.166 HD
HETATM    4  C7  UNL     1      23.572  34.756  -4.296  1.00  0.00     0.065 A 
HETATM    5  C13 UNL     1      22.745  33.944  -5.031  1.00  0.00     0.081 A 
HETATM    6  S1  UNL     1      21.295  34.875  -5.055  1.00  0.00    -0.085 SA
ENDROOT
BRANCH   4   7
HETATM    7  C8  UNL     1      25.001  34.306  -4.025  1.00  0.00     0.266 C 
BRANCH   7   8
HETATM    8  O1  UNL     1      25.314  34.623  -2.706  1.00  0.00    -0.371 OA
ATOM      9  H1  UNL     1      24.505  34.807  -2.244  1.00  0.00     0.212 HD
ENDBRANCH   7   8
BRANCH   7  10
HETATM   10  N3  UNL     1      25.821  35.001  -4.952  1.00  0.00    -0.384 N 
ATOM     11  H3  UNL     1      26.010  36.000  -4.871  1.00  0.00     0.156 HD
BRANCH  10  12
HETATM   12  C9  UNL     1      26.363  34.200  -6.008  1.00  0.00     0.017 C 
HETATM   13  C10 UNL     1      26.278  32.711  -5.752  1.00  0.00     0.037 C 
HETATM   14  C11 UNL     1      27.852  34.556  -6.106  1.00  0.00     0.037 C 
HETATM   15  C12 UNL     1      25.752  34.479  -7.350  1.00  0.00     0.037 C 
ENDBRANCH  10  12
ENDBRANCH   7  10
ENDBRANCH   4   7
BRANCH   1  16
HETATM   16  C5  UNL     1      21.064  37.434  -3.763  1.00  0.00     0.297 C 
BRANCH  16  17
HETATM   17  N1  UNL     1      20.628  38.151  -4.915  1.00  0.00    -0.062 N 
ATOM     18  H12 UNL     1      19.726  37.804  -5.243  1.00  0.00     0.278 HD
ATOM     19  H11 UNL     1      21.199  37.920  -5.728  1.00  0.00     0.278 HD
BRANCH  17  20
HETATM   20  C2  UNL     1      20.588  39.554  -4.703  1.00  0.00     0.115 C 
HETATM   21  C1  UNL     1      20.283  40.350  -5.949  1.00  0.00     0.045 C 
HETATM   22  C3  UNL     1      21.880  40.079  -4.125  1.00  0.00     0.045 C 
HETATM   23  C4  UNL     1      19.499  39.939  -3.685  1.00  0.00     0.045 C 
ENDBRANCH  17  20
ENDBRANCH  16  17
ENDBRANCH   1  16
TORSDOF 7
ENDMDL
MODEL 2
REMARK VINA RESULT: -5.850497810      0.077      1.004
REMARK  7 active torsions:
REMARK  status: ('A' for Active; 'I' for Inactive)
REMARK    1  A    between atoms: C2_2  and  N1_5 
REMARK    2  A    between atoms: N1_5  and  C5_8 
REMARK    3  A    between atoms: C5_8  and  C6_9 
REMARK    4  A    between atoms: C7_12  and  C8_13 
REMARK    5  A    between atoms: C8_13  and  O1_14 
REMARK    6  A    between atoms: C8_13  and  N3_16 
REMARK    7  A    between atoms: N3_16  and  C9_18 
ROOT
HETATM    1  C6  UNL     1      21.885  36.164  -4.145  1.00  0.00     0.077 A 
HETATM    2  N2  UNL     1      23.135  35.842  -3.863  1.00  0.00    -0.352 N 
ATOM      3  H2  UNL     1      23.710  36.471  -3.303  1.00  0.00     0.166 HD
HETATM    4  C7  UNL     1      23.631  34.726  -4.299  1.00  0.00     0.065 A 
HETATM    5  C13 UNL     1      22.811  33.918  -5.046  1.00  0.00     0.081 A 
HETATM    6  S1  UNL     1      21.358  34.843  -5.070  1.00  0.00    -0.085 SA
ENDROOT
BRANCH   4   7
HETATM    7  C8  UNL     1      25.060  34.280  -4.022  1.00  0.00     0.266 C 
BRANCH   7   8
HETATM    8  O1  UNL     1      25.361  34.576  -2.696  1.00  0.00    -0.371 OA
ATOM      9  H1  UNL     1      24.903  33.956  -2.141  1.00  0.00     0.212 HD
ENDBRANCH   7   8
BRANCH   7  10
HETATM   10  N3  UNL     1      25.883  34.993  -4.932  1.00  0.00    -0.384 N 
ATOM     11  H3  UNL     1      26.076  35.990  -4.827  1.00  0.00     0.156 HD
BRANCH  10  12
HETATM   12  C9  UNL     1      26.423  34.216  -6.006  1.00  0.00     0.017 C 
HETATM   13  C10 UNL     1      26.327  32.722  -5.789  1.00  0.00     0.037 C 
HETATM   14  C11 UNL     1      27.915  34.565  -6.090  1.00  0.00     0.037 C 
HETATM   15  C12 UNL     1      25.820  34.533  -7.343  1.00  0.00     0.037 C 
ENDBRANCH  10  12
ENDBRANCH   7  10
ENDBRANCH   4   7
BRANCH   1  16
HETATM   16  C5  UNL     1      21.108  37.387  -3.753  1.00  0.00     0.297 C 
BRANCH  16  17
HETATM   17  N1  UNL     1      20.673  38.113  -4.901  1.00  0.00    -0.062 N 
ATOM     18  H12 UNL     1      19.773  37.769  -5.233  1.00  0.00     0.278 HD
ATOM     19  H11 UNL     1      21.246  37.889  -5.714  1.00  0.00     0.278 HD
BRANCH  17  20
HETATM   20  C2  UNL     1      20.632  39.515  -4.678  1.00  0.00     0.115 C 
HETATM   21  C1  UNL     1      19.617  39.937  -3.643  1.00  0.00     0.045 C 
HETATM   22  C3  UNL     1      20.347  40.284  -5.945  1.00  0.00     0.045 C 
HETATM   23  C4  UNL     1      21.986  40.045  -4.174  1.00  0.00     0.045 C 
ENDBRANCH  17  20
ENDBRANCH  16  17
ENDBRANCH   1  16
TORSDOF 7
ENDMDL
MODEL 3
REMARK VINA RESULT: -5.818789023      9.905     11.361
REMARK  7 active torsions:
REMARK  status: ('A' for Active; 'I' for Inactive)
REMARK    1  A    between atoms: C2_2  and  N1_5 
REMARK    2  A    between atoms: N1_5  and  C5_8 
REMARK    3  A    between atoms: C5_8  and  C6_9 
REMARK    4  A    between atoms: C7_12  and  C8_13 
REMARK    5  A    between atoms: C8_13  and  O1_14 
REMARK    6  A    between atoms: C8_13  and  N3_16 
REMARK    7  A    between atoms: N3_16  and  C9_18 
ROOT
HETATM    1  C6  UNL     1      15.362  31.676  -4.629  1.00  0.00     0.077 A 
HETATM    2  N2  UNL     1      14.721  30.910  -3.766  1.00  0.00    -0.352 N 
ATOM      3  H2  UNL     1      14.211  30.089  -4.092  1.00  0.00     0.166 HD
HETATM    4  C7  UNL     1      14.738  31.201  -2.502  1.00  0.00     0.065 A 
HETATM    5  C13 UNL     1      15.441  32.316  -2.119  1.00  0.00     0.081 A 
HETATM    6  S1  UNL     1      16.035  32.877  -3.636  1.00  0.00    -0.085 SA
ENDROOT
BRANCH   4   7
HETATM    7  C8  UNL     1      14.024  30.375  -1.442  1.00  0.00     0.266 C 
BRANCH   7   8
HETATM    8  O1  UNL     1      12.682  30.745  -1.430  1.00  0.00    -0.371 OA
ATOM      9  H1  UNL     1      12.354  30.645  -0.545  1.00  0.00     0.212 HD
ENDBRANCH   7   8
BRANCH   7  10
HETATM   10  N3  UNL     1      14.670  30.661  -0.211  1.00  0.00    -0.384 N 
ATOM     11  H3  UNL     1      14.669  31.594   0.202  1.00  0.00     0.156 HD
BRANCH  10  12
HETATM   12  C9  UNL     1      15.325  29.548   0.408  1.00  0.00     0.017 C 
HETATM   13  C10 UNL     1      15.027  29.409   1.885  1.00  0.00     0.037 C 
HETATM   14  C11 UNL     1      16.832  29.799   0.275  1.00  0.00     0.037 C 
HETATM   15  C12 UNL     1      15.035  28.233  -0.253  1.00  0.00     0.037 C 
ENDBRANCH  10  12
ENDBRANCH   7  10
ENDBRANCH   4   7
BRANCH   1  16
HETATM   16  C5  UNL     1      15.480  31.537  -6.119  1.00  0.00     0.297 C 
BRANCH  16  17
HETATM   17  N1  UNL     1      14.484  32.305  -6.791  1.00  0.00    -0.062 N 
ATOM     18  H12 UNL     1      14.904  32.917  -7.491  1.00  0.00     0.278 HD
ATOM     19  H11 UNL     1      14.087  33.011  -6.171  1.00  0.00     0.278 HD
BRANCH  17  20
HETATM   20  C2  UNL     1      13.466  31.499  -7.363  1.00  0.00     0.115 C 
HETATM   21  C1  UNL     1      12.169  31.515  -6.590  1.00  0.00     0.045 C 
HETATM   22  C3  UNL     1      13.896  30.059  -7.513  1.00  0.00     0.045 C 
HETATM   23  C4  UNL     1      13.108  31.968  -8.785  1.00  0.00     0.045 C 
ENDBRANCH  17  20
ENDBRANCH  16  17
ENDBRANCH   1  16
TORSDOF 7
ENDMDL
MODEL 4
REMARK VINA RESULT: -5.761448758     10.827     11.976
REMARK  7 active torsions:
REMARK  status: ('A' for Active; 'I' for Inactive)
REMARK    1  A    between atoms: C2_2  and  N1_5 
REMARK    2  A    between atoms: N1_5  and  C5_8 
REMARK    3  A    between atoms: C5_8  and  C6_9 
REMARK    4  A    between atoms: C7_12  and  C8_13 
REMARK    5  A    between atoms: C8_13  and  O1_14 
REMARK    6  A    between atoms: C8_13  and  N3_16 
REMARK    7  A    between atoms: N3_16  and  C9_18 
ROOT
HETATM    1  C6  UNL     1      14.410  29.995  -4.372  1.00  0.00     0.077 A 
HETATM    2  N2  UNL     1      14.588  29.078  -3.439  1.00  0.00    -0.352 N 
ATOM      3  H2  UNL     1      15.111  28.228  -3.651  1.00  0.00     0.166 HD
HETATM    4  C7  UNL     1      14.098  29.257  -2.252  1.00  0.00     0.065 A 
HETATM    5  C13 UNL     1      13.404  30.419  -2.022  1.00  0.00     0.081 A 
HETATM    6  S1  UNL     1      13.510  31.184  -3.563  1.00  0.00    -0.085 SA
ENDROOT
BRANCH   4   7
HETATM    7  C8  UNL     1      14.254  28.251  -1.120  1.00  0.00     0.266 C 
BRANCH   7   8
HETATM    8  O1  UNL     1      13.161  27.390  -1.148  1.00  0.00    -0.371 OA
ATOM      9  H1  UNL     1      13.413  26.605  -1.618  1.00  0.00     0.212 HD
ENDBRANCH   7   8
BRANCH   7  10
HETATM   10  N3  UNL     1      14.311  29.007   0.080  1.00  0.00    -0.384 N 
ATOM     11  H3  UNL     1      13.482  29.426   0.501  1.00  0.00     0.156 HD
BRANCH  10  12
HETATM   12  C9  UNL     1      15.615  29.140   0.656  1.00  0.00     0.017 C 
HETATM   13  C10 UNL     1      16.539  27.981   0.352  1.00  0.00     0.037 C 
HETATM   14  C11 UNL     1      15.418  29.172   2.178  1.00  0.00     0.037 C 
HETATM   15  C12 UNL     1      16.317  30.410   0.275  1.00  0.00     0.037 C 
ENDBRANCH  10  12
ENDBRANCH   7  10
ENDBRANCH   4   7
BRANCH   1  16
HETATM   16  C5  UNL     1      14.880  30.004  -5.798  1.00  0.00     0.297 C 
BRANCH  16  17
HETATM   17  N1  UNL     1      13.781  29.979  -6.706  1.00  0.00    -0.062 N 
ATOM     18  H12 UNL     1      12.894  30.074  -6.210  1.00  0.00     0.278 HD
ATOM     19  H11 UNL     1      13.651  29.047  -7.098  1.00  0.00     0.278 HD
BRANCH  17  20
HETATM   20  C2  UNL     1      13.897  30.953  -7.732  1.00  0.00     0.115 C 
HETATM   21  C1  UNL     1      14.478  30.415  -9.018  1.00  0.00     0.045 C 
HETATM   22  C3  UNL     1      14.735  32.134  -7.305  1.00  0.00     0.045 C 
HETATM   23  C4  UNL     1      12.525  31.541  -8.109  1.00  0.00     0.045 C 
ENDBRANCH  17  20
ENDBRANCH  16  17
ENDBRANCH   1  16
TORSDOF 7
ENDMDL
MODEL 5
REMARK VINA RESULT: -5.701154352      1.488      1.977
REMARK  7 active torsions:
REMARK  status: ('A' for Active; 'I' for Inactive)
REMARK    1  A    between atoms: C2_2  and  N1_5 
REMARK    2  A    between atoms: N1_5  and  C5_8 
REMARK    3  A    between atoms: C5_8  and  C6_9 
REMARK    4  A    between atoms: C7_12  and  C8_13 
REMARK    5  A    between atoms: C8_13  and  O1_14 
REMARK    6  A    between atoms: C8_13  and  N3_16 
REMARK    7  A    between atoms: N3_16  and  C9_18 
ROOT
HETATM    1  C6  UNL     1      22.137  36.332  -4.123  1.00  0.00     0.077 A 
HETATM    2  N2  UNL     1      23.229  35.645  -3.842  1.00  0.00    -0.352 N 
ATOM      3  H2  UNL     1      24.046  36.120  -3.457  1.00  0.00     0.166 HD
HETATM    4  C7  UNL     1      23.263  34.366  -4.055  1.00  0.00     0.065 A 
HETATM    5  C13 UNL     1      22.135  33.780  -4.572  1.00  0.00     0.081 A 
HETATM    6  S1  UNL     1      21.087  35.140  -4.718  1.00  0.00    -0.085 SA
ENDROOT
BRANCH   4   7
HETATM    7  C8  UNL     1      24.481  33.501  -3.762  1.00  0.00     0.266 C 
BRANCH   7   8
HETATM    8  O1  UNL     1      24.048  32.340  -3.127  1.00  0.00    -0.371 OA
ATOM      9  H1  UNL     1      23.103  32.294  -3.204  1.00  0.00     0.212 HD
ENDBRANCH   7   8
BRANCH   7  10
HETATM   10  N3  UNL     1      25.334  34.278  -2.936  1.00  0.00    -0.384 N 
ATOM     11  H3  UNL     1      24.973  34.906  -2.217  1.00  0.00     0.156 HD
BRANCH  10  12
HETATM   12  C9  UNL     1      26.735  34.120  -3.184  1.00  0.00     0.017 C 
HETATM   13  C10 UNL     1      27.598  35.155  -2.497  1.00  0.00     0.037 C 
HETATM   14  C11 UNL     1      26.934  34.298  -4.695  1.00  0.00     0.037 C 
HETATM   15  C12 UNL     1      27.261  32.761  -2.827  1.00  0.00     0.037 C 
ENDBRANCH  10  12
ENDBRANCH   7  10
ENDBRANCH   4   7
BRANCH   1  16
HETATM   16  C5  UNL     1      21.870  37.801  -3.961  1.00  0.00     0.297 C 
BRANCH  16  17
HETATM   17  N1  UNL     1      20.892  38.254  -4.894  1.00  0.00    -0.062 N 
ATOM     18  H12 UNL     1      20.060  37.664  -4.870  1.00  0.00     0.278 HD
ATOM     19  H11 UNL     1      21.191  38.078  -5.853  1.00  0.00     0.278 HD
BRANCH  17  20
HETATM   20  C2  UNL     1      20.552  39.620  -4.709  1.00  0.00     0.115 C 
HETATM   21  C1  UNL     1      20.291  40.363  -5.997  1.00  0.00     0.045 C 
HETATM   22  C3  UNL     1      21.616  40.374  -3.948  1.00  0.00     0.045 C 
HETATM   23  C4  UNL     1      19.268  39.772  -3.873  1.00  0.00     0.045 C 
ENDBRANCH  17  20
ENDBRANCH  16  17
ENDBRANCH   1  16
TORSDOF 7
ENDMDL
