MODEL 1
REMARK VINA RESULT: -5.907287403      0.000      0.000
REMARK  3 active torsions:
REMARK  status: ('A' for Active; 'I' for Inactive)
REMARK    1  A    between atoms: N4_8  and  C3_9 
REMARK    2  A    between atoms: C3_9  and  C4_10 
REMARK    3  A    between atoms: N5_17  and  O3_18 
ROOT
HETATM    1  N1  UNL     1      38.805  23.369  27.069  1.00  0.00    -0.171 NA
HETATM    2  C1  UNL     1      38.705  22.488  26.320  1.00  0.00     0.196 C 
HETATM    3  N2  UNL     1      38.588  21.458  25.425  1.00  0.00    -0.123 N 
ATOM      4  H2  UNL     1      38.700  20.522  25.815  1.00  0.00     0.197 HD
HETATM    5  C2  UNL     1      38.359  21.510  24.172  1.00  0.00     0.723 C 
HETATM    6  N3  UNL     1      38.263  20.342  23.362  1.00  0.00    -0.149 N 
ATOM      7  H3  UNL     1      38.151  19.430  23.806  1.00  0.00     0.199 HD
HETATM    8  N4  UNL     1      38.321  20.426  21.956  1.00  0.00    -0.212 NA
HETATM    9  C7  UNL     1      37.544  21.641  21.581  1.00  0.00     0.137 C 
HETATM   10  C8  UNL     1      38.238  22.863  22.124  1.00  0.00     0.191 C 
HETATM   11  N5  UNL     1      38.194  22.797  23.574  1.00  0.00    -0.088 N 
ENDROOT
BRANCH  11  12
HETATM   12  O3  UNL     1      37.999  23.938  24.254  1.00  0.00    -0.274 OA
ATOM     13  H3  UNL     1      37.729  24.761  23.864  1.00  0.00     0.245 HD
ENDBRANCH  11  12
BRANCH   8  14
HETATM   14  C3  UNL     1      37.616  19.345  21.308  1.00  0.00     0.149 C 
BRANCH  14  15
HETATM   15  C4  UNL     1      37.908  18.013  21.854  1.00  0.00     0.177 C 
HETATM   16  C5  UNL     1      37.595  16.830  20.973  1.00  0.00     0.065 C 
HETATM   17  C6  UNL     1      38.397  15.797  21.787  1.00  0.00     0.212 C 
HETATM   18  O1  UNL     1      39.468  16.541  22.261  1.00  0.00    -0.241 OA
HETATM   19  O2  UNL     1      39.318  17.790  21.943  1.00  0.00    -0.234 OA
ENDBRANCH  14  15
ENDBRANCH   8  14
TORSDOF 3
ENDMDL
MODEL 2
REMARK VINA RESULT: -5.735491183      2.860      4.661
REMARK  3 active torsions:
REMARK  status: ('A' for Active; 'I' for Inactive)
REMARK    1  A    between atoms: N4_8  and  C3_9 
REMARK    2  A    between atoms: C3_9  and  C4_10 
REMARK    3  A    between atoms: N5_17  and  O3_18 
ROOT
HETATM    1  N1  UNL     1      38.798  23.015  27.278  1.00  0.00    -0.171 NA
HETATM    2  C1  UNL     1      38.723  23.244  26.143  1.00  0.00     0.196 C 
HETATM    3  N2  UNL     1      38.628  23.502  24.801  1.00  0.00    -0.123 N 
ATOM      4  H2  UNL     1      38.756  24.477  24.530  1.00  0.00     0.197 HD
HETATM    5  C2  UNL     1      38.401  22.690  23.845  1.00  0.00     0.723 C 
HETATM    6  N3  UNL     1      38.330  23.108  22.484  1.00  0.00    -0.149 N 
ATOM      7  H3  UNL     1      38.685  24.028  22.223  1.00  0.00     0.199 HD
HETATM    8  N4  UNL     1      37.779  22.270  21.494  1.00  0.00    -0.212 NA
HETATM    9  C7  UNL     1      38.246  20.891  21.811  1.00  0.00     0.137 C 
HETATM   10  C8  UNL     1      37.661  20.458  23.130  1.00  0.00     0.191 C 
HETATM   11  N5  UNL     1      38.212  21.310  24.168  1.00  0.00    -0.088 N 
ENDROOT
BRANCH  11  12
HETATM   12  O3  UNL     1      38.511  20.754  25.352  1.00  0.00    -0.274 OA
ATOM     13  H3  UNL     1      38.112  20.995  26.180  1.00  0.00     0.245 HD
ENDBRANCH  11  12
BRANCH   8  14
HETATM   14  C3  UNL     1      38.324  22.532  20.183  1.00  0.00     0.149 C 
BRANCH  14  15
HETATM   15  C4  UNL     1      37.323  22.885  19.167  1.00  0.00     0.177 C 
HETATM   16  C5  UNL     1      35.886  22.546  19.478  1.00  0.00     0.065 C 
HETATM   17  C6  UNL     1      35.265  23.416  18.369  1.00  0.00     0.212 C 
HETATM   18  O1  UNL     1      36.132  24.497  18.302  1.00  0.00    -0.241 OA
HETATM   19  O2  UNL     1      37.149  24.302  19.086  1.00  0.00    -0.234 OA
ENDBRANCH  14  15
ENDBRANCH   8  14
TORSDOF 3
ENDMDL
MODEL 3
REMARK VINA RESULT: -5.706920811      3.114      3.451
REMARK  3 active torsions:
REMARK  status: ('A' for Active; 'I' for Inactive)
REMARK    1  A    between atoms: N4_8  and  C3_9 
REMARK    2  A    between atoms: C3_9  and  C4_10 
REMARK    3  A    between atoms: N5_17  and  O3_18 
ROOT
HETATM    1  N1  UNL     1      38.282  23.058  26.320  1.00  0.00    -0.171 NA
HETATM    2  C1  UNL     1      38.496  22.670  25.247  1.00  0.00     0.196 C 
HETATM    3  N2  UNL     1      38.738  22.219  23.977  1.00  0.00    -0.123 N 
ATOM      4  H2  UNL     1      39.671  21.838  23.815  1.00  0.00     0.197 HD
HETATM    5  C2  UNL     1      37.957  22.209  22.970  1.00  0.00     0.723 C 
HETATM    6  N3  UNL     1      38.352  21.702  21.698  1.00  0.00    -0.149 N 
ATOM      7  H3  UNL     1      39.192  21.128  21.625  1.00  0.00     0.199 HD
HETATM    8  N4  UNL     1      37.600  21.981  20.539  1.00  0.00    -0.212 NA
HETATM    9  C7  UNL     1      36.169  21.902  20.944  1.00  0.00     0.137 C 
HETATM   10  C8  UNL     1      35.870  22.996  21.936  1.00  0.00     0.191 C 
HETATM   11  N5  UNL     1      36.638  22.732  23.140  1.00  0.00    -0.088 N 
ENDROOT
BRANCH  11  12
HETATM   12  O3  UNL     1      36.064  22.987  24.326  1.00  0.00    -0.274 OA
ATOM     13  H3  UNL     1      35.235  22.624  24.616  1.00  0.00     0.245 HD
ENDBRANCH  11  12
BRANCH   8  14
HETATM   14  C3  UNL     1      37.737  20.956  19.531  1.00  0.00     0.149 C 
BRANCH  14  15
HETATM   15  C4  UNL     1      39.121  20.677  19.130  1.00  0.00     0.177 C 
HETATM   16  C5  UNL     1      39.357  20.335  17.680  1.00  0.00     0.065 C 
HETATM   17  C6  UNL     1      40.886  20.518  17.710  1.00  0.00     0.212 C 
HETATM   18  O1  UNL     1      41.055  21.552  18.619  1.00  0.00    -0.241 OA
HETATM   19  O2  UNL     1      39.915  21.867  19.154  1.00  0.00    -0.234 OA
ENDBRANCH  14  15
ENDBRANCH   8  14
TORSDOF 3
ENDMDL
MODEL 4
REMARK VINA RESULT: -5.635377150      1.245      1.276
REMARK  3 active torsions:
REMARK  status: ('A' for Active; 'I' for Inactive)
REMARK    1  A    between atoms: N4_8  and  C3_9 
REMARK    2  A    between atoms: C3_9  and  C4_10 
REMARK    3  A    between atoms: N5_17  and  O3_18 
ROOT
HETATM    1  N1  UNL     1      38.910  23.660  27.111  1.00  0.00    -0.171 NA
HETATM    2  C1  UNL     1      38.806  22.670  26.515  1.00  0.00     0.196 C 
HETATM    3  N2  UNL     1      38.685  21.508  25.800  1.00  0.00    -0.123 N 
ATOM      4  H2  UNL     1      38.827  20.648  26.330  1.00  0.00     0.197 HD
HETATM    5  C2  UNL     1      38.419  21.355  24.563  1.00  0.00     0.723 C 
HETATM    6  N3  UNL     1      38.323  20.071  23.952  1.00  0.00    -0.149 N 
ATOM      7  H3  UNL     1      38.242  19.241  24.539  1.00  0.00     0.199 HD
HETATM    8  N4  UNL     1      38.339  19.930  22.550  1.00  0.00    -0.212 NA
HETATM    9  C7  UNL     1      37.527  21.058  22.011  1.00  0.00     0.137 C 
HETATM   10  C8  UNL     1      38.212  22.362  22.330  1.00  0.00     0.191 C 
HETATM   11  N5  UNL     1      38.211  22.528  23.772  1.00  0.00    -0.088 N 
ENDROOT
BRANCH  11  12
HETATM   12  O3  UNL     1      38.012  23.759  24.268  1.00  0.00    -0.274 OA
ATOM     13  H3  UNL     1      37.190  24.233  24.227  1.00  0.00     0.245 HD
ENDBRANCH  11  12
BRANCH   8  14
HETATM   14  C3  UNL     1      37.638  18.749  22.105  1.00  0.00     0.149 C 
BRANCH  14  15
HETATM   15  C4  UNL     1      38.316  18.005  21.036  1.00  0.00     0.177 C 
HETATM   16  C5  UNL     1      39.630  17.352  21.387  1.00  0.00     0.065 C 
HETATM   17  C6  UNL     1      39.705  16.447  20.143  1.00  0.00     0.212 C 
HETATM   18  O1  UNL     1      38.374  16.140  19.903  1.00  0.00    -0.241 OA
HETATM   19  O2  UNL     1      37.610  16.803  20.717  1.00  0.00    -0.234 OA
ENDBRANCH  14  15
ENDBRANCH   8  14
TORSDOF 3
ENDMDL
MODEL 5
REMARK VINA RESULT: -5.520986211      2.634      3.282
REMARK  3 active torsions:
REMARK  status: ('A' for Active; 'I' for Inactive)
REMARK    1  A    between atoms: N4_8  and  C3_9 
REMARK    2  A    between atoms: C3_9  and  C4_10 
REMARK    3  A    between atoms: N5_17  and  O3_18 
ROOT
HETATM    1  N1  UNL     1      38.941  23.352  26.858  1.00  0.00    -0.171 NA
HETATM    2  C1  UNL     1      38.743  23.330  25.715  1.00  0.00     0.196 C 
HETATM    3  N2  UNL     1      38.503  23.290  24.367  1.00  0.00    -0.123 N 
ATOM      4  H2  UNL     1      38.493  24.195  23.896  1.00  0.00     0.197 HD
HETATM    5  C2  UNL     1      38.292  22.278  23.622  1.00  0.00     0.723 C 
HETATM    6  N3  UNL     1      38.056  22.393  22.221  1.00  0.00    -0.149 N 
ATOM      7  H3  UNL     1      38.276  23.268  21.746  1.00  0.00     0.199 HD
HETATM    8  N4  UNL     1      37.524  21.317  21.483  1.00  0.00    -0.212 NA
HETATM    9  C7  UNL     1      38.175  20.087  22.016  1.00  0.00     0.137 C 
HETATM   10  C8  UNL     1      37.760  19.884  23.450  1.00  0.00     0.191 C 
HETATM   11  N5  UNL     1      38.295  20.985  24.232  1.00  0.00    -0.088 N 
ENDROOT
BRANCH  11  12
HETATM   12  O3  UNL     1      38.758  20.721  25.463  1.00  0.00    -0.274 OA
ATOM     13  H3  UNL     1      39.618  20.365  25.653  1.00  0.00     0.245 HD
ENDBRANCH  11  12
BRANCH   8  14
HETATM   14  C3  UNL     1      37.920  21.349  20.095  1.00  0.00     0.149 C 
BRANCH  14  15
HETATM   15  C4  UNL     1      39.267  20.828  19.834  1.00  0.00     0.177 C 
HETATM   16  C5  UNL     1      39.385  19.714  18.823  1.00  0.00     0.065 C 
HETATM   17  C6  UNL     1      40.912  19.812  18.643  1.00  0.00     0.212 C 
HETATM   18  O1  UNL     1      41.155  21.169  18.791  1.00  0.00    -0.241 OA
HETATM   19  O2  UNL     1      40.062  21.784  19.125  1.00  0.00    -0.234 OA
ENDBRANCH  14  15
ENDBRANCH   8  14
TORSDOF 3
ENDMDL
