MODEL 1
REMARK VINA RESULT: -6.083895358      0.000      0.000
REMARK  4 active torsions:
REMARK  status: ('A' for Active; 'I' for Inactive)
REMARK    1  A    between atoms: N1_5  and  C4_6 
REMARK    2  A    between atoms: C6_8  and  O2_9 
REMARK    3  A    between atoms: C7_11  and  C8_12 
REMARK    4  A    between atoms: C8_12  and  O3_13 
ROOT
HETATM    1  C4  UNL     1      38.044  21.296  20.647  1.00  0.00     0.229 C 
HETATM    2  C5  UNL     1      37.598  22.515  19.867  1.00  0.00     0.088 C 
HETATM    3  C6  UNL     1      38.092  22.178  18.467  1.00  0.00     0.153 C 
HETATM    4  C7  UNL     1      39.113  21.128  18.733  1.00  0.00     0.176 C 
HETATM    5  O4  UNL     1      39.285  21.035  20.101  1.00  0.00    -0.356 OA
ENDROOT
BRANCH   1   6
HETATM    6  N1  UNL     1      38.149  21.588  22.066  1.00  0.00    -0.339 N 
HETATM    7  C3  UNL     1      38.246  22.860  22.461  1.00  0.00     0.097 A 
HETATM    8  C2  UNL     1      38.350  23.250  23.776  1.00  0.00     0.072 A 
HETATM    9  C1  UNL     1      38.358  22.294  24.768  1.00  0.00     0.174 A 
HETATM   10  O1  UNL     1      38.452  22.592  25.988  1.00  0.00    -0.288 OA
HETATM   11  C10 UNL     1      38.257  20.964  24.343  1.00  0.00     0.072 A 
HETATM   12  C9  UNL     1      38.156  20.638  23.014  1.00  0.00     0.097 A 
ENDBRANCH   1   6
BRANCH   3  13
HETATM   13  O2  UNL     1      38.595  23.317  17.860  1.00  0.00    -0.393 OA
ATOM     14  H2  UNL     1      39.145  23.074  17.125  1.00  0.00     0.210 HD
ENDBRANCH   3  13
BRANCH   4  15
HETATM   15  C8  UNL     1      40.406  21.327  17.991  1.00  0.00     0.198 C 
BRANCH  15  16
HETATM   16  O3  UNL     1      41.184  22.345  18.472  1.00  0.00    -0.398 OA
ATOM     17  H3  UNL     1      41.950  22.059  18.956  1.00  0.00     0.209 HD
ENDBRANCH  15  16
ENDBRANCH   4  15
TORSDOF 4
ENDMDL
MODEL 2
REMARK VINA RESULT: -6.064903199      0.127      1.207
REMARK  4 active torsions:
REMARK  status: ('A' for Active; 'I' for Inactive)
REMARK    1  A    between atoms: N1_5  and  C4_6 
REMARK    2  A    between atoms: C6_8  and  O2_9 
REMARK    3  A    between atoms: C7_11  and  C8_12 
REMARK    4  A    between atoms: C8_12  and  O3_13 
ROOT
HETATM    1  C4  UNL     1      38.051  21.451  20.682  1.00  0.00     0.229 C 
HETATM    2  C5  UNL     1      37.605  22.639  19.856  1.00  0.00     0.088 C 
HETATM    3  C6  UNL     1      38.091  22.244  18.468  1.00  0.00     0.153 C 
HETATM    4  C7  UNL     1      39.110  21.202  18.772  1.00  0.00     0.176 C 
HETATM    5  O4  UNL     1      39.288  21.164  20.142  1.00  0.00    -0.356 OA
ENDROOT
BRANCH   1   6
HETATM    6  N1  UNL     1      38.163  21.800  22.088  1.00  0.00    -0.339 N 
HETATM    7  C3  UNL     1      38.146  20.825  23.001  1.00  0.00     0.097 A 
HETATM    8  C2  UNL     1      38.245  21.040  24.356  1.00  0.00     0.072 A 
HETATM    9  C1  UNL     1      38.371  22.328  24.830  1.00  0.00     0.174 A 
HETATM   10  O1  UNL     1      38.466  22.585  26.059  1.00  0.00    -0.288 OA
HETATM   11  C10 UNL     1      38.388  23.341  23.865  1.00  0.00     0.072 A 
HETATM   12  C9  UNL     1      38.285  23.062  22.526  1.00  0.00     0.097 A 
ENDBRANCH   1   6
BRANCH   3  13
HETATM   13  O2  UNL     1      38.594  23.356  17.814  1.00  0.00    -0.393 OA
ATOM     14  H2  UNL     1      37.981  24.079  17.889  1.00  0.00     0.210 HD
ENDBRANCH   3  13
BRANCH   4  15
HETATM   15  C8  UNL     1      40.400  21.367  18.016  1.00  0.00     0.198 C 
BRANCH  15  16
HETATM   16  O3  UNL     1      41.180  22.406  18.448  1.00  0.00    -0.398 OA
ATOM     17  H3  UNL     1      40.707  23.215  18.601  1.00  0.00     0.209 HD
ENDBRANCH  15  16
ENDBRANCH   4  15
TORSDOF 4
ENDMDL
MODEL 3
REMARK VINA RESULT: -5.934696624      3.414      4.734
REMARK  4 active torsions:
REMARK  status: ('A' for Active; 'I' for Inactive)
REMARK    1  A    between atoms: N1_5  and  C4_6 
REMARK    2  A    between atoms: C6_8  and  O2_9 
REMARK    3  A    between atoms: C7_11  and  C8_12 
REMARK    4  A    between atoms: C8_12  and  O3_13 
ROOT
HETATM    1  C4  UNL     1      37.863  18.834  21.865  1.00  0.00     0.229 C 
HETATM    2  C5  UNL     1      39.048  18.560  20.963  1.00  0.00     0.088 C 
HETATM    3  C6  UNL     1      38.930  17.058  20.750  1.00  0.00     0.153 C 
HETATM    4  C7  UNL     1      38.057  16.644  21.884  1.00  0.00     0.176 C 
HETATM    5  O4  UNL     1      37.875  17.739  22.707  1.00  0.00    -0.356 OA
ENDROOT
BRANCH   1   6
HETATM    6  N1  UNL     1      38.041  20.067  22.610  1.00  0.00    -0.339 N 
HETATM    7  C3  UNL     1      38.134  20.013  23.942  1.00  0.00     0.097 A 
HETATM    8  C2  UNL     1      38.303  21.116  24.746  1.00  0.00     0.072 A 
HETATM    9  C1  UNL     1      38.386  22.366  24.172  1.00  0.00     0.174 A 
HETATM   10  O1  UNL     1      38.541  23.411  24.858  1.00  0.00    -0.288 OA
HETATM   11  C10 UNL     1      38.288  22.412  22.777  1.00  0.00     0.072 A 
HETATM   12  C9  UNL     1      38.118  21.274  22.029  1.00  0.00     0.097 A 
ENDBRANCH   1   6
BRANCH   3  13
HETATM   13  O2  UNL     1      40.189  16.482  20.765  1.00  0.00    -0.393 OA
ATOM     14  H2  UNL     1      40.576  16.575  21.628  1.00  0.00     0.210 HD
ENDBRANCH   3  13
BRANCH   4  15
HETATM   15  C8  UNL     1      38.547  15.429  22.624  1.00  0.00     0.198 C 
BRANCH  15  16
HETATM   16  O3  UNL     1      38.640  14.299  21.857  1.00  0.00    -0.398 OA
ATOM     17  H3  UNL     1      39.446  13.809  21.975  1.00  0.00     0.209 HD
ENDBRANCH  15  16
ENDBRANCH   4  15
TORSDOF 4
ENDMDL
MODEL 4
REMARK VINA RESULT: -5.815639707      3.079      5.477
REMARK  4 active torsions:
REMARK  status: ('A' for Active; 'I' for Inactive)
REMARK    1  A    between atoms: N1_5  and  C4_6 
REMARK    2  A    between atoms: C6_8  and  O2_9 
REMARK    3  A    between atoms: C7_11  and  C8_12 
REMARK    4  A    between atoms: C8_12  and  O3_13 
ROOT
HETATM    1  C4  UNL     1      38.017  21.224  22.251  1.00  0.00     0.229 C 
HETATM    2  C5  UNL     1      36.643  21.828  22.453  1.00  0.00     0.088 C 
HETATM    3  C6  UNL     1      36.966  23.039  23.317  1.00  0.00     0.153 C 
HETATM    4  C7  UNL     1      38.309  22.691  23.861  1.00  0.00     0.176 C 
HETATM    5  O4  UNL     1      38.597  21.391  23.492  1.00  0.00    -0.356 OA
ENDROOT
BRANCH   1   6
HETATM    6  N1  UNL     1      37.927  19.816  21.903  1.00  0.00    -0.339 N 
HETATM    7  C3  UNL     1      38.153  18.899  22.848  1.00  0.00     0.097 A 
HETATM    8  C2  UNL     1      38.095  17.542  22.631  1.00  0.00     0.072 A 
HETATM    9  C1  UNL     1      37.789  17.069  21.373  1.00  0.00     0.174 A 
HETATM   10  O1  UNL     1      37.722  15.839  21.116  1.00  0.00    -0.288 OA
HETATM   11  C10 UNL     1      37.555  18.038  20.391  1.00  0.00     0.072 A 
HETATM   12  C9  UNL     1      37.628  19.380  20.671  1.00  0.00     0.097 A 
ENDBRANCH   1   6
BRANCH   3  13
HETATM   13  O2  UNL     1      35.987  23.200  24.283  1.00  0.00    -0.393 OA
ATOM     14  H2  UNL     1      36.047  24.070  24.660  1.00  0.00     0.210 HD
ENDBRANCH   3  13
BRANCH   4  15
HETATM   15  C8  UNL     1      38.451  22.928  25.340  1.00  0.00     0.198 C 
BRANCH  15  16
HETATM   16  O3  UNL     1      37.859  21.975  26.125  1.00  0.00    -0.398 OA
ATOM     17  H3  UNL     1      36.910  21.996  26.118  1.00  0.00     0.209 HD
ENDBRANCH  15  16
ENDBRANCH   4  15
TORSDOF 4
ENDMDL
MODEL 5
REMARK VINA RESULT: -5.805716352      3.093      5.440
REMARK  4 active torsions:
REMARK  status: ('A' for Active; 'I' for Inactive)
REMARK    1  A    between atoms: N1_5  and  C4_6 
REMARK    2  A    between atoms: C6_8  and  O2_9 
REMARK    3  A    between atoms: C7_11  and  C8_12 
REMARK    4  A    between atoms: C8_12  and  O3_13 
ROOT
HETATM    1  C4  UNL     1      37.998  21.206  22.254  1.00  0.00     0.229 C 
HETATM    2  C5  UNL     1      36.626  21.813  22.458  1.00  0.00     0.088 C 
HETATM    3  C6  UNL     1      36.958  23.041  23.296  1.00  0.00     0.153 C 
HETATM    4  C7  UNL     1      38.306  22.704  23.833  1.00  0.00     0.176 C 
HETATM    5  O4  UNL     1      38.591  21.397  23.486  1.00  0.00    -0.356 OA
ENDROOT
BRANCH   1   6
HETATM    6  N1  UNL     1      37.906  19.792  21.934  1.00  0.00    -0.339 N 
HETATM    7  C3  UNL     1      37.489  19.427  20.719  1.00  0.00     0.097 A 
HETATM    8  C2  UNL     1      37.364  18.120  20.309  1.00  0.00     0.072 A 
HETATM    9  C1  UNL     1      37.680  17.103  21.183  1.00  0.00     0.174 A 
HETATM   10  O1  UNL     1      37.585  15.889  20.864  1.00  0.00    -0.288 OA
HETATM   11  C10 UNL     1      38.116  17.495  22.454  1.00  0.00     0.072 A 
HETATM   12  C9  UNL     1      38.219  18.819  22.803  1.00  0.00     0.097 A 
ENDBRANCH   1   6
BRANCH   3  13
HETATM   13  O2  UNL     1      35.989  23.220  24.268  1.00  0.00    -0.393 OA
ATOM     14  H2  UNL     1      35.339  22.530  24.206  1.00  0.00     0.210 HD
ENDBRANCH   3  13
BRANCH   4  15
HETATM   15  C8  UNL     1      38.463  22.969  25.305  1.00  0.00     0.198 C 
BRANCH  15  16
HETATM   16  O3  UNL     1      37.853  22.049  26.114  1.00  0.00    -0.398 OA
ATOM     17  H3  UNL     1      38.237  21.970  26.979  1.00  0.00     0.209 HD
ENDBRANCH  15  16
ENDBRANCH   4  15
TORSDOF 4
ENDMDL
