MODEL 1
REMARK VINA RESULT: -4.937336846      0.000      0.000
REMARK  3 active torsions:
REMARK  status: ('A' for Active; 'I' for Inactive)
REMARK    1  A    between atoms: C2_2  and  N1_3 
REMARK    2  A    between atoms: C2_2  and  C3_7 
REMARK    3  A    between atoms: N1_3  and  N2_4 
ROOT
HETATM    1  C3  UNL     1      12.345  17.610  14.575  1.00  0.00     0.119 A 
HETATM    2  N3  UNL     1      11.380  18.161  15.341  1.00  0.00    -0.340 N 
ATOM      3  H3  UNL     1      10.902  17.584  16.032  1.00  0.00     0.168 HD
HETATM    4  C4  UNL     1      11.035  19.456  15.213  1.00  0.00     0.199 A 
HETATM    5  N4  UNL     1      11.635  20.261  14.318  1.00  0.00    -0.188 N 
ATOM      6  H4  UNL     1      11.370  21.242  14.226  1.00  0.00     0.185 HD
HETATM    7  C5  UNL     1      12.599  19.722  13.551  1.00  0.00     0.678 A 
HETATM    8  N5  UNL     1      13.171  20.504  12.694  1.00  0.00    -0.234 N 
ATOM      9  H51 UNL     1      13.902  20.095  12.112  1.00  0.00     0.174 HD
ATOM     10  H52 UNL     1      12.913  21.485  12.594  1.00  0.00     0.174 HD
HETATM   11  N6  UNL     1      12.941  18.423  13.683  1.00  0.00    -0.179 N 
ATOM     12  H6  UNL     1      13.676  18.045  13.086  1.00  0.00     0.185 HD
ENDROOT
BRANCH   1  13
HETATM   13  C2  UNL     1      12.737  16.177  14.706  1.00  0.00     0.162 C 
HETATM   14  C1  UNL     1      12.375  15.648  16.065  1.00  0.00     0.038 C 
BRANCH  13  15
HETATM   15  N1  UNL     1      14.171  16.006  14.518  1.00  0.00    -0.136 NA
BRANCH  15  16
HETATM   16  N2  UNL     1      14.500  14.693  14.831  1.00  0.00    -0.348 N 
ATOM     17  H22 UNL     1      14.548  14.310  15.776  1.00  0.00     0.172 HD
ATOM     18  H21 UNL     1      14.681  14.192  13.961  1.00  0.00     0.172 HD
ENDBRANCH  15  16
ENDBRANCH  13  15
ENDBRANCH   1  13
TORSDOF 3
ENDMDL
MODEL 2
REMARK VINA RESULT: -4.766200548      0.988      2.010
REMARK  3 active torsions:
REMARK  status: ('A' for Active; 'I' for Inactive)
REMARK    1  A    between atoms: C2_2  and  N1_3 
REMARK    2  A    between atoms: C2_2  and  C3_7 
REMARK    3  A    between atoms: N1_3  and  N2_4 
ROOT
HETATM    1  C3  UNL     1      12.415  16.897  14.741  1.00  0.00     0.119 A 
HETATM    2  N3  UNL     1      13.144  17.452  13.750  1.00  0.00    -0.340 N 
ATOM      3  H3  UNL     1      13.875  16.902  13.301  1.00  0.00     0.168 HD
HETATM    4  C4  UNL     1      12.927  18.716  13.342  1.00  0.00     0.199 A 
HETATM    5  N4  UNL     1      11.974  19.484  13.900  1.00  0.00    -0.188 N 
ATOM      6  H4  UNL     1      11.814  20.441  13.586  1.00  0.00     0.185 HD
HETATM    7  C5  UNL     1      11.242  18.940  14.887  1.00  0.00     0.678 A 
HETATM    8  N5  UNL     1      10.328  19.686  15.418  1.00  0.00    -0.234 N 
ATOM      9  H51 UNL     1       9.772  19.273  16.167  1.00  0.00     0.174 HD
ATOM     10  H52 UNL     1      10.160  20.644  15.111  1.00  0.00     0.174 HD
HETATM   11  N6  UNL     1      11.464  17.672  15.294  1.00  0.00    -0.179 N 
ATOM     12  H6  UNL     1      10.891  17.289  16.045  1.00  0.00     0.185 HD
ENDROOT
BRANCH   1  13
HETATM   13  C2  UNL     1      12.645  15.498  15.204  1.00  0.00     0.162 C 
HETATM   14  C1  UNL     1      12.312  15.358  16.663  1.00  0.00     0.038 C 
BRANCH  13  15
HETATM   15  N1  UNL     1      14.035  15.105  15.015  1.00  0.00    -0.136 NA
BRANCH  15  16
HETATM   16  N2  UNL     1      14.141  13.742  15.264  1.00  0.00    -0.348 N 
ATOM     17  H22 UNL     1      14.736  13.096  14.744  1.00  0.00     0.172 HD
ATOM     18  H21 UNL     1      13.529  13.510  16.046  1.00  0.00     0.172 HD
ENDBRANCH  15  16
ENDBRANCH  13  15
ENDBRANCH   1  13
TORSDOF 3
ENDMDL
MODEL 3
REMARK VINA RESULT: -4.564503138      2.063      5.200
REMARK  3 active torsions:
REMARK  status: ('A' for Active; 'I' for Inactive)
REMARK    1  A    between atoms: C2_2  and  N1_3 
REMARK    2  A    between atoms: C2_2  and  C3_7 
REMARK    3  A    between atoms: N1_3  and  N2_4 
ROOT
HETATM    1  C3  UNL     1      12.128  15.699  15.555  1.00  0.00     0.119 A 
HETATM    2  N3  UNL     1      13.337  15.829  14.970  1.00  0.00    -0.340 N 
ATOM      3  H3  UNL     1      13.597  16.723  14.554  1.00  0.00     0.168 HD
HETATM    4  C4  UNL     1      14.209  14.804  14.922  1.00  0.00     0.199 A 
HETATM    5  N4  UNL     1      13.917  13.605  15.456  1.00  0.00    -0.188 N 
ATOM      6  H4  UNL     1      14.581  12.832  15.418  1.00  0.00     0.185 HD
HETATM    7  C5  UNL     1      12.716  13.466  16.044  1.00  0.00     0.678 A 
HETATM    8  N5  UNL     1      12.444  12.309  16.555  1.00  0.00    -0.234 N 
ATOM      9  H51 UNL     1      11.533  12.204  17.000  1.00  0.00     0.174 HD
ATOM     10  H52 UNL     1      13.102  11.531  16.521  1.00  0.00     0.174 HD
HETATM   11  N6  UNL     1      11.845  14.497  16.088  1.00  0.00    -0.179 N 
ATOM     12  H6  UNL     1      10.942  14.359  16.541  1.00  0.00     0.185 HD
ENDROOT
BRANCH   1  13
HETATM   13  C2  UNL     1      11.153  16.827  15.615  1.00  0.00     0.162 C 
HETATM   14  C1  UNL     1       9.750  16.327  15.415  1.00  0.00     0.038 C 
BRANCH  13  15
HETATM   15  N1  UNL     1      11.434  17.817  14.585  1.00  0.00    -0.136 NA
BRANCH  15  16
HETATM   16  N2  UNL     1      11.520  19.065  15.190  1.00  0.00    -0.348 N 
ATOM     17  H22 UNL     1      10.729  19.594  15.558  1.00  0.00     0.172 HD
ATOM     18  H21 UNL     1      12.500  19.350  15.200  1.00  0.00     0.172 HD
ENDBRANCH  15  16
ENDBRANCH  13  15
ENDBRANCH   1  13
TORSDOF 3
ENDMDL
MODEL 4
REMARK VINA RESULT: -4.541466851      1.691      4.415
REMARK  3 active torsions:
REMARK  status: ('A' for Active; 'I' for Inactive)
REMARK    1  A    between atoms: C2_2  and  N1_3 
REMARK    2  A    between atoms: C2_2  and  C3_7 
REMARK    3  A    between atoms: N1_3  and  N2_4 
ROOT
HETATM    1  C3  UNL     1      12.275  20.112  13.899  1.00  0.00     0.119 A 
HETATM    2  N3  UNL     1      11.426  19.737  14.878  1.00  0.00    -0.340 N 
ATOM      3  H3  UNL     1      10.823  20.436  15.311  1.00  0.00     0.168 HD
HETATM    4  C4  UNL     1      11.356  18.460  15.297  1.00  0.00     0.199 A 
HETATM    5  N4  UNL     1      12.127  17.498  14.759  1.00  0.00    -0.188 N 
ATOM      6  H4  UNL     1      12.070  16.531  15.080  1.00  0.00     0.185 HD
HETATM    7  C5  UNL     1      12.975  17.861  13.781  1.00  0.00     0.678 A 
HETATM    8  N5  UNL     1      13.713  16.930  13.270  1.00  0.00    -0.234 N 
ATOM      9  H51 UNL     1      14.356  17.205  12.528  1.00  0.00     0.174 HD
ATOM     10  H52 UNL     1      13.663  15.961  13.584  1.00  0.00     0.174 HD
HETATM   11  N6  UNL     1      13.042  19.143  13.365  1.00  0.00    -0.179 N 
ATOM     12  H6  UNL     1      13.696  19.386  12.622  1.00  0.00     0.185 HD
ENDROOT
BRANCH   1  13
HETATM   13  C2  UNL     1      12.363  21.524  13.425  1.00  0.00     0.162 C 
HETATM   14  C1  UNL     1      12.077  21.610  11.952  1.00  0.00     0.038 C 
BRANCH  13  15
HETATM   15  N1  UNL     1      13.689  22.076  13.665  1.00  0.00    -0.136 NA
BRANCH  15  16
HETATM   16  N2  UNL     1      13.853  22.242  15.035  1.00  0.00    -0.348 N 
ATOM     17  H22 UNL     1      14.343  23.020  15.476  1.00  0.00     0.172 HD
ATOM     18  H21 UNL     1      13.402  21.460  15.509  1.00  0.00     0.172 HD
ENDBRANCH  15  16
ENDBRANCH  13  15
ENDBRANCH   1  13
TORSDOF 3
ENDMDL
MODEL 5
REMARK VINA RESULT: -4.465345312      1.384      4.395
REMARK  3 active torsions:
REMARK  status: ('A' for Active; 'I' for Inactive)
REMARK    1  A    between atoms: C2_2  and  N1_3 
REMARK    2  A    between atoms: C2_2  and  C3_7 
REMARK    3  A    between atoms: N1_3  and  N2_4 
ROOT
HETATM    1  C3  UNL     1      12.171  16.761  15.097  1.00  0.00     0.119 A 
HETATM    2  N3  UNL     1      11.042  16.233  15.615  1.00  0.00    -0.340 N 
ATOM      3  H3  UNL     1      10.210  16.816  15.696  1.00  0.00     0.168 HD
HETATM    4  C4  UNL     1      10.990  14.952  16.027  1.00  0.00     0.199 A 
HETATM    5  N4  UNL     1      12.058  14.139  15.941  1.00  0.00    -0.188 N 
ATOM      6  H4  UNL     1      12.013  13.170  16.254  1.00  0.00     0.185 HD
HETATM    7  C5  UNL     1      13.187  14.655  15.425  1.00  0.00     0.678 A 
HETATM    8  N5  UNL     1      14.209  13.867  15.346  1.00  0.00    -0.234 N 
ATOM      9  H51 UNL     1      15.065  14.258  14.954  1.00  0.00     0.174 HD
ATOM     10  H52 UNL     1      14.173  12.896  15.656  1.00  0.00     0.174 HD
HETATM   11  N6  UNL     1      13.235  15.940  15.014  1.00  0.00    -0.179 N 
ATOM     12  H6  UNL     1      14.106  16.301  14.627  1.00  0.00     0.185 HD
ENDROOT
BRANCH   1  13
HETATM   13  C2  UNL     1      12.243  18.178  14.637  1.00  0.00     0.162 C 
HETATM   14  C1  UNL     1      10.929  18.875  14.852  1.00  0.00     0.038 C 
BRANCH  13  15
HETATM   15  N1  UNL     1      12.572  18.254  13.221  1.00  0.00    -0.136 NA
BRANCH  15  16
HETATM   16  N2  UNL     1      13.045  19.531  12.949  1.00  0.00    -0.348 N 
ATOM     17  H22 UNL     1      13.911  19.926  13.318  1.00  0.00     0.172 HD
ATOM     18  H21 UNL     1      12.383  19.993  12.326  1.00  0.00     0.172 HD
ENDBRANCH  15  16
ENDBRANCH  13  15
ENDBRANCH   1  13
TORSDOF 3
ENDMDL
