MODEL 1
REMARK VINA RESULT: -4.116135729      0.000      0.000
REMARK  4 active torsions:
REMARK  status: ('A' for Active; 'I' for Inactive)
REMARK    1  A    between atoms: C3_9  and  C4_10 
REMARK    2  A    between atoms: C4_10  and  N4_11 
REMARK    3  A    between atoms: C4_10  and  C5_15 
REMARK    4  A    between atoms: C5_15  and  N5_17 
ROOT
HETATM    1  C4  UNL     1      12.476  20.868  13.477  1.00  0.00     0.266 C 
ENDROOT
BRANCH   1   2
HETATM    2  C3  UNL     1      12.294  19.457  13.793  1.00  0.00     0.083 A 
HETATM    3  C2  UNL     1      11.494  18.756  14.660  1.00  0.00     0.049 A 
HETATM    4  C1  UNL     1      10.233  19.287  15.274  1.00  0.00     0.072 C 
HETATM    5  N1  UNL     1      11.940  17.445  14.733  1.00  0.00    -0.289 N 
HETATM    6  N2  UNL     1      12.993  17.345  13.932  1.00  0.00    -0.242 N 
ATOM      7  H1  UNL     1      11.535  16.698  15.297  1.00  0.00     0.188 HD
HETATM    8  N3  UNL     1      13.204  18.498  13.381  1.00  0.00    -0.286 N 
ATOM      9  H2  UNL     1      13.544  16.501  13.777  1.00  0.00     0.208 HD
ATOM     10  H3  UNL     1      13.957  18.680  12.717  1.00  0.00     0.188 HD
ENDBRANCH   1   2
BRANCH   1  11
HETATM   11  N4  UNL     1      13.915  21.233  13.593  1.00  0.00    -0.068 N 
ATOM     12  H43 UNL     1      14.223  21.271  14.565  1.00  0.00     0.275 HD
ATOM     13  H42 UNL     1      14.527  20.483  13.272  1.00  0.00     0.275 HD
ATOM     14  H41 UNL     1      14.093  22.108  13.101  1.00  0.00     0.275 HD
ENDBRANCH   1  11
BRANCH   1  15
HETATM   15  C5  UNL     1      12.111  21.160  12.070  1.00  0.00     0.215 C 
HETATM   16  C6  UNL     1      12.395  22.473  11.442  1.00  0.00     0.042 C 
BRANCH  15  17
HETATM   17  N5  UNL     1      10.563  21.121  12.038  1.00  0.00    -0.073 N 
ATOM     18  H53 UNL     1      10.166  21.273  11.111  1.00  0.00     0.274 HD
ATOM     19  H52 UNL     1      10.170  20.190  12.183  1.00  0.00     0.274 HD
ATOM     20  H51 UNL     1      10.265  21.807  12.732  1.00  0.00     0.274 HD
ENDBRANCH  15  17
ENDBRANCH   1  15
TORSDOF 4
ENDMDL
MODEL 2
REMARK VINA RESULT: -4.102350968      3.555      6.092
REMARK  4 active torsions:
REMARK  status: ('A' for Active; 'I' for Inactive)
REMARK    1  A    between atoms: C3_9  and  C4_10 
REMARK    2  A    between atoms: C4_10  and  N4_11 
REMARK    3  A    between atoms: C4_10  and  C5_15 
REMARK    4  A    between atoms: C5_15  and  N5_17 
ROOT
HETATM    1  C4  UNL     1      12.488  15.103  16.061  1.00  0.00     0.266 C 
ENDROOT
BRANCH   1   2
HETATM    2  C3  UNL     1      12.996  16.074  15.099  1.00  0.00     0.083 A 
HETATM    3  C2  UNL     1      12.518  17.243  14.562  1.00  0.00     0.049 A 
HETATM    4  C1  UNL     1      11.431  18.079  15.170  1.00  0.00     0.072 C 
HETATM    5  N1  UNL     1      13.310  17.605  13.483  1.00  0.00    -0.289 N 
HETATM    6  N2  UNL     1      14.250  16.678  13.358  1.00  0.00    -0.242 N 
ATOM      7  H1  UNL     1      13.192  18.431  12.896  1.00  0.00     0.188 HD
HETATM    8  N3  UNL     1      14.082  15.791  14.288  1.00  0.00    -0.286 N 
ATOM      9  H2  UNL     1      14.982  16.665  12.649  1.00  0.00     0.208 HD
ATOM     10  H3  UNL     1      14.682  14.975  14.409  1.00  0.00     0.188 HD
ENDBRANCH   1   2
BRANCH   1  11
HETATM   11  N4  UNL     1      11.025  14.910  15.864  1.00  0.00    -0.068 N 
ATOM     12  H43 UNL     1      10.558  15.774  15.593  1.00  0.00     0.275 HD
ATOM     13  H42 UNL     1      10.821  14.361  15.028  1.00  0.00     0.275 HD
ATOM     14  H41 UNL     1      10.613  14.497  16.701  1.00  0.00     0.275 HD
ENDBRANCH   1  11
BRANCH   1  15
HETATM   15  C5  UNL     1      13.092  13.765  15.849  1.00  0.00     0.215 C 
HETATM   16  C6  UNL     1      12.288  12.606  15.391  1.00  0.00     0.042 C 
BRANCH  15  17
HETATM   17  N5  UNL     1      13.546  13.300  17.255  1.00  0.00    -0.073 N 
ATOM     18  H53 UNL     1      14.549  13.130  17.330  1.00  0.00     0.274 HD
ATOM     19  H52 UNL     1      13.498  14.029  17.967  1.00  0.00     0.274 HD
ATOM     20  H51 UNL     1      12.972  12.482  17.463  1.00  0.00     0.274 HD
ENDBRANCH  15  17
ENDBRANCH   1  15
TORSDOF 4
ENDMDL
MODEL 3
REMARK VINA RESULT: -3.934618670      2.106      4.469
REMARK  4 active torsions:
REMARK  status: ('A' for Active; 'I' for Inactive)
REMARK    1  A    between atoms: C3_9  and  C4_10 
REMARK    2  A    between atoms: C4_10  and  N4_11 
REMARK    3  A    between atoms: C4_10  and  C5_15 
REMARK    4  A    between atoms: C5_15  and  N5_17 
ROOT
HETATM    1  C4  UNL     1      11.955  17.700  14.360  1.00  0.00     0.266 C 
ENDROOT
BRANCH   1   2
HETATM    2  C3  UNL     1      11.867  19.096  14.773  1.00  0.00     0.083 A 
HETATM    3  C2  UNL     1      12.212  20.295  14.204  1.00  0.00     0.049 A 
HETATM    4  C1  UNL     1      12.432  20.510  12.735  1.00  0.00     0.072 C 
HETATM    5  N1  UNL     1      12.153  21.290  15.167  1.00  0.00    -0.289 N 
HETATM    6  N2  UNL     1      11.783  20.714  16.303  1.00  0.00    -0.242 N 
ATOM      7  H1  UNL     1      12.355  22.280  15.028  1.00  0.00     0.188 HD
HETATM    8  N3  UNL     1      11.611  19.448  16.087  1.00  0.00    -0.286 N 
ATOM      9  H2  UNL     1      11.656  21.188  17.197  1.00  0.00     0.208 HD
ATOM     10  H3  UNL     1      11.319  18.785  16.806  1.00  0.00     0.188 HD
ENDBRANCH   1   2
BRANCH   1  11
HETATM   11  N4  UNL     1      13.297  17.426  13.778  1.00  0.00    -0.068 N 
ATOM     12  H43 UNL     1      13.979  18.140  14.035  1.00  0.00     0.275 HD
ATOM     13  H42 UNL     1      13.749  16.623  14.217  1.00  0.00     0.275 HD
ATOM     14  H41 UNL     1      13.222  17.316  12.766  1.00  0.00     0.275 HD
ENDBRANCH   1  11
BRANCH   1  15
HETATM   15  C5  UNL     1      11.838  16.784  15.521  1.00  0.00     0.215 C 
HETATM   16  C6  UNL     1      12.623  15.529  15.611  1.00  0.00     0.042 C 
BRANCH  15  17
HETATM   17  N5  UNL     1      10.387  16.247  15.468  1.00  0.00    -0.073 N 
ATOM     18  H53 UNL     1      10.190  15.672  14.649  1.00  0.00     0.274 HD
ATOM     19  H52 UNL     1      10.185  15.531  16.166  1.00  0.00     0.274 HD
ATOM     20  H51 UNL     1       9.794  17.074  15.543  1.00  0.00     0.274 HD
ENDBRANCH  15  17
ENDBRANCH   1  15
TORSDOF 4
ENDMDL
MODEL 4
REMARK VINA RESULT: -3.919718274      1.803      2.450
REMARK  4 active torsions:
REMARK  status: ('A' for Active; 'I' for Inactive)
REMARK    1  A    between atoms: C3_9  and  C4_10 
REMARK    2  A    between atoms: C4_10  and  N4_11 
REMARK    3  A    between atoms: C4_10  and  C5_15 
REMARK    4  A    between atoms: C5_15  and  N5_17 
ROOT
HETATM    1  C4  UNL     1      11.196  18.954  14.771  1.00  0.00     0.266 C 
ENDROOT
BRANCH   1   2
HETATM    2  C3  UNL     1      12.104  17.884  14.372  1.00  0.00     0.083 A 
HETATM    3  C2  UNL     1      12.452  16.666  14.897  1.00  0.00     0.049 A 
HETATM    4  C1  UNL     1      11.631  15.902  15.894  1.00  0.00     0.072 C 
HETATM    5  N1  UNL     1      13.573  16.189  14.237  1.00  0.00    -0.289 N 
HETATM    6  N2  UNL     1      13.909  17.096  13.329  1.00  0.00    -0.242 N 
ATOM      7  H1  UNL     1      14.051  15.305  14.416  1.00  0.00     0.188 HD
HETATM    8  N3  UNL     1      13.066  18.077  13.394  1.00  0.00    -0.286 N 
ATOM      9  H2  UNL     1      14.699  17.031  12.688  1.00  0.00     0.208 HD
ATOM     10  H3  UNL     1      13.106  18.900  12.793  1.00  0.00     0.188 HD
ENDBRANCH   1   2
BRANCH   1  11
HETATM   11  N4  UNL     1      11.655  19.558  16.051  1.00  0.00    -0.068 N 
ATOM     12  H43 UNL     1      11.875  18.849  16.751  1.00  0.00     0.275 HD
ATOM     13  H42 UNL     1      12.581  19.977  15.967  1.00  0.00     0.275 HD
ATOM     14  H41 UNL     1      10.963  20.227  16.388  1.00  0.00     0.275 HD
ENDBRANCH   1  11
BRANCH   1  15
HETATM   15  C5  UNL     1      11.205  20.065  13.788  1.00  0.00     0.215 C 
HETATM   16  C6  UNL     1      11.806  21.384  14.103  1.00  0.00     0.042 C 
BRANCH  15  17
HETATM   17  N5  UNL     1       9.715  20.436  13.585  1.00  0.00    -0.073 N 
ATOM     18  H53 UNL     1       9.123  20.221  14.388  1.00  0.00     0.274 HD
ATOM     19  H52 UNL     1       9.537  21.440  13.573  1.00  0.00     0.274 HD
ATOM     20  H51 UNL     1       9.436  19.957  12.729  1.00  0.00     0.274 HD
ENDBRANCH  15  17
ENDBRANCH   1  15
TORSDOF 4
ENDMDL
MODEL 5
REMARK VINA RESULT: -3.915678898      2.623      3.181
REMARK  4 active torsions:
REMARK  status: ('A' for Active; 'I' for Inactive)
REMARK    1  A    between atoms: C3_9  and  C4_10 
REMARK    2  A    between atoms: C4_10  and  N4_11 
REMARK    3  A    between atoms: C4_10  and  C5_15 
REMARK    4  A    between atoms: C5_15  and  N5_17 
ROOT
HETATM    1  C4  UNL     1      10.894  19.215  15.696  1.00  0.00     0.266 C 
ENDROOT
BRANCH   1   2
HETATM    2  C3  UNL     1      11.716  18.389  14.819  1.00  0.00     0.083 A 
HETATM    3  C2  UNL     1      12.219  17.114  14.885  1.00  0.00     0.049 A 
HETATM    4  C1  UNL     1      11.684  16.032  15.776  1.00  0.00     0.072 C 
HETATM    5  N1  UNL     1      13.167  16.947  13.887  1.00  0.00    -0.289 N 
HETATM    6  N2  UNL     1      13.247  18.094  13.227  1.00  0.00    -0.242 N 
ATOM      7  H1  UNL     1      13.702  16.100  13.697  1.00  0.00     0.188 HD
HETATM    8  N3  UNL     1      12.411  18.933  13.753  1.00  0.00    -0.286 N 
ATOM      9  H2  UNL     1      13.863  18.284  12.437  1.00  0.00     0.208 HD
ATOM     10  H3  UNL     1      12.279  19.888  13.418  1.00  0.00     0.188 HD
ENDBRANCH   1   2
BRANCH   1  11
HETATM   11  N4  UNL     1      11.672  20.397  16.158  1.00  0.00    -0.068 N 
ATOM     12  H43 UNL     1      11.321  21.266  15.757  1.00  0.00     0.275 HD
ATOM     13  H42 UNL     1      11.502  20.606  17.142  1.00  0.00     0.275 HD
ATOM     14  H41 UNL     1      12.664  20.258  15.963  1.00  0.00     0.275 HD
ENDBRANCH   1  11
BRANCH   1  15
HETATM   15  C5  UNL     1       9.725  19.774  14.973  1.00  0.00     0.215 C 
HETATM   16  C6  UNL     1       8.907  20.875  15.539  1.00  0.00     0.042 C 
BRANCH  15  17
HETATM   17  N5  UNL     1       8.698  18.617  14.908  1.00  0.00    -0.073 N 
ATOM     18  H53 UNL     1       7.886  18.752  15.510  1.00  0.00     0.274 HD
ATOM     19  H52 UNL     1       8.186  18.569  14.027  1.00  0.00     0.274 HD
ATOM     20  H51 UNL     1       9.233  17.775  15.120  1.00  0.00     0.274 HD
ENDBRANCH  15  17
ENDBRANCH   1  15
TORSDOF 4
ENDMDL
