MODEL 1
REMARK VINA RESULT: -6.896295372      0.000      0.000
REMARK  5 active torsions:
REMARK  status: ('A' for Active; 'I' for Inactive)
REMARK    1  A    between atoms: C1_4  and  N2_5 
REMARK    2  A    between atoms: N2_5  and  C2_7 
REMARK    3  A    between atoms: C2_7  and  C3_8 
REMARK    4  A    between atoms: C2_7  and  C7_21 
REMARK    5  A    between atoms: C3_8  and  C4_12 
ROOT
HETATM    1  C3  UNL     1      35.874  31.232  -0.602  1.00  0.00     0.044 C 
HETATM    2  N3  UNL     1      35.330  30.098  -0.484  1.00  0.00    -0.401 N 
ATOM      3  H31 UNL     1      35.050  29.578  -1.315  1.00  0.00     0.155 HD
ATOM      4  H32 UNL     1      35.199  29.716   0.453  1.00  0.00     0.155 HD
ENDROOT
BRANCH   1   5
HETATM    5  C2  UNL     1      36.278  31.985   0.601  1.00  0.00     0.220 C 
BRANCH   5   6
HETATM    6  N2  UNL     1      35.106  32.282   1.436  1.00  0.00    -0.369 N 
ATOM      7  H2  UNL     1      35.006  31.776   2.316  1.00  0.00     0.161 HD
BRANCH   6   8
HETATM    8  C1  UNL     1      34.120  33.210   1.103  1.00  0.00     0.169 C 
HETATM    9  N1  UNL     1      34.363  34.466   0.953  1.00  0.00    -0.396 N 
ATOM     10  H12 UNL     1      35.325  34.779   1.087  1.00  0.00     0.156 HD
ATOM     11  H11 UNL     1      33.642  35.145   0.709  1.00  0.00     0.156 HD
ENDBRANCH   6   8
ENDBRANCH   5   6
BRANCH   5  12
HETATM   12  C7  UNL     1      37.221  31.235   1.473  1.00  0.00     0.259 C 
HETATM   13  N6  UNL     1      38.203  30.354   0.996  1.00  0.00    -0.060 NA
HETATM   14  O3  UNL     1      37.142  31.395   2.706  1.00  0.00    -0.274 OA
ENDBRANCH   5  12
ENDBRANCH   1   5
BRANCH   1  15
HETATM   15  C4  UNL     1      36.063  31.785  -1.959  1.00  0.00     0.226 C 
HETATM   16  N4  UNL     1      35.966  33.242  -1.947  1.00  0.00    -0.324 N 
HETATM   17  C5  UNL     1      34.700  33.627  -2.401  1.00  0.00     0.323 C 
ATOM     18  H4  UNL     1      36.706  33.879  -1.653  1.00  0.00     0.165 HD
HETATM   19  O1  UNL     1      34.129  34.752  -2.391  1.00  0.00    -0.247 OA
HETATM   20  N5  UNL     1      34.066  32.460  -2.936  1.00  0.00    -0.277 N 
HETATM   21  C6  UNL     1      34.932  31.351  -2.817  1.00  0.00     0.254 C 
ATOM     22  H5  UNL     1      33.131  32.433  -3.342  1.00  0.00     0.173 HD
HETATM   23  O2  UNL     1      34.822  30.208  -3.311  1.00  0.00    -0.270 OA
ENDBRANCH   1  15
TORSDOF 5
ENDMDL
MODEL 2
REMARK VINA RESULT: -6.512353589      1.249      2.281
REMARK  5 active torsions:
REMARK  status: ('A' for Active; 'I' for Inactive)
REMARK    1  A    between atoms: C1_4  and  N2_5 
REMARK    2  A    between atoms: N2_5  and  C2_7 
REMARK    3  A    between atoms: C2_7  and  C3_8 
REMARK    4  A    between atoms: C2_7  and  C7_21 
REMARK    5  A    between atoms: C3_8  and  C4_12 
ROOT
HETATM    1  C3  UNL     1      36.083  31.414  -0.985  1.00  0.00     0.044 C 
HETATM    2  N3  UNL     1      37.063  31.451  -1.782  1.00  0.00    -0.401 N 
ATOM      3  H31 UNL     1      36.970  31.069  -2.722  1.00  0.00     0.155 HD
ATOM      4  H32 UNL     1      37.930  31.887  -1.466  1.00  0.00     0.155 HD
ENDROOT
BRANCH   1   5
HETATM    5  C2  UNL     1      36.217  31.967   0.376  1.00  0.00     0.220 C 
BRANCH   5   6
HETATM    6  N2  UNL     1      34.909  32.001   1.045  1.00  0.00    -0.369 N 
ATOM      7  H2  UNL     1      34.498  31.114   1.334  1.00  0.00     0.161 HD
BRANCH   6   8
HETATM    8  C1  UNL     1      34.193  33.168   1.310  1.00  0.00     0.169 C 
HETATM    9  N1  UNL     1      34.553  34.325   0.871  1.00  0.00    -0.396 N 
ATOM     10  H12 UNL     1      35.400  34.371   0.306  1.00  0.00     0.156 HD
ATOM     11  H11 UNL     1      34.029  35.178   1.065  1.00  0.00     0.156 HD
ENDBRANCH   6   8
ENDBRANCH   5   6
BRANCH   5  12
HETATM   12  C7  UNL     1      37.105  31.158   1.254  1.00  0.00     0.259 C 
HETATM   13  N6  UNL     1      38.174  30.380   0.789  1.00  0.00    -0.060 NA
HETATM   14  O3  UNL     1      36.891  31.168   2.481  1.00  0.00    -0.274 OA
ENDBRANCH   5  12
ENDBRANCH   1   5
BRANCH   1  15
HETATM   15  C4  UNL     1      34.828  30.783  -1.443  1.00  0.00     0.226 C 
HETATM   16  N4  UNL     1      35.099  29.724  -2.410  1.00  0.00    -0.324 N 
HETATM   17  C5  UNL     1      34.860  30.204  -3.703  1.00  0.00     0.323 C 
ATOM     18  H4  UNL     1      35.413  28.782  -2.180  1.00  0.00     0.165 HD
HETATM   19  O1  UNL     1      35.124  29.700  -4.829  1.00  0.00    -0.247 OA
HETATM   20  N5  UNL     1      34.206  31.471  -3.573  1.00  0.00    -0.277 N 
HETATM   21  C6  UNL     1      34.039  31.782  -2.206  1.00  0.00     0.254 C 
ATOM     22  H5  UNL     1      33.907  32.060  -4.350  1.00  0.00     0.173 HD
HETATM   23  O2  UNL     1      33.372  32.701  -1.683  1.00  0.00    -0.270 OA
ENDBRANCH   1  15
TORSDOF 5
ENDMDL
MODEL 3
REMARK VINA RESULT: -6.455021759      1.770      4.237
REMARK  5 active torsions:
REMARK  status: ('A' for Active; 'I' for Inactive)
REMARK    1  A    between atoms: C1_4  and  N2_5 
REMARK    2  A    between atoms: N2_5  and  C2_7 
REMARK    3  A    between atoms: C2_7  and  C3_8 
REMARK    4  A    between atoms: C2_7  and  C7_21 
REMARK    5  A    between atoms: C3_8  and  C4_12 
ROOT
HETATM    1  C3  UNL     1      36.113  31.100  -1.141  1.00  0.00     0.044 C 
HETATM    2  N3  UNL     1      37.355  31.177  -1.360  1.00  0.00    -0.401 N 
ATOM      3  H31 UNL     1      38.016  31.083  -0.589  1.00  0.00     0.155 HD
ATOM      4  H32 UNL     1      37.672  31.314  -2.319  1.00  0.00     0.155 HD
ENDROOT
BRANCH   1   5
HETATM    5  C2  UNL     1      35.158  31.235  -2.256  1.00  0.00     0.220 C 
BRANCH   5   6
HETATM    6  N2  UNL     1      35.167  32.612  -2.773  1.00  0.00    -0.369 N 
ATOM      7  H2  UNL     1      35.991  32.923  -3.287  1.00  0.00     0.161 HD
BRANCH   6   8
HETATM    8  C1  UNL     1      34.123  33.520  -2.605  1.00  0.00     0.169 C 
HETATM    9  N1  UNL     1      34.114  34.412  -1.676  1.00  0.00    -0.396 N 
ATOM     10  H12 UNL     1      34.914  34.441  -1.044  1.00  0.00     0.156 HD
ATOM     11  H11 UNL     1      33.350  35.076  -1.553  1.00  0.00     0.156 HD
ENDBRANCH   6   8
ENDBRANCH   5   6
BRANCH   5  12
HETATM   12  C7  UNL     1      35.482  30.362  -3.416  1.00  0.00     0.259 C 
HETATM   13  N6  UNL     1      36.512  30.619  -4.332  1.00  0.00    -0.060 NA
HETATM   14  O3  UNL     1      34.800  29.333  -3.590  1.00  0.00    -0.274 OA
ENDBRANCH   5  12
ENDBRANCH   1   5
BRANCH   1  15
HETATM   15  C4  UNL     1      35.654  30.901   0.250  1.00  0.00     0.226 C 
HETATM   16  N4  UNL     1      34.515  31.765   0.551  1.00  0.00    -0.324 N 
HETATM   17  C5  UNL     1      34.955  32.877   1.278  1.00  0.00     0.323 C 
ATOM     18  H4  UNL     1      33.551  31.585   0.274  1.00  0.00     0.165 HD
HETATM   19  O1  UNL     1      34.358  33.942   1.593  1.00  0.00    -0.247 OA
HETATM   20  N5  UNL     1      36.311  32.625   1.662  1.00  0.00    -0.277 N 
HETATM   21  C6  UNL     1      36.717  31.363   1.177  1.00  0.00     0.254 C 
ATOM     22  H5  UNL     1      36.895  33.261   2.204  1.00  0.00     0.173 HD
HETATM   23  O2  UNL     1      37.752  30.713   1.439  1.00  0.00    -0.270 OA
ENDBRANCH   1  15
TORSDOF 5
ENDMDL
MODEL 4
REMARK VINA RESULT: -6.451785467      1.452      2.354
REMARK  5 active torsions:
REMARK  status: ('A' for Active; 'I' for Inactive)
REMARK    1  A    between atoms: C1_4  and  N2_5 
REMARK    2  A    between atoms: N2_5  and  C2_7 
REMARK    3  A    between atoms: C2_7  and  C3_8 
REMARK    4  A    between atoms: C2_7  and  C7_21 
REMARK    5  A    between atoms: C3_8  and  C4_12 
ROOT
HETATM    1  C3  UNL     1      35.563  31.021  -0.496  1.00  0.00     0.044 C 
HETATM    2  N3  UNL     1      35.345  29.802  -0.245  1.00  0.00    -0.401 N 
ATOM      3  H31 UNL     1      34.907  29.208  -0.948  1.00  0.00     0.155 HD
ATOM      4  H32 UNL     1      35.634  29.433   0.661  1.00  0.00     0.155 HD
ENDROOT
BRANCH   1   5
HETATM    5  C2  UNL     1      36.196  31.882   0.521  1.00  0.00     0.220 C 
BRANCH   5   6
HETATM    6  N2  UNL     1      35.181  32.423   1.436  1.00  0.00    -0.369 N 
ATOM      7  H2  UNL     1      35.208  32.122   2.410  1.00  0.00     0.161 HD
BRANCH   6   8
HETATM    8  C1  UNL     1      34.184  33.322   1.059  1.00  0.00     0.169 C 
HETATM    9  N1  UNL     1      34.368  34.597   1.024  1.00  0.00    -0.396 N 
ATOM     10  H12 UNL     1      35.289  34.947   1.286  1.00  0.00     0.156 HD
ATOM     11  H11 UNL     1      33.638  35.254   0.748  1.00  0.00     0.156 HD
ENDBRANCH   6   8
ENDBRANCH   5   6
BRANCH   5  12
HETATM   12  C7  UNL     1      37.173  31.157   1.377  1.00  0.00     0.259 C 
HETATM   13  N6  UNL     1      38.234  30.386   0.881  1.00  0.00    -0.060 NA
HETATM   14  O3  UNL     1      37.048  31.236   2.615  1.00  0.00    -0.274 OA
ENDBRANCH   5  12
ENDBRANCH   1   5
BRANCH   1  15
HETATM   15  C4  UNL     1      35.143  31.556  -1.808  1.00  0.00     0.226 C 
HETATM   16  N4  UNL     1      34.490  30.523  -2.607  1.00  0.00    -0.324 N 
HETATM   17  C5  UNL     1      35.397  30.023  -3.550  1.00  0.00     0.323 C 
ATOM     18  H4  UNL     1      33.525  30.215  -2.496  1.00  0.00     0.165 HD
HETATM   19  O1  UNL     1      35.320  29.023  -4.314  1.00  0.00    -0.247 OA
HETATM   20  N5  UNL     1      36.542  30.882  -3.536  1.00  0.00    -0.277 N 
HETATM   21  C6  UNL     1      36.353  31.913  -2.590  1.00  0.00     0.254 C 
ATOM     22  H5  UNL     1      37.369  30.766  -4.121  1.00  0.00     0.173 HD
HETATM   23  O2  UNL     1      37.034  32.944  -2.402  1.00  0.00    -0.270 OA
ENDBRANCH   1  15
TORSDOF 5
ENDMDL
MODEL 5
REMARK VINA RESULT: -6.405174527      1.789      3.388
REMARK  5 active torsions:
REMARK  status: ('A' for Active; 'I' for Inactive)
REMARK    1  A    between atoms: C1_4  and  N2_5 
REMARK    2  A    between atoms: N2_5  and  C2_7 
REMARK    3  A    between atoms: C2_7  and  C3_8 
REMARK    4  A    between atoms: C2_7  and  C7_21 
REMARK    5  A    between atoms: C3_8  and  C4_12 
ROOT
HETATM    1  C3  UNL     1      35.672  32.115   0.654  1.00  0.00     0.044 C 
HETATM    2  N3  UNL     1      36.288  32.970   1.351  1.00  0.00    -0.401 N 
ATOM      3  H31 UNL     1      35.783  33.762   1.749  1.00  0.00     0.155 HD
ATOM      4  H32 UNL     1      37.285  32.836   1.517  1.00  0.00     0.155 HD
ENDROOT
BRANCH   1   5
HETATM    5  C2  UNL     1      36.402  30.969   0.079  1.00  0.00     0.220 C 
BRANCH   5   6
HETATM    6  N2  UNL     1      37.000  31.341  -1.212  1.00  0.00    -0.369 N 
ATOM      7  H2  UNL     1      37.918  31.787  -1.201  1.00  0.00     0.161 HD
BRANCH   6   8
HETATM    8  C1  UNL     1      36.395  31.124  -2.449  1.00  0.00     0.169 C 
HETATM    9  N1  UNL     1      37.062  30.845  -3.515  1.00  0.00    -0.396 N 
ATOM     10  H12 UNL     1      38.077  30.783  -3.432  1.00  0.00     0.156 HD
ATOM     11  H11 UNL     1      36.620  30.686  -4.420  1.00  0.00     0.156 HD
ENDBRANCH   6   8
ENDBRANCH   5   6
BRANCH   5  12
HETATM   12  C7  UNL     1      37.528  30.502   0.932  1.00  0.00     0.259 C 
HETATM   13  N6  UNL     1      38.843  30.335   0.476  1.00  0.00    -0.060 NA
HETATM   14  O3  UNL     1      37.295  30.242   2.128  1.00  0.00    -0.274 OA
ENDBRANCH   5  12
ENDBRANCH   1   5
BRANCH   1  15
HETATM   15  C4  UNL     1      34.227  32.310   0.414  1.00  0.00     0.226 C 
HETATM   16  N4  UNL     1      33.896  32.076  -0.988  1.00  0.00    -0.324 N 
HETATM   17  C5  UNL     1      33.763  33.304  -1.645  1.00  0.00     0.323 C 
ATOM     18  H4  UNL     1      33.779  31.160  -1.421  1.00  0.00     0.165 HD
HETATM   19  O1  UNL     1      33.657  33.573  -2.873  1.00  0.00    -0.247 OA
HETATM   20  N5  UNL     1      33.761  34.326  -0.642  1.00  0.00    -0.277 N 
HETATM   21  C6  UNL     1      33.892  33.739   0.635  1.00  0.00     0.254 C 
ATOM     22  H5  UNL     1      33.677  35.326  -0.823  1.00  0.00     0.173 HD
HETATM   23  O2  UNL     1      33.763  34.264   1.762  1.00  0.00    -0.270 OA
ENDBRANCH   1  15
TORSDOF 5
ENDMDL
