MODEL 1
REMARK VINA RESULT: -4.573254031      0.000      0.000
REMARK  2 active torsions:
REMARK  status: ('A' for Active; 'I' for Inactive)
REMARK    1  A    between atoms: C1_4  and  N2_5 
REMARK    2  A    between atoms: N3_7  and  N4_9 
ROOT
HETATM    1  N2  UNL     1      36.554  25.448  31.500  1.00  0.00    -0.280 N 
ATOM      2  H2  UNL     1      36.723  24.588  32.021  1.00  0.00     0.189 HD
HETATM    3  N3  UNL     1      37.151  26.509  31.865  1.00  0.00    -0.203 N 
ATOM      4  H3  UNL     1      36.977  27.367  31.341  1.00  0.00     0.212 HD
ENDROOT
BRANCH   3   5
HETATM    5  N4  UNL     1      38.028  26.559  32.940  1.00  0.00    -0.084 N 
HETATM    6  N5  UNL     1      37.878  26.293  34.221  1.00  0.00    -0.188 N 
HETATM    7  N6  UNL     1      39.150  26.604  34.408  1.00  0.00    -0.208 N 
ATOM      8  H5  UNL     1      37.110  25.981  34.816  1.00  0.00     0.213 HD
HETATM    9  N7  UNL     1      39.284  26.865  33.127  1.00  0.00    -0.188 N 
ATOM     10  H6  UNL     1      39.772  26.631  35.216  1.00  0.00     0.211 HD
ATOM     11  H7  UNL     1      40.049  27.176  32.529  1.00  0.00     0.213 HD
ENDBRANCH   3   5
BRANCH   1  12
HETATM   12  C1  UNL     1      35.662  25.411  30.403  1.00  0.00     0.192 C 
HETATM   13  N1  UNL     1      34.466  25.825  30.571  1.00  0.00    -0.394 N 
ATOM     14  H12 UNL     1      34.175  26.173  31.485  1.00  0.00     0.156 HD
ATOM     15  H11 UNL     1      33.823  25.798  29.780  1.00  0.00     0.156 HD
ENDBRANCH   1  12
TORSDOF 2
ENDMDL
MODEL 2
REMARK VINA RESULT: -4.265931523      0.880      1.249
REMARK  2 active torsions:
REMARK  status: ('A' for Active; 'I' for Inactive)
REMARK    1  A    between atoms: C1_4  and  N2_5 
REMARK    2  A    between atoms: N3_7  and  N4_9 
ROOT
HETATM    1  N2  UNL     1      36.520  26.656  31.708  1.00  0.00    -0.280 N 
ATOM      2  H2  UNL     1      35.984  27.440  32.079  1.00  0.00     0.189 HD
HETATM    3  N3  UNL     1      37.526  26.241  32.366  1.00  0.00    -0.203 N 
ATOM      4  H3  UNL     1      38.059  25.457  31.990  1.00  0.00     0.212 HD
ENDROOT
BRANCH   3   5
HETATM    5  N4  UNL     1      37.934  26.801  33.569  1.00  0.00    -0.084 N 
HETATM    6  N5  UNL     1      39.043  26.689  34.270  1.00  0.00    -0.188 N 
HETATM    7  N6  UNL     1      38.531  27.517  35.164  1.00  0.00    -0.208 N 
ATOM      8  H5  UNL     1      39.921  26.180  34.167  1.00  0.00     0.213 HD
HETATM    9  N7  UNL     1      37.430  27.620  34.453  1.00  0.00    -0.188 N 
ATOM     10  H6  UNL     1      38.858  27.914  36.046  1.00  0.00     0.211 HD
ATOM     11  H7  UNL     1      36.551  28.127  34.551  1.00  0.00     0.213 HD
ENDBRANCH   3   5
BRANCH   1  12
HETATM   12  C1  UNL     1      36.114  26.076  30.484  1.00  0.00     0.192 C 
HETATM   13  N1  UNL     1      34.950  25.555  30.409  1.00  0.00    -0.394 N 
ATOM     14  H12 UNL     1      34.338  25.566  31.225  1.00  0.00     0.156 HD
ATOM     15  H11 UNL     1      34.657  25.137  29.526  1.00  0.00     0.156 HD
ENDBRANCH   1  12
TORSDOF 2
ENDMDL
MODEL 3
REMARK VINA RESULT: -4.260270141      2.038      4.270
REMARK  2 active torsions:
REMARK  status: ('A' for Active; 'I' for Inactive)
REMARK    1  A    between atoms: C1_4  and  N2_5 
REMARK    2  A    between atoms: N3_7  and  N4_9 
ROOT
HETATM    1  N2  UNL     1      37.795  26.303  33.242  1.00  0.00    -0.280 N 
ATOM      2  H2  UNL     1      37.697  25.293  33.336  1.00  0.00     0.189 HD
HETATM    3  N3  UNL     1      37.140  26.897  32.328  1.00  0.00    -0.203 N 
ATOM      4  H3  UNL     1      37.241  27.907  32.238  1.00  0.00     0.212 HD
ENDROOT
BRANCH   3   5
HETATM    5  N4  UNL     1      36.292  26.237  31.448  1.00  0.00    -0.084 N 
HETATM    6  N5  UNL     1      36.319  25.028  30.928  1.00  0.00    -0.188 N 
HETATM    7  N6  UNL     1      35.201  25.309  30.280  1.00  0.00    -0.208 N 
ATOM      8  H5  UNL     1      36.937  24.219  30.996  1.00  0.00     0.213 HD
HETATM    9  N7  UNL     1      35.188  26.514  30.807  1.00  0.00    -0.188 N 
ATOM     10  H6  UNL     1      34.597  24.801  29.634  1.00  0.00     0.211 HD
ATOM     11  H7  UNL     1      34.573  27.324  30.743  1.00  0.00     0.213 HD
ENDBRANCH   3   5
BRANCH   1  12
HETATM   12  C1  UNL     1      38.654  26.987  34.133  1.00  0.00     0.192 C 
HETATM   13  N1  UNL     1      38.171  27.435  35.227  1.00  0.00    -0.394 N 
ATOM     14  H12 UNL     1      37.182  27.296  35.438  1.00  0.00     0.156 HD
ATOM     15  H11 UNL     1      38.790  27.928  35.870  1.00  0.00     0.156 HD
ENDBRANCH   1  12
TORSDOF 2
ENDMDL
MODEL 4
REMARK VINA RESULT: -3.937496391      1.939      4.274
REMARK  2 active torsions:
REMARK  status: ('A' for Active; 'I' for Inactive)
REMARK    1  A    between atoms: C1_4  and  N2_5 
REMARK    2  A    between atoms: N3_7  and  N4_9 
ROOT
HETATM    1  N2  UNL     1      37.921  26.341  32.754  1.00  0.00    -0.280 N 
ATOM      2  H2  UNL     1      37.989  25.324  32.710  1.00  0.00     0.189 HD
HETATM    3  N3  UNL     1      37.043  26.925  32.045  1.00  0.00    -0.203 N 
ATOM      4  H3  UNL     1      36.980  27.941  32.092  1.00  0.00     0.212 HD
ENDROOT
BRANCH   3   5
HETATM    5  N4  UNL     1      36.164  26.247  31.211  1.00  0.00    -0.084 N 
HETATM    6  N5  UNL     1      34.891  26.430  30.924  1.00  0.00    -0.188 N 
HETATM    7  N6  UNL     1      34.949  25.386  30.116  1.00  0.00    -0.208 N 
ATOM      8  H5  UNL     1      34.170  27.095  31.204  1.00  0.00     0.213 HD
HETATM    9  N7  UNL     1      36.219  25.215  30.411  1.00  0.00    -0.188 N 
ATOM     10  H6  UNL     1      34.281  24.907  29.511  1.00  0.00     0.211 HD
ATOM     11  H7  UNL     1      36.943  24.554  30.133  1.00  0.00     0.213 HD
ENDBRANCH   3   5
BRANCH   1  12
HETATM   12  C1  UNL     1      38.811  27.043  33.601  1.00  0.00     0.192 C 
HETATM   13  N1  UNL     1      38.394  27.421  34.748  1.00  0.00    -0.394 N 
ATOM     14  H12 UNL     1      37.436  27.214  35.031  1.00  0.00     0.156 HD
ATOM     15  H11 UNL     1      39.035  27.928  35.358  1.00  0.00     0.156 HD
ENDBRANCH   1  12
TORSDOF 2
ENDMDL
MODEL 5
REMARK VINA RESULT: -3.594586501      2.517      3.985
REMARK  2 active torsions:
REMARK  status: ('A' for Active; 'I' for Inactive)
REMARK    1  A    between atoms: C1_4  and  N2_5 
REMARK    2  A    between atoms: N3_7  and  N4_9 
ROOT
HETATM    1  N2  UNL     1      37.588  25.944  34.460  1.00  0.00    -0.280 N 
ATOM      2  H2  UNL     1      37.737  26.950  34.382  1.00  0.00     0.189 HD
HETATM    3  N3  UNL     1      37.231  25.300  33.424  1.00  0.00    -0.203 N 
ATOM      4  H3  UNL     1      37.083  24.294  33.506  1.00  0.00     0.212 HD
ENDROOT
BRANCH   3   5
HETATM    5  N4  UNL     1      37.032  25.897  32.186  1.00  0.00    -0.084 N 
HETATM    6  N5  UNL     1      36.581  27.084  31.835  1.00  0.00    -0.188 N 
HETATM    7  N6  UNL     1      36.747  26.744  30.568  1.00  0.00    -0.208 N 
ATOM      8  H5  UNL     1      36.247  27.912  32.329  1.00  0.00     0.213 HD
HETATM    9  N7  UNL     1      37.196  25.563  30.934  1.00  0.00    -0.188 N 
ATOM     10  H6  UNL     1      36.591  27.208  29.673  1.00  0.00     0.211 HD
ATOM     11  H7  UNL     1      37.531  24.734  30.445  1.00  0.00     0.213 HD
ENDBRANCH   3   5
BRANCH   1  12
HETATM   12  C1  UNL     1      37.789  25.324  35.715  1.00  0.00     0.192 C 
HETATM   13  N1  UNL     1      37.159  24.242  35.971  1.00  0.00    -0.394 N 
ATOM     14  H12 UNL     1      36.529  23.847  35.273  1.00  0.00     0.156 HD
ATOM     15  H11 UNL     1      37.303  23.795  36.876  1.00  0.00     0.156 HD
ENDBRANCH   1  12
TORSDOF 2
ENDMDL
