MODEL 1
REMARK VINA RESULT: -4.979966881      0.000      0.000
REMARK  1 active torsions:
REMARK  status: ('A' for Active; 'I' for Inactive)
REMARK    1  A    between atoms: N1_1  and  C1_4 
ROOT
HETATM    1  C1  UNL     1      28.455  27.333   1.531  1.00  0.00     0.694 A 
HETATM    2  N2  UNL     1      28.865  28.076   2.576  1.00  0.00    -0.139 N 
ATOM      3  H2  UNL     1      28.184  28.408   3.259  1.00  0.00     0.189 HD
HETATM    4  C2  UNL     1      30.166  28.383   2.726  1.00  0.00     0.376 A 
HETATM    5  O1  UNL     1      30.540  29.086   3.717  1.00  0.00    -0.243 OA
HETATM    6  N3  UNL     1      31.106  27.967   1.849  1.00  0.00    -0.014 N 
HETATM    7  N4  UNL     1      32.371  27.934   1.482  1.00  0.00    -0.203 N 
ATOM      8  H4  UNL     1      33.248  28.310   1.842  1.00  0.00     0.210 HD
HETATM    9  N5  UNL     1      32.008  27.201   0.442  1.00  0.00    -0.114 N 
ATOM     10  H5  UNL     1      32.517  26.780  -0.334  1.00  0.00     0.207 HD
HETATM   11  C3  UNL     1      30.712  27.223   0.799  1.00  0.00     0.739 A 
HETATM   12  N6  UNL     1      29.403  26.926   0.668  1.00  0.00    -0.019 N 
ATOM     13  H6  UNL     1      29.116  26.362  -0.132  1.00  0.00     0.203 HD
ENDROOT
BRANCH   1  14
HETATM   14  N1  UNL     1      27.195  27.020   1.362  1.00  0.00    -0.234 N 
ATOM     15  H12 UNL     1      26.540  26.997   2.144  1.00  0.00     0.174 HD
ATOM     16  H11 UNL     1      26.819  26.788   0.443  1.00  0.00     0.174 HD
ENDBRANCH   1  14
TORSDOF 1
ENDMDL
MODEL 2
REMARK VINA RESULT: -4.936217881      1.581      2.357
REMARK  1 active torsions:
REMARK  status: ('A' for Active; 'I' for Inactive)
REMARK    1  A    between atoms: N1_1  and  C1_4 
ROOT
HETATM    1  C1  UNL     1      28.432  27.321   1.536  1.00  0.00     0.694 A 
HETATM    2  N2  UNL     1      29.378  26.914   0.670  1.00  0.00    -0.139 N 
ATOM      3  H2  UNL     1      29.117  26.337  -0.130  1.00  0.00     0.189 HD
HETATM    4  C2  UNL     1      30.665  27.260   0.851  1.00  0.00     0.376 A 
HETATM    5  O1  UNL     1      31.548  26.868   0.026  1.00  0.00    -0.243 OA
HETATM    6  N3  UNL     1      31.061  28.022   1.895  1.00  0.00    -0.014 N 
HETATM    7  N4  UNL     1      32.034  28.624   2.546  1.00  0.00    -0.203 N 
ATOM      8  H4  UNL     1      33.043  28.724   2.429  1.00  0.00     0.210 HD
HETATM    9  N5  UNL     1      31.134  29.046   3.419  1.00  0.00    -0.114 N 
ATOM     10  H5  UNL     1      31.186  29.615   4.264  1.00  0.00     0.207 HD
HETATM   11  C3  UNL     1      30.126  28.438   2.769  1.00  0.00     0.739 A 
HETATM   12  N6  UNL     1      28.843  28.079   2.569  1.00  0.00    -0.019 N 
ATOM     13  H6  UNL     1      28.143  28.399   3.238  1.00  0.00     0.203 HD
ENDROOT
BRANCH   1  14
HETATM   14  N1  UNL     1      27.172  26.997   1.382  1.00  0.00    -0.234 N 
ATOM     15  H12 UNL     1      26.890  26.046   1.145  1.00  0.00     0.174 HD
ATOM     16  H11 UNL     1      26.425  27.683   1.493  1.00  0.00     0.174 HD
ENDBRANCH   1  14
TORSDOF 1
ENDMDL
MODEL 3
REMARK VINA RESULT: -4.918284478      1.070      3.140
REMARK  1 active torsions:
REMARK  status: ('A' for Active; 'I' for Inactive)
REMARK    1  A    between atoms: N1_1  and  C1_4 
ROOT
HETATM    1  C1  UNL     1      32.081  27.611   1.072  1.00  0.00     0.694 A 
HETATM    2  N2  UNL     1      32.121  28.375   2.179  1.00  0.00    -0.139 N 
ATOM      3  H2  UNL     1      33.019  28.712   2.529  1.00  0.00     0.189 HD
HETATM    4  C2  UNL     1      30.988  28.698   2.828  1.00  0.00     0.376 A 
HETATM    5  O1  UNL     1      31.041  29.419   3.872  1.00  0.00    -0.243 OA
HETATM    6  N3  UNL     1      29.776  28.276   2.404  1.00  0.00    -0.014 N 
HETATM    7  N4  UNL     1      28.469  28.250   2.571  1.00  0.00    -0.203 N 
ATOM      8  H4  UNL     1      27.809  28.639   3.243  1.00  0.00     0.210 HD
HETATM    9  N5  UNL     1      28.388  27.497   1.486  1.00  0.00    -0.114 N 
ATOM     10  H5  UNL     1      27.610  27.069   0.984  1.00  0.00     0.207 HD
HETATM   11  C3  UNL     1      29.719  27.512   1.298  1.00  0.00     0.739 A 
HETATM   12  N6  UNL     1      30.867  27.200   0.664  1.00  0.00    -0.019 N 
ATOM     13  H6  UNL     1      30.812  26.620  -0.173  1.00  0.00     0.203 HD
ENDROOT
BRANCH   1  14
HETATM   14  N1  UNL     1      33.170  27.283   0.422  1.00  0.00    -0.234 N 
ATOM     15  H12 UNL     1      33.398  27.696  -0.482  1.00  0.00     0.174 HD
ATOM     16  H11 UNL     1      33.832  26.603   0.795  1.00  0.00     0.174 HD
ENDBRANCH   1  14
TORSDOF 1
ENDMDL
MODEL 4
REMARK VINA RESULT: -4.673446876      1.468      3.240
REMARK  1 active torsions:
REMARK  status: ('A' for Active; 'I' for Inactive)
REMARK    1  A    between atoms: N1_1  and  C1_4 
ROOT
HETATM    1  C1  UNL     1      31.827  28.880   0.332  1.00  0.00     0.694 A 
HETATM    2  N2  UNL     1      32.020  29.323   1.588  1.00  0.00    -0.139 N 
ATOM      3  H2  UNL     1      32.899  29.778   1.834  1.00  0.00     0.189 HD
HETATM    4  C2  UNL     1      31.063  29.171   2.521  1.00  0.00     0.376 A 
HETATM    5  O1  UNL     1      31.258  29.594   3.703  1.00  0.00    -0.243 OA
HETATM    6  N3  UNL     1      29.881  28.575   2.244  1.00  0.00    -0.014 N 
HETATM    7  N4  UNL     1      28.696  28.175   2.656  1.00  0.00    -0.203 N 
ATOM      8  H4  UNL     1      28.179  28.200   3.535  1.00  0.00     0.210 HD
HETATM    9  N5  UNL     1      28.468  27.726   1.433  1.00  0.00    -0.114 N 
ATOM     10  H5  UNL     1      27.678  27.256   0.992  1.00  0.00     0.207 HD
HETATM   11  C3  UNL     1      29.673  28.128   0.992  1.00  0.00     0.739 A 
HETATM   12  N6  UNL     1      30.646  28.290   0.073  1.00  0.00    -0.019 N 
ATOM     13  H6  UNL     1      30.477  27.946  -0.872  1.00  0.00     0.203 HD
ENDROOT
BRANCH   1  14
HETATM   14  N1  UNL     1      32.743  29.016  -0.594  1.00  0.00    -0.234 N 
ATOM     15  H12 UNL     1      32.504  29.301  -1.544  1.00  0.00     0.174 HD
ATOM     16  H11 UNL     1      33.729  28.843  -0.402  1.00  0.00     0.174 HD
ENDBRANCH   1  14
TORSDOF 1
ENDMDL
MODEL 5
REMARK VINA RESULT: -4.519609316      1.738      3.545
REMARK  1 active torsions:
REMARK  status: ('A' for Active; 'I' for Inactive)
REMARK    1  A    between atoms: N1_1  and  C1_4 
ROOT
HETATM    1  C1  UNL     1      30.944  28.676   2.924  1.00  0.00     0.694 A 
HETATM    2  N2  UNL     1      31.597  28.120   1.887  1.00  0.00    -0.139 N 
ATOM      3  H2  UNL     1      32.608  28.232   1.808  1.00  0.00     0.189 HD
HETATM    4  C2  UNL     1      30.928  27.417   0.956  1.00  0.00     0.376 A 
HETATM    5  O1  UNL     1      31.558  26.898  -0.018  1.00  0.00    -0.243 OA
HETATM    6  N3  UNL     1      29.590  27.240   1.017  1.00  0.00    -0.014 N 
HETATM    7  N4  UNL     1      28.494  26.729   0.493  1.00  0.00    -0.203 N 
ATOM      8  H4  UNL     1      28.268  26.169  -0.328  1.00  0.00     0.210 HD
HETATM    9  N5  UNL     1      27.816  27.260   1.497  1.00  0.00    -0.114 N 
ATOM     10  H5  UNL     1      26.829  27.264   1.755  1.00  0.00     0.207 HD
HETATM   11  C3  UNL     1      28.922  27.790   2.048  1.00  0.00     0.739 A 
HETATM   12  N6  UNL     1      29.612  28.490   2.970  1.00  0.00    -0.019 N 
ATOM     13  H6  UNL     1      29.096  28.902   3.747  1.00  0.00     0.203 HD
ENDROOT
BRANCH   1  14
HETATM   14  N1  UNL     1      31.572  29.365   3.844  1.00  0.00    -0.234 N 
ATOM     15  H12 UNL     1      31.108  29.655   4.704  1.00  0.00     0.174 HD
ATOM     16  H11 UNL     1      32.549  29.636   3.737  1.00  0.00     0.174 HD
ENDBRANCH   1  14
TORSDOF 1
ENDMDL
