MODEL 1
REMARK VINA RESULT: -7.378795430      0.000      0.000
REMARK  1 active torsions:
REMARK  status: ('A' for Active; 'I' for Inactive)
REMARK    1  A    between atoms: N1_4  and  O1_5 
ROOT
HETATM    1  C1  UNL     1       8.127 -10.279  10.564  1.00  0.00     0.016 C 
HETATM    2  C2  UNL     1       9.074  -9.568  11.502  1.00  0.00     0.027 C 
HETATM    3  C3  UNL     1       8.374  -8.600  12.388  1.00  0.00     0.095 C 
HETATM    4  N1  UNL     1       9.210  -7.784  13.144  1.00  0.00    -0.271 N 
HETATM    5  C4  UNL     1      10.487  -7.433  12.696  1.00  0.00     0.114 C 
HETATM    6  C5  UNL     1      11.362  -7.340  13.959  1.00  0.00     0.035 C 
HETATM    7  C6  UNL     1      11.115  -8.268  11.657  1.00  0.00     0.019 C 
HETATM    8  C7  UNL     1      12.212  -7.654  10.874  1.00  0.00    -0.007 C 
HETATM    9  C8  UNL     1      13.354  -7.118  11.668  1.00  0.00     0.011 C 
HETATM   10  C9  UNL     1      11.767  -6.585   9.908  1.00  0.00     0.056 C 
HETATM   11  C10 UNL     1      10.468  -6.856   9.285  1.00  0.00    -0.020 C 
HETATM   12  N2  UNL     1      10.175  -6.452   8.108  1.00  0.00    -0.406 N 
ATOM     13  H21 UNL     1       9.271  -6.641   7.675  1.00  0.00     0.155 HD
ATOM     14  H22 UNL     1      10.904  -5.926   7.625  1.00  0.00     0.155 HD
HETATM   15  C11 UNL     1       9.394  -7.630   9.996  1.00  0.00     0.057 C 
HETATM   16  C12 UNL     1      10.077  -8.790  10.673  1.00  0.00     0.006 C 
ENDROOT
BRANCH   4  17
HETATM   17  O1  UNL     1       8.616  -6.848  13.854  1.00  0.00    -0.288 OA
ATOM     18  H1  UNL     1       7.675  -6.936  13.958  1.00  0.00     0.244 HD
ENDBRANCH   4  17
TORSDOF 1
ENDMDL
MODEL 2
REMARK VINA RESULT: -7.230915312      1.448      1.857
REMARK  1 active torsions:
REMARK  status: ('A' for Active; 'I' for Inactive)
REMARK    1  A    between atoms: N1_4  and  O1_5 
ROOT
HETATM    1  C1  UNL     1       8.385 -10.421  11.364  1.00  0.00     0.016 C 
HETATM    2  C2  UNL     1       9.671  -9.630  11.399  1.00  0.00     0.027 C 
HETATM    3  C3  UNL     1       9.759  -8.741  12.588  1.00  0.00     0.095 C 
HETATM    4  N1  UNL     1      10.831  -7.855  12.582  1.00  0.00    -0.271 N 
HETATM    5  C4  UNL     1      11.378  -7.379  11.386  1.00  0.00     0.114 C 
HETATM    6  C5  UNL     1      12.885  -7.213  11.652  1.00  0.00     0.035 C 
HETATM    7  C6  UNL     1      11.122  -8.141  10.151  1.00  0.00     0.019 C 
HETATM    8  C7  UNL     1      11.287  -7.417   8.869  1.00  0.00    -0.007 C 
HETATM    9  C8  UNL     1      12.618  -6.780   8.651  1.00  0.00     0.011 C 
HETATM   10  C9  UNL     1      10.221  -6.388   8.591  1.00  0.00     0.056 C 
HETATM   11  C10 UNL     1       8.888  -6.778   9.061  1.00  0.00    -0.020 C 
HETATM   12  N2  UNL     1       7.817  -6.393   8.478  1.00  0.00    -0.406 N 
ATOM     13  H21 UNL     1       6.890  -6.665   8.805  1.00  0.00     0.155 HD
ATOM     14  H22 UNL     1       7.946  -5.796   7.661  1.00  0.00     0.155 HD
HETATM   15  C11 UNL     1       8.697  -7.658  10.264  1.00  0.00     0.057 C 
HETATM   16  C12 UNL     1       9.728  -8.752  10.164  1.00  0.00     0.006 C 
ENDROOT
BRANCH   4  17
HETATM   17  O1  UNL     1      10.869  -6.987  13.571  1.00  0.00    -0.288 OA
ATOM     18  H1  UNL     1      11.518  -7.152  14.246  1.00  0.00     0.244 HD
ENDBRANCH   4  17
TORSDOF 1
ENDMDL
MODEL 3
REMARK VINA RESULT: -7.167202449      2.178      3.822
REMARK  1 active torsions:
REMARK  status: ('A' for Active; 'I' for Inactive)
REMARK    1  A    between atoms: N1_4  and  O1_5 
ROOT
HETATM    1  C1  UNL     1      10.059  -8.293  14.014  1.00  0.00     0.016 C 
HETATM    2  C2  UNL     1       9.034  -8.598  12.948  1.00  0.00     0.027 C 
HETATM    3  C3  UNL     1       9.151  -9.986  12.427  1.00  0.00     0.095 C 
HETATM    4  N1  UNL     1       8.358 -10.267  11.319  1.00  0.00    -0.271 N 
HETATM    5  C4  UNL     1       8.000  -9.271  10.406  1.00  0.00     0.114 C 
HETATM    6  C5  UNL     1       6.585  -9.638   9.921  1.00  0.00     0.035 C 
HETATM    7  C6  UNL     1       8.080  -7.865  10.842  1.00  0.00     0.019 C 
HETATM    8  C7  UNL     1       8.159  -6.836   9.779  1.00  0.00    -0.007 C 
HETATM    9  C8  UNL     1       7.057  -6.857   8.774  1.00  0.00     0.011 C 
HETATM   10  C9  UNL     1       9.472  -6.802   9.039  1.00  0.00     0.056 C 
HETATM   11  C10 UNL     1      10.634  -7.090   9.885  1.00  0.00    -0.020 C 
HETATM   12  N2  UNL     1      11.787  -6.587   9.659  1.00  0.00    -0.406 N 
ATOM     13  H21 UNL     1      12.596  -6.786  10.248  1.00  0.00     0.155 HD
ATOM     14  H22 UNL     1      11.851  -5.969   8.850  1.00  0.00     0.155 HD
HETATM   15  C11 UNL     1      10.541  -7.999  11.078  1.00  0.00     0.057 C 
HETATM   16  C12 UNL     1       9.256  -7.651  11.785  1.00  0.00     0.006 C 
ENDROOT
BRANCH   4  17
HETATM   17  O1  UNL     1       8.524 -11.456  10.777  1.00  0.00    -0.288 OA
ATOM     18  H1  UNL     1       7.866 -11.721  10.145  1.00  0.00     0.244 HD
ENDBRANCH   4  17
TORSDOF 1
ENDMDL
MODEL 4
REMARK VINA RESULT: -7.049304275      2.439      4.217
REMARK  1 active torsions:
REMARK  status: ('A' for Active; 'I' for Inactive)
REMARK    1  A    between atoms: N1_4  and  O1_5 
ROOT
HETATM    1  C1  UNL     1      11.485  -7.631  11.236  1.00  0.00     0.016 C 
HETATM    2  C2  UNL     1      10.178  -8.277  11.628  1.00  0.00     0.027 C 
HETATM    3  C3  UNL     1       9.986  -9.606  10.987  1.00  0.00     0.095 C 
HETATM    4  N1  UNL     1       8.725 -10.167  11.161  1.00  0.00    -0.271 N 
HETATM    5  C4  UNL     1       7.589  -9.370  11.331  1.00  0.00     0.114 C 
HETATM    6  C5  UNL     1       6.671 -10.150  12.291  1.00  0.00     0.035 C 
HETATM    7  C6  UNL     1       7.775  -7.975  11.767  1.00  0.00     0.019 C 
HETATM    8  C7  UNL     1       6.664  -7.033  11.497  1.00  0.00    -0.007 C 
HETATM    9  C8  UNL     1       5.334  -7.425  12.047  1.00  0.00     0.011 C 
HETATM   10  C9  UNL     1       6.487  -6.676  10.043  1.00  0.00     0.056 C 
HETATM   11  C10 UNL     1       7.747  -6.572   9.303  1.00  0.00    -0.020 C 
HETATM   12  N2  UNL     1       7.896  -5.780   8.311  1.00  0.00    -0.406 N 
ATOM     13  H21 UNL     1       8.773  -5.707   7.796  1.00  0.00     0.155 HD
ATOM     14  H22 UNL     1       7.079  -5.220   8.064  1.00  0.00     0.155 HD
HETATM   15  C11 UNL     1       8.950  -7.396   9.667  1.00  0.00     0.057 C 
HETATM   16  C12 UNL     1       9.044  -7.380  11.171  1.00  0.00     0.006 C 
ENDROOT
BRANCH   4  17
HETATM   17  O1  UNL     1       8.498 -11.292  10.515  1.00  0.00    -0.288 OA
ATOM     18  H1  UNL     1       7.693 -11.329  10.013  1.00  0.00     0.244 HD
ENDBRANCH   4  17
TORSDOF 1
ENDMDL
MODEL 5
REMARK VINA RESULT: -7.011996419      2.173      3.845
REMARK  1 active torsions:
REMARK  status: ('A' for Active; 'I' for Inactive)
REMARK    1  A    between atoms: N1_4  and  O1_5 
ROOT
HETATM    1  C1  UNL     1       8.586  -6.634   8.521  1.00  0.00     0.016 C 
HETATM    2  C2  UNL     1       9.822  -6.662   9.388  1.00  0.00     0.027 C 
HETATM    3  C3  UNL     1      10.929  -7.444   8.774  1.00  0.00     0.095 C 
HETATM    4  N1  UNL     1      12.026  -7.660   9.601  1.00  0.00    -0.271 N 
HETATM    5  C4  UNL     1      11.890  -7.730  10.991  1.00  0.00     0.114 C 
HETATM    6  C5  UNL     1      13.180  -7.120  11.569  1.00  0.00     0.035 C 
HETATM    7  C6  UNL     1      10.686  -7.140  11.603  1.00  0.00     0.019 C 
HETATM    8  C7  UNL     1      10.323  -7.612  12.960  1.00  0.00    -0.007 C 
HETATM    9  C8  UNL     1      11.382  -7.472  14.000  1.00  0.00     0.011 C 
HETATM   10  C9  UNL     1       9.796  -9.024  13.009  1.00  0.00     0.056 C 
HETATM   11  C10 UNL     1       8.979  -9.391  11.849  1.00  0.00    -0.020 C 
HETATM   12  N2  UNL     1       8.022 -10.235  11.925  1.00  0.00    -0.406 N 
ATOM     13  H21 UNL     1       7.453 -10.490  11.118  1.00  0.00     0.155 HD
ATOM     14  H22 UNL     1       7.860 -10.640  12.847  1.00  0.00     0.155 HD
HETATM   15  C11 UNL     1       9.218  -8.794  10.491  1.00  0.00     0.057 C 
HETATM   16  C12 UNL     1       9.470  -7.324  10.706  1.00  0.00     0.006 C 
ENDROOT
BRANCH   4  17
HETATM   17  O1  UNL     1      12.971  -8.439   9.116  1.00  0.00    -0.288 OA
ATOM     18  H1  UNL     1      13.151  -9.232   9.609  1.00  0.00     0.244 HD
ENDBRANCH   4  17
TORSDOF 1
ENDMDL
