MODEL 1
REMARK VINA RESULT: -6.819814953      0.000      0.000
REMARK  2 active torsions:
REMARK  status: ('A' for Active; 'I' for Inactive)
REMARK    1  A    between atoms: O1_1  and  C1_3 
REMARK    2  A    between atoms: C10_13  and  O3_14 
ROOT
HETATM    1  C1  UNL     1       8.745 -10.510  11.394  1.00  0.00     0.122 C 
HETATM    2  C2  UNL     1       8.252  -9.230  10.861  1.00  0.00     0.032 C 
HETATM    3  C3  UNL     1       9.174  -8.304  10.211  1.00  0.00     0.002 C 
HETATM    4  C4  UNL     1      10.554  -8.174  10.683  1.00  0.00     0.000 C 
HETATM    5  C5  UNL     1      10.748  -7.157  11.825  1.00  0.00     0.000 C 
HETATM    6  C6  UNL     1      10.495  -7.919  13.084  1.00  0.00     0.000 C 
HETATM    7  C7  UNL     1      11.027  -7.385  14.348  1.00  0.00     0.002 C 
HETATM    8  C8  UNL     1      10.438  -8.199  15.483  1.00  0.00     0.026 C 
HETATM    9  C9  UNL     1      10.211  -9.643  15.162  1.00  0.00     0.171 C 
HETATM   10  O2  UNL     1       8.973  -9.932  14.649  1.00  0.00    -0.361 OA
HETATM   11  C10 UNL     1       8.869 -11.045  13.866  1.00  0.00     0.259 C 
HETATM   12  C11 UNL     1       7.956 -10.849  12.667  1.00  0.00     0.092 C 
ENDROOT
BRANCH   1  13
HETATM   13  O1  UNL     1       8.464 -11.565  10.487  1.00  0.00    -0.395 OA
ATOM     14  H1  UNL     1       7.923 -12.225  10.904  1.00  0.00     0.210 HD
ENDBRANCH   1  13
BRANCH  11  15
HETATM   15  O3  UNL     1      10.088 -11.614  13.499  1.00  0.00    -0.371 OA
ATOM     16  H3  UNL     1      10.778 -11.520  14.145  1.00  0.00     0.212 HD
ENDBRANCH  11  15
TORSDOF 2
ENDMDL
MODEL 2
REMARK VINA RESULT: -6.741023075      2.582      4.354
REMARK  2 active torsions:
REMARK  status: ('A' for Active; 'I' for Inactive)
REMARK    1  A    between atoms: O1_1  and  C1_3 
REMARK    2  A    between atoms: C10_13  and  O3_14 
ROOT
HETATM    1  C1  UNL     1       8.294  -8.415  11.908  1.00  0.00     0.122 C 
HETATM    2  C2  UNL     1       7.574  -7.134  11.842  1.00  0.00     0.032 C 
HETATM    3  C3  UNL     1       6.721  -6.831  10.697  1.00  0.00     0.002 C 
HETATM    4  C4  UNL     1       7.084  -7.293   9.356  1.00  0.00     0.000 C 
HETATM    5  C5  UNL     1       8.018  -6.341   8.582  1.00  0.00     0.000 C 
HETATM    6  C6  UNL     1       9.403  -6.730   8.981  1.00  0.00     0.000 C 
HETATM    7  C7  UNL     1      10.522  -6.343   8.107  1.00  0.00     0.002 C 
HETATM    8  C8  UNL     1      11.813  -6.639   8.844  1.00  0.00     0.026 C 
HETATM    9  C9  UNL     1      11.764  -7.843   9.731  1.00  0.00     0.171 C 
HETATM   10  O2  UNL     1      11.380  -7.591  11.023  1.00  0.00    -0.361 OA
HETATM   11  C10 UNL     1      10.810  -8.621  11.715  1.00  0.00     0.259 C 
HETATM   12  C11 UNL     1       9.649  -8.184  12.592  1.00  0.00     0.092 C 
ENDROOT
BRANCH   1  13
HETATM   13  O1  UNL     1       7.604  -9.329  12.746  1.00  0.00    -0.395 OA
ATOM     14  H1  UNL     1       8.219  -9.835  13.263  1.00  0.00     0.210 HD
ENDBRANCH   1  13
BRANCH  11  15
HETATM   15  O3  UNL     1      10.481  -9.731  10.937  1.00  0.00    -0.371 OA
ATOM     16  H3  UNL     1       9.828 -10.304  11.322  1.00  0.00     0.212 HD
ENDBRANCH  11  15
TORSDOF 2
ENDMDL
MODEL 3
REMARK VINA RESULT: -6.727127335      2.209      4.317
REMARK  2 active torsions:
REMARK  status: ('A' for Active; 'I' for Inactive)
REMARK    1  A    between atoms: O1_1  and  C1_3 
REMARK    2  A    between atoms: C10_13  and  O3_14 
ROOT
HETATM    1  C1  UNL     1       9.685  -9.062  12.249  1.00  0.00     0.122 C 
HETATM    2  C2  UNL     1      10.602  -9.467  11.174  1.00  0.00     0.032 C 
HETATM    3  C3  UNL     1      11.546  -8.504  10.615  1.00  0.00     0.002 C 
HETATM    4  C4  UNL     1      11.177  -7.093  10.481  1.00  0.00     0.000 C 
HETATM    5  C5  UNL     1      10.446  -6.744   9.170  1.00  0.00     0.000 C 
HETATM    6  C6  UNL     1       8.998  -6.992   9.443  1.00  0.00     0.000 C 
HETATM    7  C7  UNL     1       7.998  -6.343   8.580  1.00  0.00     0.002 C 
HETATM    8  C8  UNL     1       6.644  -6.938   8.909  1.00  0.00     0.026 C 
HETATM    9  C9  UNL     1       6.458  -7.311  10.346  1.00  0.00     0.171 C 
HETATM   10  O2  UNL     1       6.816  -8.597  10.658  1.00  0.00    -0.361 OA
HETATM   11  C10 UNL     1       7.180  -8.847  11.949  1.00  0.00     0.259 C 
HETATM   12  C11 UNL     1       8.353  -9.805  12.066  1.00  0.00     0.092 C 
ENDROOT
BRANCH   1  13
HETATM   13  O1  UNL     1      10.180  -9.488  13.510  1.00  0.00    -0.395 OA
ATOM     14  H1  UNL     1      10.105  -8.790  14.149  1.00  0.00     0.210 HD
ENDBRANCH   1  13
BRANCH  11  15
HETATM   15  O3  UNL     1       7.364  -7.707  12.731  1.00  0.00    -0.371 OA
ATOM     16  H3  UNL     1       8.271  -7.502  12.925  1.00  0.00     0.212 HD
ENDBRANCH  11  15
TORSDOF 2
ENDMDL
MODEL 4
REMARK VINA RESULT: -6.639873354      1.445      3.730
REMARK  2 active torsions:
REMARK  status: ('A' for Active; 'I' for Inactive)
REMARK    1  A    between atoms: O1_1  and  C1_3 
REMARK    2  A    between atoms: C10_13  and  O3_14 
ROOT
HETATM    1  C1  UNL     1       9.144 -10.211  13.784  1.00  0.00     0.122 C 
HETATM    2  C2  UNL     1      10.115 -10.070  14.879  1.00  0.00     0.032 C 
HETATM    3  C3  UNL     1      10.239  -8.800  15.589  1.00  0.00     0.002 C 
HETATM    4  C4  UNL     1      10.068  -7.531  14.878  1.00  0.00     0.000 C 
HETATM    5  C5  UNL     1      11.351  -6.989  14.218  1.00  0.00     0.000 C 
HETATM    6  C6  UNL     1      11.401  -7.622  12.866  1.00  0.00     0.000 C 
HETATM    7  C7  UNL     1      12.226  -6.991  11.824  1.00  0.00     0.002 C 
HETATM    8  C8  UNL     1      12.296  -7.943  10.646  1.00  0.00     0.026 C 
HETATM    9  C9  UNL     1      11.057  -8.750  10.420  1.00  0.00     0.171 C 
HETATM   10  O2  UNL     1      11.029  -9.957  11.070  1.00  0.00    -0.361 OA
HETATM   11  C10 UNL     1       9.802 -10.483  11.354  1.00  0.00     0.259 C 
HETATM   12  C11 UNL     1       9.736 -11.146  12.719  1.00  0.00     0.092 C 
ENDROOT
BRANCH   1  13
HETATM   13  O1  UNL     1       7.970 -10.863  14.243  1.00  0.00    -0.395 OA
ATOM     14  H1  UNL     1       7.602 -11.406  13.556  1.00  0.00     0.210 HD
ENDBRANCH   1  13
BRANCH  11  15
HETATM   15  O3  UNL     1       8.734  -9.608  11.152  1.00  0.00    -0.371 OA
ATOM     16  H3  UNL     1       8.986  -8.732  10.886  1.00  0.00     0.212 HD
ENDBRANCH  11  15
TORSDOF 2
ENDMDL
MODEL 5
REMARK VINA RESULT: -6.605936750      2.093      4.126
REMARK  2 active torsions:
REMARK  status: ('A' for Active; 'I' for Inactive)
REMARK    1  A    between atoms: O1_1  and  C1_3 
REMARK    2  A    between atoms: C10_13  and  O3_14 
ROOT
HETATM    1  C1  UNL     1       9.507 -10.383  12.197  1.00  0.00     0.122 C 
HETATM    2  C2  UNL     1      10.473  -9.996  11.158  1.00  0.00     0.032 C 
HETATM    3  C3  UNL     1      10.856  -8.596  11.000  1.00  0.00     0.002 C 
HETATM    4  C4  UNL     1       9.882  -7.527  11.228  1.00  0.00     0.000 C 
HETATM    5  C5  UNL     1       9.030  -7.163   9.996  1.00  0.00     0.000 C 
HETATM    6  C6  UNL     1       7.864  -8.095  10.029  1.00  0.00     0.000 C 
HETATM    7  C7  UNL     1       6.651  -7.731   9.279  1.00  0.00     0.002 C 
HETATM    8  C8  UNL     1       5.726  -8.932   9.277  1.00  0.00     0.026 C 
HETATM    9  C9  UNL     1       5.777  -9.761  10.522  1.00  0.00     0.171 C 
HETATM   10  O2  UNL     1       6.691 -10.783  10.496  1.00  0.00    -0.361 OA
HETATM   11  C10 UNL     1       7.170 -11.219  11.697  1.00  0.00     0.259 C 
HETATM   12  C11 UNL     1       8.654 -11.545  11.668  1.00  0.00     0.092 C 
ENDROOT
BRANCH   1  13
HETATM   13  O1  UNL     1      10.181 -10.902  13.334  1.00  0.00    -0.395 OA
ATOM     14  H1  UNL     1      10.345 -10.212  13.966  1.00  0.00     0.210 HD
ENDBRANCH   1  13
BRANCH  11  15
HETATM   15  O3  UNL     1       6.840 -10.409  12.783  1.00  0.00    -0.371 OA
ATOM     16  H3  UNL     1       7.195 -10.699  13.615  1.00  0.00     0.212 HD
ENDBRANCH  11  15
TORSDOF 2
ENDMDL
