MODEL 1
REMARK VINA RESULT: -7.224534582      0.000      0.000
REMARK  5 active torsions:
REMARK  status: ('A' for Active; 'I' for Inactive)
REMARK    1  A    between atoms: O1_1  and  C1_3 
REMARK    2  A    between atoms: C3_5  and  C4_6 
REMARK    3  A    between atoms: C4_6  and  O2_7 
REMARK    4  A    between atoms: C4_6  and  N1_9 
REMARK    5  A    between atoms: N2_18  and  C11_19 
ROOT
HETATM    1  C1  UNL     1       9.238 -21.307  23.696  1.00  0.00     0.142 A 
HETATM    2  C2  UNL     1       8.403 -22.390  23.416  1.00  0.00     0.069 A 
HETATM    3  C3  UNL     1       7.102 -21.937  23.327  1.00  0.00     0.020 A 
HETATM    4  C10 UNL     1       7.186 -20.573  23.557  1.00  0.00     0.105 A 
HETATM    5  N2  UNL     1       8.484 -20.226  23.775  1.00  0.00    -0.333 N 
ENDROOT
BRANCH   3   6
HETATM    6  C4  UNL     1       5.853 -22.685  23.050  1.00  0.00     0.396 C 
BRANCH   6   7
HETATM    7  O2  UNL     1       6.124 -23.973  22.548  1.00  0.00    -0.364 OA
ATOM      8  H2  UNL     1       5.613 -24.158  21.769  1.00  0.00     0.212 HD
ENDBRANCH   6   7
BRANCH   6   9
HETATM    9  N1  UNL     1       5.039 -22.858  24.219  1.00  0.00     0.152 N 
HETATM   10  C5  UNL     1       4.584 -21.637  24.809  1.00  0.00     0.297 C 
HETATM   11  C6  UNL     1       3.062 -21.493  24.682  1.00  0.00     0.104 C 
HETATM   12  C7  UNL     1       2.454 -22.586  25.513  1.00  0.00     0.023 C 
HETATM   13  S1  UNL     1       2.685 -21.892  22.932  1.00  0.00    -0.003 SA
HETATM   14  C8  UNL     1       2.992 -23.910  25.061  1.00  0.00     0.067 C 
HETATM   15  C9  UNL     1       3.978 -23.793  23.921  1.00  0.00     0.376 C 
HETATM   16  O3  UNL     1       3.335 -23.488  22.708  1.00  0.00    -0.283 OA
ENDBRANCH   6   9
ENDBRANCH   3   6
BRANCH   1  17
HETATM   17  O1  UNL     1      10.609 -21.447  23.844  1.00  0.00    -0.346 OA
ATOM     18  H1  UNL     1      11.055 -21.240  24.656  1.00  0.00     0.219 HD
ENDBRANCH   1  17
BRANCH   5  19
HETATM   19  C11 UNL     1       8.919 -18.893  24.044  1.00  0.00     0.091 C 
HETATM   20  C12 UNL     1      10.353 -18.635  23.683  1.00  0.00     0.026 C 
HETATM   21  C13 UNL     1      10.589 -17.278  24.358  1.00  0.00     0.002 C 
HETATM   22  C14 UNL     1       9.899 -17.443  25.700  1.00  0.00     0.002 C 
HETATM   23  C15 UNL     1       8.851 -18.516  25.501  1.00  0.00     0.026 C 
ENDBRANCH   5  19
TORSDOF 5
ENDMDL
MODEL 2
REMARK VINA RESULT: -7.115396254      2.244      2.997
REMARK  5 active torsions:
REMARK  status: ('A' for Active; 'I' for Inactive)
REMARK    1  A    between atoms: O1_1  and  C1_3 
REMARK    2  A    between atoms: C3_5  and  C4_6 
REMARK    3  A    between atoms: C4_6  and  O2_7 
REMARK    4  A    between atoms: C4_6  and  N1_9 
REMARK    5  A    between atoms: N2_18  and  C11_19 
ROOT
HETATM    1  C1  UNL     1       8.029 -18.650  25.992  1.00  0.00     0.142 A 
HETATM    2  C2  UNL     1       6.656 -18.876  26.104  1.00  0.00     0.069 A 
HETATM    3  C3  UNL     1       6.216 -19.513  24.961  1.00  0.00     0.020 A 
HETATM    4  C10 UNL     1       7.350 -19.657  24.177  1.00  0.00     0.105 A 
HETATM    5  N2  UNL     1       8.423 -19.128  24.826  1.00  0.00    -0.333 N 
ENDROOT
BRANCH   3   6
HETATM    6  C4  UNL     1       4.854 -19.968  24.591  1.00  0.00     0.396 C 
BRANCH   6   7
HETATM    7  O2  UNL     1       4.196 -19.019  23.785  1.00  0.00    -0.364 OA
ATOM      8  H2  UNL     1       3.589 -18.493  24.293  1.00  0.00     0.212 HD
ENDBRANCH   6   7
BRANCH   6   9
HETATM    9  N1  UNL     1       4.861 -21.201  23.858  1.00  0.00     0.152 N 
HETATM   10  C5  UNL     1       5.379 -22.319  24.586  1.00  0.00     0.297 C 
HETATM   11  C6  UNL     1       4.282 -23.354  24.866  1.00  0.00     0.104 C 
HETATM   12  C7  UNL     1       3.861 -23.908  23.535  1.00  0.00     0.023 C 
HETATM   13  S1  UNL     1       2.860 -22.389  25.507  1.00  0.00    -0.003 SA
HETATM   14  C8  UNL     1       3.437 -22.782  22.641  1.00  0.00     0.067 C 
HETATM   15  C9  UNL     1       3.546 -21.426  23.301  1.00  0.00     0.376 C 
HETATM   16  O3  UNL     1       2.531 -21.230  24.255  1.00  0.00    -0.283 OA
ENDBRANCH   6   9
ENDBRANCH   3   6
BRANCH   1  17
HETATM   17  O1  UNL     1       8.761 -18.024  26.989  1.00  0.00    -0.346 OA
ATOM     18  H1  UNL     1       9.704 -17.927  26.941  1.00  0.00     0.219 HD
ENDBRANCH   1  17
BRANCH   5  19
HETATM   19  C11 UNL     1       9.748 -19.112  24.295  1.00  0.00     0.091 C 
HETATM   20  C12 UNL     1      10.388 -17.754  24.293  1.00  0.00     0.026 C 
HETATM   21  C13 UNL     1      11.617 -18.006  23.411  1.00  0.00     0.002 C 
HETATM   22  C14 UNL     1      11.058 -18.861  22.287  1.00  0.00     0.002 C 
HETATM   23  C15 UNL     1       9.828 -19.539  22.852  1.00  0.00     0.026 C 
ENDBRANCH   5  19
TORSDOF 5
ENDMDL
MODEL 3
REMARK VINA RESULT: -7.086660536      1.393      1.645
REMARK  5 active torsions:
REMARK  status: ('A' for Active; 'I' for Inactive)
REMARK    1  A    between atoms: O1_1  and  C1_3 
REMARK    2  A    between atoms: C3_5  and  C4_6 
REMARK    3  A    between atoms: C4_6  and  O2_7 
REMARK    4  A    between atoms: C4_6  and  N1_9 
REMARK    5  A    between atoms: N2_18  and  C11_19 
ROOT
HETATM    1  C1  UNL     1       8.482 -21.545  24.402  1.00  0.00     0.142 A 
HETATM    2  C2  UNL     1       7.272 -22.149  24.057  1.00  0.00     0.069 A 
HETATM    3  C3  UNL     1       6.303 -21.172  23.951  1.00  0.00     0.020 A 
HETATM    4  C10 UNL     1       6.961 -19.987  24.239  1.00  0.00     0.105 A 
HETATM    5  N2  UNL     1       8.270 -20.246  24.506  1.00  0.00    -0.333 N 
ENDROOT
BRANCH   3   6
HETATM    6  C4  UNL     1       4.865 -21.294  23.609  1.00  0.00     0.396 C 
BRANCH   6   7
HETATM    7  O2  UNL     1       4.666 -21.305  22.216  1.00  0.00    -0.364 OA
ATOM      8  H2  UNL     1       3.772 -21.072  21.990  1.00  0.00     0.212 HD
ENDBRANCH   6   7
BRANCH   6   9
HETATM    9  N1  UNL     1       4.273 -22.496  24.123  1.00  0.00     0.152 N 
HETATM   10  C5  UNL     1       4.081 -22.502  25.541  1.00  0.00     0.297 C 
HETATM   11  C6  UNL     1       2.589 -22.500  25.898  1.00  0.00     0.104 C 
HETATM   12  C7  UNL     1       2.029 -23.808  25.416  1.00  0.00     0.023 C 
HETATM   13  S1  UNL     1       1.844 -21.192  24.851  1.00  0.00    -0.003 SA
HETATM   14  C8  UNL     1       2.316 -23.961  23.953  1.00  0.00     0.067 C 
HETATM   15  C9  UNL     1       3.075 -22.791  23.371  1.00  0.00     0.376 C 
HETATM   16  O3  UNL     1       2.253 -21.659  23.228  1.00  0.00    -0.283 OA
ENDBRANCH   6   9
ENDBRANCH   3   6
BRANCH   1  17
HETATM   17  O1  UNL     1       9.649 -22.272  24.582  1.00  0.00    -0.346 OA
ATOM     18  H1  UNL     1      10.228 -22.128  25.320  1.00  0.00     0.219 HD
ENDBRANCH   1  17
BRANCH   5  19
HETATM   19  C11 UNL     1       9.229 -19.243  24.842  1.00  0.00     0.091 C 
HETATM   20  C12 UNL     1       8.667 -17.852  24.883  1.00  0.00     0.026 C 
HETATM   21  C13 UNL     1       9.951 -17.015  24.952  1.00  0.00     0.002 C 
HETATM   22  C14 UNL     1      10.860 -17.708  23.952  1.00  0.00     0.002 C 
HETATM   23  C15 UNL     1      10.362 -19.134  23.855  1.00  0.00     0.026 C 
ENDBRANCH   5  19
TORSDOF 5
ENDMDL
MODEL 4
REMARK VINA RESULT: -7.073741843      2.828      7.148
REMARK  5 active torsions:
REMARK  status: ('A' for Active; 'I' for Inactive)
REMARK    1  A    between atoms: O1_1  and  C1_3 
REMARK    2  A    between atoms: C3_5  and  C4_6 
REMARK    3  A    between atoms: C4_6  and  O2_7 
REMARK    4  A    between atoms: C4_6  and  N1_9 
REMARK    5  A    between atoms: N2_18  and  C11_19 
ROOT
HETATM    1  C1  UNL     1       2.623 -21.164  23.808  1.00  0.00     0.142 A 
HETATM    2  C2  UNL     1       3.694 -20.302  24.048  1.00  0.00     0.069 A 
HETATM    3  C3  UNL     1       4.707 -21.012  24.660  1.00  0.00     0.020 A 
HETATM    4  C10 UNL     1       4.215 -22.303  24.776  1.00  0.00     0.105 A 
HETATM    5  N2  UNL     1       2.959 -22.360  24.254  1.00  0.00    -0.333 N 
ENDROOT
BRANCH   3   6
HETATM    6  C4  UNL     1       6.043 -20.559  25.117  1.00  0.00     0.396 C 
BRANCH   6   7
HETATM    7  O2  UNL     1       6.201 -20.738  26.504  1.00  0.00    -0.364 OA
ATOM      8  H2  UNL     1       7.023 -21.169  26.708  1.00  0.00     0.212 HD
ENDBRANCH   6   7
BRANCH   6   9
HETATM    9  N1  UNL     1       7.116 -21.270  24.482  1.00  0.00     0.152 N 
HETATM   10  C5  UNL     1       7.300 -20.952  23.099  1.00  0.00     0.297 C 
HETATM   11  C6  UNL     1       8.634 -20.230  22.869  1.00  0.00     0.104 C 
HETATM   12  C7  UNL     1       9.720 -21.214  23.198  1.00  0.00     0.023 C 
HETATM   13  S1  UNL     1       8.703 -18.923  24.154  1.00  0.00    -0.003 SA
HETATM   14  C8  UNL     1       9.522 -21.722  24.594  1.00  0.00     0.067 C 
HETATM   15  C9  UNL     1       8.313 -21.125  25.279  1.00  0.00     0.376 C 
HETATM   16  O3  UNL     1       8.537 -19.788  25.652  1.00  0.00    -0.283 OA
ENDBRANCH   6   9
ENDBRANCH   3   6
BRANCH   1  17
HETATM   17  O1  UNL     1       1.451 -20.739  23.200  1.00  0.00    -0.346 OA
ATOM     18  H1  UNL     1       0.810 -20.204  23.652  1.00  0.00     0.219 HD
ENDBRANCH   1  17
BRANCH   5  19
HETATM   19  C11 UNL     1       2.165 -23.546  24.215  1.00  0.00     0.091 C 
HETATM   20  C12 UNL     1       1.801 -24.081  25.570  1.00  0.00     0.026 C 
HETATM   21  C13 UNL     1       1.249 -25.465  25.204  1.00  0.00     0.002 C 
HETATM   22  C14 UNL     1       2.232 -25.954  24.155  1.00  0.00     0.002 C 
HETATM   23  C15 UNL     1       2.850 -24.712  23.550  1.00  0.00     0.026 C 
ENDBRANCH   5  19
TORSDOF 5
ENDMDL
MODEL 5
REMARK VINA RESULT: -7.017020569      1.314      1.488
REMARK  5 active torsions:
REMARK  status: ('A' for Active; 'I' for Inactive)
REMARK    1  A    between atoms: O1_1  and  C1_3 
REMARK    2  A    between atoms: C3_5  and  C4_6 
REMARK    3  A    between atoms: C4_6  and  O2_7 
REMARK    4  A    between atoms: C4_6  and  N1_9 
REMARK    5  A    between atoms: N2_18  and  C11_19 
ROOT
HETATM    1  C1  UNL     1       7.628 -20.030  25.524  1.00  0.00     0.142 A 
HETATM    2  C2  UNL     1       6.699 -21.070  25.473  1.00  0.00     0.069 A 
HETATM    3  C3  UNL     1       6.571 -21.487  24.164  1.00  0.00     0.020 A 
HETATM    4  C10 UNL     1       7.439 -20.678  23.448  1.00  0.00     0.105 A 
HETATM    5  N2  UNL     1       8.059 -19.813  24.296  1.00  0.00    -0.333 N 
ENDROOT
BRANCH   3   6
HETATM    6  C4  UNL     1       5.718 -22.554  23.586  1.00  0.00     0.396 C 
BRANCH   6   7
HETATM    7  O2  UNL     1       6.488 -23.651  23.153  1.00  0.00    -0.364 OA
ATOM      8  H2  UNL     1       6.151 -24.012  22.341  1.00  0.00     0.212 HD
ENDBRANCH   6   7
BRANCH   6   9
HETATM    9  N1  UNL     1       4.758 -23.064  24.522  1.00  0.00     0.152 N 
HETATM   10  C5  UNL     1       4.045 -22.057  25.247  1.00  0.00     0.297 C 
HETATM   11  C6  UNL     1       2.559 -22.046  24.865  1.00  0.00     0.104 C 
HETATM   12  C7  UNL     1       1.985 -23.353  25.331  1.00  0.00     0.023 C 
HETATM   13  S1  UNL     1       2.532 -22.086  23.031  1.00  0.00    -0.003 SA
HETATM   14  C8  UNL     1       2.770 -24.482  24.735  1.00  0.00     0.067 C 
HETATM   15  C9  UNL     1       3.902 -24.014  23.848  1.00  0.00     0.376 C 
HETATM   16  O3  UNL     1       3.429 -23.517  22.621  1.00  0.00    -0.283 OA
ENDBRANCH   6   9
ENDBRANCH   3   6
BRANCH   1  17
HETATM   17  O1  UNL     1       7.971 -19.400  26.711  1.00  0.00    -0.346 OA
ATOM     18  H1  UNL     1       8.714 -18.813  26.777  1.00  0.00     0.219 HD
ENDBRANCH   1  17
BRANCH   5  19
HETATM   19  C11 UNL     1       9.018 -18.839  23.881  1.00  0.00     0.091 C 
HETATM   20  C12 UNL     1      10.434 -19.337  23.890  1.00  0.00     0.026 C 
HETATM   21  C13 UNL     1      11.211 -18.025  23.713  1.00  0.00     0.002 C 
HETATM   22  C14 UNL     1      10.470 -17.068  24.631  1.00  0.00     0.002 C 
HETATM   23  C15 UNL     1       9.068 -17.623  24.768  1.00  0.00     0.026 C 
ENDBRANCH   5  19
TORSDOF 5
ENDMDL
