MODEL 1
REMARK VINA RESULT: -6.393348851      0.000      0.000
REMARK  10 active torsions:
REMARK  status: ('A' for Active; 'I' for Inactive)
REMARK    1  A    between atoms: C5_7  and  C6_8 
REMARK    2  A    between atoms: C6_8  and  C7_9 
REMARK    3  A    between atoms: C7_9  and  C8_10 
REMARK    4  A    between atoms: C8_10  and  N2_11 
REMARK    5  A    between atoms: N2_11  and  C9_13 
REMARK    6  A    between atoms: C9_13  and  C10_14 
REMARK    7  A    between atoms: C10_14  and  C11_15 
REMARK    8  A    between atoms: C11_15  and  N3_16 
REMARK    9  A    between atoms: N3_16  and  C12_18 
REMARK   10  A    between atoms: C12_18  and  C13_19 
ROOT
HETATM    1  C9  UNL     1     113.424  42.394  49.956  1.00  0.00     0.061 C 
ENDROOT
BRANCH   1   2
HETATM    2  N2  UNL     1     113.358  43.797  49.959  1.00  0.00    -0.382 N 
ATOM      3  H2  UNL     1     112.818  44.273  49.237  1.00  0.00     0.163 HD
BRANCH   2   4
HETATM    4  C8  UNL     1     114.017  44.551  50.927  1.00  0.00     0.060 C 
BRANCH   4   5
HETATM    5  C7  UNL     1     113.408  44.687  52.278  1.00  0.00     0.049 C 
BRANCH   5   6
HETATM    6  C6  UNL     1     114.588  44.822  53.252  1.00  0.00     0.045 C 
BRANCH   6   7
HETATM    7  C5  UNL     1     115.344  43.577  53.406  1.00  0.00    -0.034 A 
HETATM    8  C2  UNL     1     116.708  43.506  53.259  1.00  0.00     0.011 A 
HETATM    9  C1  UNL     1     117.631  44.634  52.942  1.00  0.00     0.068 C 
HETATM   10  N1  UNL     1     117.086  42.211  53.459  1.00  0.00    -0.369 N 
HETATM   11  C3  UNL     1     115.974  41.491  53.725  1.00  0.00     0.088 A 
ATOM     12  H1  UNL     1     118.039  41.850  53.416  1.00  0.00     0.165 HD
HETATM   13  C4  UNL     1     114.887  42.315  53.698  1.00  0.00     0.026 A 
ENDBRANCH   6   7
ENDBRANCH   5   6
ENDBRANCH   4   5
ENDBRANCH   2   4
ENDBRANCH   1   2
BRANCH   1  14
HETATM   14  C10 UNL     1     114.857  41.922  50.011  1.00  0.00     0.063 C 
BRANCH  14  15
HETATM   15  C11 UNL     1     115.050  40.916  48.904  1.00  0.00     0.119 C 
BRANCH  15  16
HETATM   16  N3  UNL     1     116.398  40.826  48.476  1.00  0.00    -0.418 N 
ATOM     17  H3  UNL     1     117.182  40.988  49.108  1.00  0.00     0.153 HD
BRANCH  16  18
HETATM   18  C12 UNL     1     116.587  40.488  47.083  1.00  0.00     0.147 C 
BRANCH  18  19
HETATM   19  C13 UNL     1     117.518  41.496  46.433  1.00  0.00     0.164 C 
HETATM   20  C14 UNL     1     116.864  42.853  46.457  1.00  0.00     0.265 C 
HETATM   21  N4  UNL     1     115.826  42.990  45.465  1.00  0.00    -0.071 N 
HETATM   22  C15 UNL     1     116.401  42.685  44.172  1.00  0.00     0.258 C 
ATOM     23  H42 UNL     1     115.003  42.425  45.674  1.00  0.00     0.277 HD
ATOM     24  H41 UNL     1     115.374  43.904  45.490  1.00  0.00     0.277 HD
HETATM   25  C16 UNL     1     116.868  41.242  44.228  1.00  0.00     0.196 C 
HETATM   26  O1  UNL     1     117.895  41.081  45.158  1.00  0.00    -0.381 OA
ENDBRANCH  18  19
ENDBRANCH  16  18
ENDBRANCH  15  16
ENDBRANCH  14  15
ENDBRANCH   1  14
TORSDOF 10
ENDMDL
MODEL 2
REMARK VINA RESULT: -6.273105132      1.158      1.294
REMARK  10 active torsions:
REMARK  status: ('A' for Active; 'I' for Inactive)
REMARK    1  A    between atoms: C5_7  and  C6_8 
REMARK    2  A    between atoms: C6_8  and  C7_9 
REMARK    3  A    between atoms: C7_9  and  C8_10 
REMARK    4  A    between atoms: C8_10  and  N2_11 
REMARK    5  A    between atoms: N2_11  and  C9_13 
REMARK    6  A    between atoms: C9_13  and  C10_14 
REMARK    7  A    between atoms: C10_14  and  C11_15 
REMARK    8  A    between atoms: C11_15  and  N3_16 
REMARK    9  A    between atoms: N3_16  and  C12_18 
REMARK   10  A    between atoms: C12_18  and  C13_19 
ROOT
HETATM    1  C9  UNL     1     113.350  43.038  50.144  1.00  0.00     0.061 C 
ENDROOT
BRANCH   1   2
HETATM    2  N2  UNL     1     113.442  44.363  50.601  1.00  0.00    -0.382 N 
ATOM      3  H2  UNL     1     113.543  45.119  49.923  1.00  0.00     0.163 HD
BRANCH   2   4
HETATM    4  C8  UNL     1     113.400  44.666  51.960  1.00  0.00     0.060 C 
BRANCH   4   5
HETATM    5  C7  UNL     1     114.618  45.210  52.619  1.00  0.00     0.049 C 
BRANCH   5   6
HETATM    6  C6  UNL     1     114.789  44.395  53.910  1.00  0.00     0.045 C 
BRANCH   6   7
HETATM    7  C5  UNL     1     115.430  43.098  53.683  1.00  0.00    -0.034 A 
HETATM    8  C2  UNL     1     116.793  42.928  53.662  1.00  0.00     0.011 A 
HETATM    9  C1  UNL     1     117.826  43.984  53.869  1.00  0.00     0.068 C 
HETATM   10  N1  UNL     1     117.050  41.610  53.422  1.00  0.00    -0.369 N 
HETATM   11  C3  UNL     1     115.865  40.974  53.295  1.00  0.00     0.088 A 
ATOM     12  H1  UNL     1     117.972  41.182  53.351  1.00  0.00     0.165 HD
HETATM   13  C4  UNL     1     114.851  41.874  53.453  1.00  0.00     0.026 A 
ENDBRANCH   6   7
ENDBRANCH   5   6
ENDBRANCH   4   5
ENDBRANCH   2   4
ENDBRANCH   1   2
BRANCH   1  14
HETATM   14  C10 UNL     1     114.716  42.483  49.822  1.00  0.00     0.063 C 
BRANCH  14  15
HETATM   15  C11 UNL     1     114.528  41.338  48.858  1.00  0.00     0.119 C 
BRANCH  15  16
HETATM   16  N3  UNL     1     114.572  41.750  47.503  1.00  0.00    -0.418 N 
ATOM     17  H3  UNL     1     113.823  42.295  47.075  1.00  0.00     0.153 HD
BRANCH  16  18
HETATM   18  C12 UNL     1     115.750  41.347  46.768  1.00  0.00     0.147 C 
BRANCH  18  19
HETATM   19  C13 UNL     1     116.115  42.418  45.756  1.00  0.00     0.164 C 
HETATM   20  C14 UNL     1     114.935  42.661  44.853  1.00  0.00     0.265 C 
HETATM   21  N4  UNL     1     114.761  41.621  43.869  1.00  0.00    -0.071 N 
HETATM   22  C15 UNL     1     115.998  41.497  43.128  1.00  0.00     0.258 C 
ATOM     23  H42 UNL     1     114.455  40.739  44.278  1.00  0.00     0.277 HD
ATOM     24  H41 UNL     1     113.954  41.779  43.266  1.00  0.00     0.277 HD
HETATM   25  C16 UNL     1     117.068  41.086  44.123  1.00  0.00     0.196 C 
HETATM   26  O1  UNL     1     117.283  42.085  45.073  1.00  0.00    -0.381 OA
ENDBRANCH  18  19
ENDBRANCH  16  18
ENDBRANCH  15  16
ENDBRANCH  14  15
ENDBRANCH   1  14
TORSDOF 10
ENDMDL
MODEL 3
REMARK VINA RESULT: -6.197864706      0.929      1.249
REMARK  10 active torsions:
REMARK  status: ('A' for Active; 'I' for Inactive)
REMARK    1  A    between atoms: C5_7  and  C6_8 
REMARK    2  A    between atoms: C6_8  and  C7_9 
REMARK    3  A    between atoms: C7_9  and  C8_10 
REMARK    4  A    between atoms: C8_10  and  N2_11 
REMARK    5  A    between atoms: N2_11  and  C9_13 
REMARK    6  A    between atoms: C9_13  and  C10_14 
REMARK    7  A    between atoms: C10_14  and  C11_15 
REMARK    8  A    between atoms: C11_15  and  N3_16 
REMARK    9  A    between atoms: N3_16  and  C12_18 
REMARK   10  A    between atoms: C12_18  and  C13_19 
ROOT
HETATM    1  C9  UNL     1     113.484  42.384  49.875  1.00  0.00     0.061 C 
ENDROOT
BRANCH   1   2
HETATM    2  N2  UNL     1     113.129  43.726  50.087  1.00  0.00    -0.382 N 
ATOM      3  H2  UNL     1     112.303  44.103  49.622  1.00  0.00     0.163 HD
BRANCH   2   4
HETATM    4  C8  UNL     1     113.882  44.553  50.918  1.00  0.00     0.060 C 
BRANCH   4   5
HETATM    5  C7  UNL     1     113.564  44.602  52.371  1.00  0.00     0.049 C 
BRANCH   5   6
HETATM    6  C6  UNL     1     114.918  44.537  53.093  1.00  0.00     0.045 C 
BRANCH   6   7
HETATM    7  C5  UNL     1     115.199  43.214  53.656  1.00  0.00    -0.034 A 
HETATM    8  C2  UNL     1     115.135  42.943  55.001  1.00  0.00     0.011 A 
HETATM    9  C1  UNL     1     114.772  43.899  56.087  1.00  0.00     0.068 C 
HETATM   10  N1  UNL     1     115.459  41.630  55.183  1.00  0.00    -0.369 N 
HETATM   11  C3  UNL     1     115.721  41.097  53.969  1.00  0.00     0.088 A 
ATOM     12  H1  UNL     1     115.497  41.139  56.075  1.00  0.00     0.165 HD
HETATM   13  C4  UNL     1     115.566  42.058  53.012  1.00  0.00     0.026 A 
ENDBRANCH   6   7
ENDBRANCH   5   6
ENDBRANCH   4   5
ENDBRANCH   2   4
ENDBRANCH   1   2
BRANCH   1  14
HETATM   14  C10 UNL     1     114.937  42.267  49.481  1.00  0.00     0.063 C 
BRANCH  14  15
HETATM   15  C11 UNL     1     115.144  40.891  48.899  1.00  0.00     0.119 C 
BRANCH  15  16
HETATM   16  N3  UNL     1     116.459  40.697  48.407  1.00  0.00    -0.418 N 
ATOM     17  H3  UNL     1     117.278  40.730  49.014  1.00  0.00     0.153 HD
BRANCH  16  18
HETATM   18  C12 UNL     1     116.561  40.449  46.986  1.00  0.00     0.147 C 
BRANCH  18  19
HETATM   19  C13 UNL     1     117.513  41.450  46.358  1.00  0.00     0.164 C 
HETATM   20  C14 UNL     1     116.874  42.813  46.378  1.00  0.00     0.265 C 
HETATM   21  N4  UNL     1     115.856  42.968  45.370  1.00  0.00    -0.071 N 
HETATM   22  C15 UNL     1     116.450  42.663  44.085  1.00  0.00     0.258 C 
ATOM     23  H42 UNL     1     115.023  42.411  45.562  1.00  0.00     0.277 HD
ATOM     24  H41 UNL     1     115.413  43.887  45.392  1.00  0.00     0.277 HD
HETATM   25  C16 UNL     1     116.900  41.215  44.141  1.00  0.00     0.196 C 
HETATM   26  O1  UNL     1     117.908  41.037  45.087  1.00  0.00    -0.381 OA
ENDBRANCH  18  19
ENDBRANCH  16  18
ENDBRANCH  15  16
ENDBRANCH  14  15
ENDBRANCH   1  14
TORSDOF 10
ENDMDL
MODEL 4
REMARK VINA RESULT: -6.180217016      1.074      1.518
REMARK  10 active torsions:
REMARK  status: ('A' for Active; 'I' for Inactive)
REMARK    1  A    between atoms: C5_7  and  C6_8 
REMARK    2  A    between atoms: C6_8  and  C7_9 
REMARK    3  A    between atoms: C7_9  and  C8_10 
REMARK    4  A    between atoms: C8_10  and  N2_11 
REMARK    5  A    between atoms: N2_11  and  C9_13 
REMARK    6  A    between atoms: C9_13  and  C10_14 
REMARK    7  A    between atoms: C10_14  and  C11_15 
REMARK    8  A    between atoms: C11_15  and  N3_16 
REMARK    9  A    between atoms: N3_16  and  C12_18 
REMARK   10  A    between atoms: C12_18  and  C13_19 
ROOT
HETATM    1  C9  UNL     1     113.381  42.371  49.761  1.00  0.00     0.061 C 
ENDROOT
BRANCH   1   2
HETATM    2  N2  UNL     1     113.062  43.703  50.074  1.00  0.00    -0.382 N 
ATOM      3  H2  UNL     1     112.189  44.101  49.728  1.00  0.00     0.163 HD
BRANCH   2   4
HETATM    4  C8  UNL     1     113.913  44.490  50.846  1.00  0.00     0.060 C 
BRANCH   4   5
HETATM    5  C7  UNL     1     113.695  44.564  52.317  1.00  0.00     0.049 C 
BRANCH   5   6
HETATM    6  C6  UNL     1     115.080  44.361  52.950  1.00  0.00     0.045 C 
BRANCH   6   7
HETATM    7  C5  UNL     1     115.023  43.638  54.223  1.00  0.00    -0.034 A 
HETATM    8  C2  UNL     1     115.194  42.278  54.321  1.00  0.00     0.011 A 
HETATM    9  C1  UNL     1     115.469  41.331  53.202  1.00  0.00     0.068 C 
HETATM   10  N1  UNL     1     115.073  41.932  55.635  1.00  0.00    -0.369 N 
HETATM   11  C3  UNL     1     114.831  43.059  56.339  1.00  0.00     0.088 A 
ATOM     12  H1  UNL     1     115.153  40.990  56.017  1.00  0.00     0.165 HD
HETATM   13  C4  UNL     1     114.796  44.125  55.487  1.00  0.00     0.026 A 
ENDBRANCH   6   7
ENDBRANCH   5   6
ENDBRANCH   4   5
ENDBRANCH   2   4
ENDBRANCH   1   2
BRANCH   1  14
HETATM   14  C10 UNL     1     114.875  42.188  49.647  1.00  0.00     0.063 C 
BRANCH  14  15
HETATM   15  C11 UNL     1     115.123  40.894  48.913  1.00  0.00     0.119 C 
BRANCH  15  16
HETATM   16  N3  UNL     1     116.459  40.772  48.455  1.00  0.00    -0.418 N 
ATOM     17  H3  UNL     1     117.260  40.880  49.077  1.00  0.00     0.153 HD
BRANCH  16  18
HETATM   18  C12 UNL     1     116.609  40.485  47.046  1.00  0.00     0.147 C 
BRANCH  18  19
HETATM   19  C13 UNL     1     117.510  41.524  46.404  1.00  0.00     0.164 C 
HETATM   20  C14 UNL     1     116.798  42.851  46.394  1.00  0.00     0.265 C 
HETATM   21  N4  UNL     1     115.779  42.930  45.377  1.00  0.00    -0.071 N 
HETATM   22  C15 UNL     1     116.397  42.634  44.103  1.00  0.00     0.258 C 
ATOM     23  H42 UNL     1     114.976  42.333  45.575  1.00  0.00     0.277 HD
ATOM     24  H41 UNL     1     115.287  43.824  45.380  1.00  0.00     0.277 HD
HETATM   25  C16 UNL     1     116.925  41.214  44.188  1.00  0.00     0.196 C 
HETATM   26  O1  UNL     1     117.935  41.109  45.144  1.00  0.00    -0.381 OA
ENDBRANCH  18  19
ENDBRANCH  16  18
ENDBRANCH  15  16
ENDBRANCH  14  15
ENDBRANCH   1  14
TORSDOF 10
ENDMDL
MODEL 5
REMARK VINA RESULT: -6.162740523      1.439      2.041
REMARK  10 active torsions:
REMARK  status: ('A' for Active; 'I' for Inactive)
REMARK    1  A    between atoms: C5_7  and  C6_8 
REMARK    2  A    between atoms: C6_8  and  C7_9 
REMARK    3  A    between atoms: C7_9  and  C8_10 
REMARK    4  A    between atoms: C8_10  and  N2_11 
REMARK    5  A    between atoms: N2_11  and  C9_13 
REMARK    6  A    between atoms: C9_13  and  C10_14 
REMARK    7  A    between atoms: C10_14  and  C11_15 
REMARK    8  A    between atoms: C11_15  and  N3_16 
REMARK    9  A    between atoms: N3_16  and  C12_18 
REMARK   10  A    between atoms: C12_18  and  C13_19 
ROOT
HETATM    1  C9  UNL     1     113.304  42.300  49.341  1.00  0.00     0.061 C 
ENDROOT
BRANCH   1   2
HETATM    2  N2  UNL     1     112.949  43.515  49.949  1.00  0.00    -0.382 N 
ATOM      3  H2  UNL     1     112.003  43.875  49.831  1.00  0.00     0.163 HD
BRANCH   2   4
HETATM    4  C8  UNL     1     113.865  44.240  50.710  1.00  0.00     0.060 C 
BRANCH   4   5
HETATM    5  C7  UNL     1     113.507  44.621  52.103  1.00  0.00     0.049 C 
BRANCH   5   6
HETATM    6  C6  UNL     1     114.633  44.063  52.986  1.00  0.00     0.045 C 
BRANCH   6   7
HETATM    7  C5  UNL     1     115.452  45.113  53.596  1.00  0.00    -0.034 A 
HETATM    8  C2  UNL     1     116.000  45.003  54.851  1.00  0.00     0.011 A 
HETATM    9  C1  UNL     1     115.878  43.841  55.779  1.00  0.00     0.068 C 
HETATM   10  N1  UNL     1     116.690  46.150  55.112  1.00  0.00    -0.369 N 
HETATM   11  C3  UNL     1     116.571  46.958  54.036  1.00  0.00     0.088 A 
ATOM     12  H1  UNL     1     117.205  46.360  55.967  1.00  0.00     0.165 HD
HETATM   13  C4  UNL     1     115.811  46.337  53.088  1.00  0.00     0.026 A 
ENDBRANCH   6   7
ENDBRANCH   5   6
ENDBRANCH   4   5
ENDBRANCH   2   4
ENDBRANCH   1   2
BRANCH   1  14
HETATM   14  C10 UNL     1     114.696  41.880  49.748  1.00  0.00     0.063 C 
BRANCH  14  15
HETATM   15  C11 UNL     1     115.149  40.807  48.790  1.00  0.00     0.119 C 
BRANCH  15  16
HETATM   16  N3  UNL     1     116.488  40.986  48.361  1.00  0.00    -0.418 N 
ATOM     17  H3  UNL     1     117.201  41.402  48.961  1.00  0.00     0.153 HD
BRANCH  16  18
HETATM   18  C12 UNL     1     116.776  40.540  47.016  1.00  0.00     0.147 C 
BRANCH  18  19
HETATM   19  C13 UNL     1     117.590  41.595  46.289  1.00  0.00     0.164 C 
HETATM   20  C14 UNL     1     116.824  42.891  46.288  1.00  0.00     0.265 C 
HETATM   21  N4  UNL     1     115.741  42.898  45.336  1.00  0.00    -0.071 N 
HETATM   22  C15 UNL     1     116.290  42.588  44.033  1.00  0.00     0.258 C 
ATOM     23  H42 UNL     1     114.978  42.276  45.601  1.00  0.00     0.277 HD
ATOM     24  H41 UNL     1     115.213  43.771  45.344  1.00  0.00     0.277 HD
HETATM   25  C16 UNL     1     116.881  41.193  44.125  1.00  0.00     0.196 C 
HETATM   26  O1  UNL     1     117.953  41.159  45.017  1.00  0.00    -0.381 OA
ENDBRANCH  18  19
ENDBRANCH  16  18
ENDBRANCH  15  16
ENDBRANCH  14  15
ENDBRANCH   1  14
TORSDOF 10
ENDMDL
