MODEL 1
REMARK VINA RESULT: -5.850332274      0.000      0.000
REMARK  14 active torsions:
REMARK  status: ('A' for Active; 'I' for Inactive)
REMARK    1  A    between atoms: C2_2  and  N1_3 
REMARK    2  A    between atoms: N1_3  and  C3_4 
REMARK    3  A    between atoms: N1_3  and  C5_10 
REMARK    4  A    between atoms: C3_4  and  C4_5 
REMARK    5  A    between atoms: C4_5  and  N2_6 
REMARK    6  A    between atoms: C5_10  and  C6_11 
REMARK    7  A    between atoms: C6_11  and  C7_12 
REMARK    8  A    between atoms: C7_12  and  C8_13 
REMARK    9  A    between atoms: C8_13  and  C9_14 
REMARK   10  A    between atoms: C9_14  and  C10_15 
REMARK   11  A    between atoms: C10_15  and  C11_16 
REMARK   12  A    between atoms: C11_16  and  N3_17 
REMARK   13  A    between atoms: N3_17  and  C12_19 
REMARK   14  A    between atoms: C15_26  and  N6_27 
ROOT
HETATM    1  C10 UNL     1     114.805  41.963  49.614  1.00  0.00     0.020 C 
ENDROOT
BRANCH   1   2
HETATM    2  C9  UNL     1     113.699  42.511  50.459  1.00  0.00     0.002 C 
BRANCH   2   3
HETATM    3  C8  UNL     1     113.752  43.996  50.624  1.00  0.00     0.000 C 
BRANCH   3   4
HETATM    4  C7  UNL     1     113.434  44.475  51.998  1.00  0.00     0.002 C 
BRANCH   4   5
HETATM    5  C6  UNL     1     114.509  45.298  52.646  1.00  0.00     0.030 C 
BRANCH   5   6
HETATM    6  C5  UNL     1     115.136  44.497  53.754  1.00  0.00     0.272 C 
BRANCH   6   7
HETATM    7  N1  UNL     1     116.546  44.241  53.608  1.00  0.00     0.089 N 
BRANCH   7   8
HETATM    8  C2  UNL     1     117.051  44.869  52.410  1.00  0.00     0.268 C 
HETATM    9  C1  UNL     1     118.141  45.860  52.705  1.00  0.00     0.037 C 
ENDBRANCH   7   8
BRANCH   7  10
HETATM   10  C3  UNL     1     116.933  42.881  53.767  1.00  0.00     0.299 C 
BRANCH  10  11
HETATM   11  C4  UNL     1     115.852  41.873  53.510  1.00  0.00     0.259 C 
BRANCH  11  12
HETATM   12  N2  UNL     1     116.266  40.751  52.699  1.00  0.00    -0.078 N 
ATOM     13  H23 UNL     1     116.529  41.064  51.764  1.00  0.00     0.274 HD
ATOM     14  H22 UNL     1     117.164  40.391  53.021  1.00  0.00     0.274 HD
ATOM     15  H21 UNL     1     115.580  39.998  52.642  1.00  0.00     0.274 HD
ENDBRANCH  11  12
ENDBRANCH  10  11
ENDBRANCH   7  10
ENDBRANCH   6   7
ENDBRANCH   5   6
ENDBRANCH   4   5
ENDBRANCH   3   4
ENDBRANCH   2   3
ENDBRANCH   1   2
BRANCH   1  16
HETATM   16  C11 UNL     1     114.355  41.177  48.415  1.00  0.00     0.121 C 
BRANCH  16  17
HETATM   17  N3  UNL     1     114.674  41.945  47.234  1.00  0.00    -0.373 N 
ATOM     18  H3  UNL     1     114.131  42.794  47.078  1.00  0.00     0.161 HD
BRANCH  17  19
HETATM   19  C12 UNL     1     115.564  41.669  46.368  1.00  0.00     0.145 A 
HETATM   20  N4  UNL     1     116.675  40.958  46.617  1.00  0.00    -0.348 N 
HETATM   21  C13 UNL     1     117.573  40.706  45.630  1.00  0.00     0.107 A 
ATOM     22  H4  UNL     1     116.846  40.602  47.557  1.00  0.00     0.167 HD
HETATM   23  C14 UNL     1     117.396  41.161  44.344  1.00  0.00     0.107 A 
HETATM   24  N5  UNL     1     116.286  41.874  44.086  1.00  0.00    -0.348 N 
HETATM   25  C15 UNL     1     115.394  42.126  45.059  1.00  0.00     0.143 A 
ATOM     26  H5  UNL     1     116.121  42.227  43.144  1.00  0.00     0.167 HD
BRANCH  25  27
HETATM   27  N6  UNL     1     114.319  42.818  44.809  1.00  0.00    -0.382 N 
ATOM     28  H62 UNL     1     113.445  42.351  44.563  1.00  0.00     0.157 HD
ATOM     29  H61 UNL     1     114.397  43.833  44.871  1.00  0.00     0.157 HD
ENDBRANCH  25  27
ENDBRANCH  17  19
ENDBRANCH  16  17
ENDBRANCH   1  16
TORSDOF 14
ENDMDL
MODEL 2
REMARK VINA RESULT: -5.809083762      1.213      1.898
REMARK  14 active torsions:
REMARK  status: ('A' for Active; 'I' for Inactive)
REMARK    1  A    between atoms: C2_2  and  N1_3 
REMARK    2  A    between atoms: N1_3  and  C3_4 
REMARK    3  A    between atoms: N1_3  and  C5_10 
REMARK    4  A    between atoms: C3_4  and  C4_5 
REMARK    5  A    between atoms: C4_5  and  N2_6 
REMARK    6  A    between atoms: C5_10  and  C6_11 
REMARK    7  A    between atoms: C6_11  and  C7_12 
REMARK    8  A    between atoms: C7_12  and  C8_13 
REMARK    9  A    between atoms: C8_13  and  C9_14 
REMARK   10  A    between atoms: C9_14  and  C10_15 
REMARK   11  A    between atoms: C10_15  and  C11_16 
REMARK   12  A    between atoms: C11_16  and  N3_17 
REMARK   13  A    between atoms: N3_17  and  C12_19 
REMARK   14  A    between atoms: C15_26  and  N6_27 
ROOT
HETATM    1  C10 UNL     1     115.848  41.319  47.957  1.00  0.00     0.020 C 
ENDROOT
BRANCH   1   2
HETATM    2  C9  UNL     1     114.397  41.418  48.303  1.00  0.00     0.002 C 
BRANCH   2   3
HETATM    3  C8  UNL     1     114.144  41.659  49.758  1.00  0.00     0.000 C 
BRANCH   3   4
HETATM    4  C7  UNL     1     113.278  42.836  50.046  1.00  0.00     0.002 C 
BRANCH   4   5
HETATM    5  C6  UNL     1     114.008  44.055  50.530  1.00  0.00     0.030 C 
BRANCH   5   6
HETATM    6  C5  UNL     1     113.599  44.337  51.950  1.00  0.00     0.272 C 
BRANCH   6   7
HETATM    7  N1  UNL     1     114.685  44.513  52.880  1.00  0.00     0.089 N 
BRANCH   7   8
HETATM    8  C2  UNL     1     115.169  45.873  52.839  1.00  0.00     0.268 C 
HETATM    9  C1  UNL     1     116.619  45.948  52.451  1.00  0.00     0.037 C 
ENDBRANCH   7   8
BRANCH   7  10
HETATM   10  C3  UNL     1     115.705  43.524  52.811  1.00  0.00     0.299 C 
BRANCH  10  11
HETATM   11  C4  UNL     1     115.341  42.186  53.384  1.00  0.00     0.259 C 
BRANCH  11  12
HETATM   12  N2  UNL     1     116.078  41.077  52.824  1.00  0.00    -0.078 N 
ATOM     13  H23 UNL     1     117.021  41.370  52.565  1.00  0.00     0.274 HD
ATOM     14  H22 UNL     1     116.301  40.395  53.549  1.00  0.00     0.274 HD
ATOM     15  H21 UNL     1     115.618  40.622  52.035  1.00  0.00     0.274 HD
ENDBRANCH  11  12
ENDBRANCH  10  11
ENDBRANCH   7  10
ENDBRANCH   6   7
ENDBRANCH   5   6
ENDBRANCH   4   5
ENDBRANCH   3   4
ENDBRANCH   2   3
ENDBRANCH   1   2
BRANCH   1  16
HETATM   16  C11 UNL     1     116.536  42.636  47.735  1.00  0.00     0.121 C 
BRANCH  16  17
HETATM   17  N3  UNL     1     116.278  43.050  46.375  1.00  0.00    -0.373 N 
ATOM     18  H3  UNL     1     116.027  44.028  46.234  1.00  0.00     0.161 HD
BRANCH  17  19
HETATM   19  C12 UNL     1     116.332  42.317  45.337  1.00  0.00     0.145 A 
HETATM   20  N4  UNL     1     117.345  41.488  45.041  1.00  0.00    -0.348 N 
HETATM   21  C13 UNL     1     117.319  40.738  43.910  1.00  0.00     0.107 A 
ATOM     22  H4  UNL     1     118.143  41.421  45.672  1.00  0.00     0.167 HD
HETATM   23  C14 UNL     1     116.271  40.787  43.020  1.00  0.00     0.107 A 
HETATM   24  N5  UNL     1     115.252  41.614  43.310  1.00  0.00    -0.348 N 
HETATM   25  C15 UNL     1     115.272  42.360  44.428  1.00  0.00     0.143 A 
ATOM     26  H5  UNL     1     114.457  41.677  42.674  1.00  0.00     0.167 HD
BRANCH  25  27
HETATM   27  N6  UNL     1     114.285  43.163  44.707  1.00  0.00    -0.382 N 
ATOM     28  H62 UNL     1     113.914  43.219  45.656  1.00  0.00     0.157 HD
ATOM     29  H61 UNL     1     113.910  43.720  43.940  1.00  0.00     0.157 HD
ENDBRANCH  25  27
ENDBRANCH  17  19
ENDBRANCH  16  17
ENDBRANCH   1  16
TORSDOF 14
ENDMDL
MODEL 3
REMARK VINA RESULT: -5.805182191      2.090      8.056
REMARK  14 active torsions:
REMARK  status: ('A' for Active; 'I' for Inactive)
REMARK    1  A    between atoms: C2_2  and  N1_3 
REMARK    2  A    between atoms: N1_3  and  C3_4 
REMARK    3  A    between atoms: N1_3  and  C5_10 
REMARK    4  A    between atoms: C3_4  and  C4_5 
REMARK    5  A    between atoms: C4_5  and  N2_6 
REMARK    6  A    between atoms: C5_10  and  C6_11 
REMARK    7  A    between atoms: C6_11  and  C7_12 
REMARK    8  A    between atoms: C7_12  and  C8_13 
REMARK    9  A    between atoms: C8_13  and  C9_14 
REMARK   10  A    between atoms: C9_14  and  C10_15 
REMARK   11  A    between atoms: C10_15  and  C11_16 
REMARK   12  A    between atoms: C11_16  and  N3_17 
REMARK   13  A    between atoms: N3_17  and  C12_19 
REMARK   14  A    between atoms: C15_26  and  N6_27 
ROOT
HETATM    1  C10 UNL     1     114.566  41.241  48.720  1.00  0.00     0.020 C 
ENDROOT
BRANCH   1   2
HETATM    2  C9  UNL     1     115.740  41.544  47.844  1.00  0.00     0.002 C 
BRANCH   2   3
HETATM    3  C8  UNL     1     116.372  40.326  47.249  1.00  0.00     0.000 C 
BRANCH   3   4
HETATM    4  C7  UNL     1     117.710  40.562  46.638  1.00  0.00     0.002 C 
BRANCH   4   5
HETATM    5  C6  UNL     1     117.751  41.648  45.604  1.00  0.00     0.030 C 
BRANCH   5   6
HETATM    6  C5  UNL     1     117.383  41.064  44.267  1.00  0.00     0.272 C 
BRANCH   6   7
HETATM    7  N1  UNL     1     116.305  41.729  43.581  1.00  0.00     0.089 N 
BRANCH   7   8
HETATM    8  C2  UNL     1     115.877  42.892  44.321  1.00  0.00     0.268 C 
HETATM    9  C1  UNL     1     114.421  42.828  44.686  1.00  0.00     0.037 C 
ENDBRANCH   7   8
BRANCH   7  10
HETATM   10  C3  UNL     1     115.246  40.880  43.155  1.00  0.00     0.299 C 
BRANCH  10  11
HETATM   11  C4  UNL     1     115.340  40.401  41.736  1.00  0.00     0.259 C 
BRANCH  11  12
HETATM   12  N2  UNL     1     114.206  39.619  41.296  1.00  0.00    -0.078 N 
ATOM     13  H23 UNL     1     114.119  38.771  41.856  1.00  0.00     0.274 HD
ATOM     14  H22 UNL     1     113.334  40.085  41.546  1.00  0.00     0.274 HD
ATOM     15  H21 UNL     1     114.215  39.390  40.301  1.00  0.00     0.274 HD
ENDBRANCH  11  12
ENDBRANCH  10  11
ENDBRANCH   7  10
ENDBRANCH   6   7
ENDBRANCH   5   6
ENDBRANCH   4   5
ENDBRANCH   3   4
ENDBRANCH   2   3
ENDBRANCH   1   2
BRANCH   1  16
HETATM   16  C11 UNL     1     114.694  41.722  50.137  1.00  0.00     0.121 C 
BRANCH  16  17
HETATM   17  N3  UNL     1     115.408  42.977  50.119  1.00  0.00    -0.373 N 
ATOM     18  H3  UNL     1     115.905  43.210  49.258  1.00  0.00     0.161 HD
BRANCH  17  19
HETATM   19  C12 UNL     1     115.480  43.823  51.067  1.00  0.00     0.145 A 
HETATM   20  N4  UNL     1     116.498  43.909  51.936  1.00  0.00    -0.348 N 
HETATM   21  C13 UNL     1     116.495  44.846  52.918  1.00  0.00     0.107 A 
ATOM     22  H4  UNL     1     117.284  43.263  51.859  1.00  0.00     0.167 HD
HETATM   23  C14 UNL     1     115.463  45.743  53.073  1.00  0.00     0.107 A 
HETATM   24  N5  UNL     1     114.440  45.664  52.205  1.00  0.00    -0.348 N 
HETATM   25  C15 UNL     1     114.437  44.739  51.231  1.00  0.00     0.143 A 
ATOM     26  H5  UNL     1     113.657  46.313  52.288  1.00  0.00     0.167 HD
BRANCH  25  27
HETATM   27  N6  UNL     1     113.444  44.661  50.392  1.00  0.00    -0.382 N 
ATOM     28  H62 UNL     1     113.426  43.937  49.673  1.00  0.00     0.157 HD
ATOM     29  H61 UNL     1     112.701  45.352  50.490  1.00  0.00     0.157 HD
ENDBRANCH  25  27
ENDBRANCH  17  19
ENDBRANCH  16  17
ENDBRANCH   1  16
TORSDOF 14
ENDMDL
MODEL 4
REMARK VINA RESULT: -5.772982837      1.050      1.632
REMARK  14 active torsions:
REMARK  status: ('A' for Active; 'I' for Inactive)
REMARK    1  A    between atoms: C2_2  and  N1_3 
REMARK    2  A    between atoms: N1_3  and  C3_4 
REMARK    3  A    between atoms: N1_3  and  C5_10 
REMARK    4  A    between atoms: C3_4  and  C4_5 
REMARK    5  A    between atoms: C4_5  and  N2_6 
REMARK    6  A    between atoms: C5_10  and  C6_11 
REMARK    7  A    between atoms: C6_11  and  C7_12 
REMARK    8  A    between atoms: C7_12  and  C8_13 
REMARK    9  A    between atoms: C8_13  and  C9_14 
REMARK   10  A    between atoms: C9_14  and  C10_15 
REMARK   11  A    between atoms: C10_15  and  C11_16 
REMARK   12  A    between atoms: C11_16  and  N3_17 
REMARK   13  A    between atoms: N3_17  and  C12_19 
REMARK   14  A    between atoms: C15_26  and  N6_27 
ROOT
HETATM    1  C10 UNL     1     114.763  42.268  49.678  1.00  0.00     0.020 C 
ENDROOT
BRANCH   1   2
HETATM    2  C9  UNL     1     113.638  42.715  50.556  1.00  0.00     0.002 C 
BRANCH   2   3
HETATM    3  C8  UNL     1     113.634  44.187  50.821  1.00  0.00     0.000 C 
BRANCH   3   4
HETATM    4  C7  UNL     1     113.595  44.554  52.264  1.00  0.00     0.002 C 
BRANCH   4   5
HETATM    5  C6  UNL     1     114.839  45.215  52.782  1.00  0.00     0.030 C 
BRANCH   5   6
HETATM    6  C5  UNL     1     115.280  44.510  54.036  1.00  0.00     0.272 C 
BRANCH   6   7
HETATM    7  N1  UNL     1     115.073  43.084  54.046  1.00  0.00     0.089 N 
BRANCH   7   8
HETATM    8  C2  UNL     1     114.767  42.628  55.381  1.00  0.00     0.268 C 
HETATM    9  C1  UNL     1     114.758  43.754  56.377  1.00  0.00     0.037 C 
ENDBRANCH   7   8
BRANCH   7  10
HETATM   10  C3  UNL     1     116.073  42.323  53.380  1.00  0.00     0.299 C 
BRANCH  10  11
HETATM   11  C4  UNL     1     115.841  40.842  53.354  1.00  0.00     0.259 C 
BRANCH  11  12
HETATM   12  N2  UNL     1     116.793  40.103  52.557  1.00  0.00    -0.078 N 
ATOM     13  H23 UNL     1     117.626  39.887  53.105  1.00  0.00     0.274 HD
ATOM     14  H22 UNL     1     116.452  39.159  52.379  1.00  0.00     0.274 HD
ATOM     15  H21 UNL     1     117.052  40.559  51.681  1.00  0.00     0.274 HD
ENDBRANCH  11  12
ENDBRANCH  10  11
ENDBRANCH   7  10
ENDBRANCH   6   7
ENDBRANCH   5   6
ENDBRANCH   4   5
ENDBRANCH   3   4
ENDBRANCH   2   3
ENDBRANCH   1   2
BRANCH   1  16
HETATM   16  C11 UNL     1     114.372  41.309  48.590  1.00  0.00     0.121 C 
BRANCH  16  17
HETATM   17  N3  UNL     1     114.625  41.949  47.320  1.00  0.00    -0.373 N 
ATOM     18  H3  UNL     1     114.010  42.722  47.066  1.00  0.00     0.161 HD
BRANCH  17  19
HETATM   19  C12 UNL     1     115.536  41.646  46.486  1.00  0.00     0.145 A 
HETATM   20  N4  UNL     1     116.623  40.914  46.777  1.00  0.00    -0.348 N 
HETATM   21  C13 UNL     1     117.546  40.634  45.823  1.00  0.00     0.107 A 
ATOM     22  H4  UNL     1     116.755  40.563  47.726  1.00  0.00     0.167 HD
HETATM   23  C14 UNL     1     117.422  41.081  44.527  1.00  0.00     0.107 A 
HETATM   24  N5  UNL     1     116.337  41.815  44.228  1.00  0.00    -0.348 N 
HETATM   25  C15 UNL     1     115.419  42.095  45.168  1.00  0.00     0.143 A 
ATOM     26  H5  UNL     1     116.209  42.163  43.277  1.00  0.00     0.167 HD
BRANCH  25  27
HETATM   27  N6  UNL     1     114.368  42.807  44.878  1.00  0.00    -0.382 N 
ATOM     28  H62 UNL     1     113.433  42.480  45.125  1.00  0.00     0.157 HD
ATOM     29  H61 UNL     1     114.527  43.693  44.398  1.00  0.00     0.157 HD
ENDBRANCH  25  27
ENDBRANCH  17  19
ENDBRANCH  16  17
ENDBRANCH   1  16
TORSDOF 14
ENDMDL
MODEL 5
REMARK VINA RESULT: -5.768992396      0.873      2.179
REMARK  14 active torsions:
REMARK  status: ('A' for Active; 'I' for Inactive)
REMARK    1  A    between atoms: C2_2  and  N1_3 
REMARK    2  A    between atoms: N1_3  and  C3_4 
REMARK    3  A    between atoms: N1_3  and  C5_10 
REMARK    4  A    between atoms: C3_4  and  C4_5 
REMARK    5  A    between atoms: C4_5  and  N2_6 
REMARK    6  A    between atoms: C5_10  and  C6_11 
REMARK    7  A    between atoms: C6_11  and  C7_12 
REMARK    8  A    between atoms: C7_12  and  C8_13 
REMARK    9  A    between atoms: C8_13  and  C9_14 
REMARK   10  A    between atoms: C9_14  and  C10_15 
REMARK   11  A    between atoms: C10_15  and  C11_16 
REMARK   12  A    between atoms: C11_16  and  N3_17 
REMARK   13  A    between atoms: N3_17  and  C12_19 
REMARK   14  A    between atoms: C15_26  and  N6_27 
ROOT
HETATM    1  C10 UNL     1     114.094  42.078  49.579  1.00  0.00     0.020 C 
ENDROOT
BRANCH   1   2
HETATM    2  C9  UNL     1     115.141  43.119  49.821  1.00  0.00     0.002 C 
BRANCH   2   3
HETATM    3  C8  UNL     1     114.595  44.402  50.362  1.00  0.00     0.000 C 
BRANCH   3   4
HETATM    4  C7  UNL     1     113.639  44.237  51.493  1.00  0.00     0.002 C 
BRANCH   4   5
HETATM    5  C6  UNL     1     113.994  44.998  52.737  1.00  0.00     0.030 C 
BRANCH   5   6
HETATM    6  C5  UNL     1     114.772  44.096  53.655  1.00  0.00     0.272 C 
BRANCH   6   7
HETATM    7  N1  UNL     1     116.151  43.889  53.293  1.00  0.00     0.089 N 
BRANCH   7   8
HETATM    8  C2  UNL     1     116.566  42.548  53.630  1.00  0.00     0.268 C 
HETATM    9  C1  UNL     1     115.547  41.520  53.223  1.00  0.00     0.037 C 
ENDBRANCH   7   8
BRANCH   7  10
HETATM   10  C3  UNL     1     117.047  44.907  53.722  1.00  0.00     0.299 C 
BRANCH  10  11
HETATM   11  C4  UNL     1     117.726  45.668  52.622  1.00  0.00     0.259 C 
BRANCH  11  12
HETATM   12  N2  UNL     1     117.029  46.865  52.208  1.00  0.00    -0.078 N 
ATOM     13  H23 UNL     1     117.102  47.586  52.925  1.00  0.00     0.274 HD
ATOM     14  H22 UNL     1     117.530  47.323  51.447  1.00  0.00     0.274 HD
ATOM     15  H21 UNL     1     116.052  46.714  51.952  1.00  0.00     0.274 HD
ENDBRANCH  11  12
ENDBRANCH  10  11
ENDBRANCH   7  10
ENDBRANCH   6   7
ENDBRANCH   5   6
ENDBRANCH   4   5
ENDBRANCH   3   4
ENDBRANCH   2   3
ENDBRANCH   1   2
BRANCH   1  16
HETATM   16  C11 UNL     1     114.384  41.143  48.440  1.00  0.00     0.121 C 
BRANCH  16  17
HETATM   17  N3  UNL     1     114.728  41.941  47.286  1.00  0.00    -0.373 N 
ATOM     18  H3  UNL     1     114.222  42.818  47.167  1.00  0.00     0.161 HD
BRANCH  17  19
HETATM   19  C12 UNL     1     115.599  41.659  46.402  1.00  0.00     0.145 A 
HETATM   20  N4  UNL     1     116.716  40.950  46.631  1.00  0.00    -0.348 N 
HETATM   21  C13 UNL     1     117.591  40.693  45.626  1.00  0.00     0.107 A 
ATOM     22  H4  UNL     1     116.909  40.602  47.570  1.00  0.00     0.167 HD
HETATM   23  C14 UNL     1     117.386  41.138  44.341  1.00  0.00     0.107 A 
HETATM   24  N5  UNL     1     116.270  41.848  44.103  1.00  0.00    -0.348 N 
HETATM   25  C15 UNL     1     115.399  42.106  45.093  1.00  0.00     0.143 A 
ATOM     26  H5  UNL     1     116.082  42.194  43.162  1.00  0.00     0.167 HD
BRANCH  25  27
HETATM   27  N6  UNL     1     114.318  42.795  44.863  1.00  0.00    -0.382 N 
ATOM     28  H62 UNL     1     113.745  43.138  45.635  1.00  0.00     0.157 HD
ATOM     29  H61 UNL     1     114.079  42.970  43.887  1.00  0.00     0.157 HD
ENDBRANCH  25  27
ENDBRANCH  17  19
ENDBRANCH  16  17
ENDBRANCH   1  16
TORSDOF 14
ENDMDL
