MODEL 1
REMARK VINA RESULT: -8.320927316      0.000      0.000
REMARK  7 active torsions:
REMARK  status: ('A' for Active; 'I' for Inactive)
REMARK    1  A    between atoms: C3_3  and  C4_4 
REMARK    2  A    between atoms: C6_6  and  N1_7 
REMARK    3  A    between atoms: C6_6  and  C25_34 
REMARK       I    between atoms: N1_7  and  C7_9 
REMARK    4  A    between atoms: C7_9  and  C8_11 
REMARK    5  A    between atoms: C13_16  and  C14_17 
REMARK       I    between atoms: C14_17  and  N2_19 
REMARK    6  A    between atoms: C19_24  and  C20_25 
REMARK       I    between atoms: C20_25  and  N3_27 
REMARK    7  A    between atoms: C24_31  and  O4_32 
ROOT
HETATM    1  C8  UNL     1     -44.450 -48.276  -6.773  1.00  0.00     0.091 C 
HETATM    2  C9  UNL     1     -43.725 -47.959  -5.471  1.00  0.00     0.015 C 
HETATM    3  C10 UNL     1     -42.459 -47.178  -5.724  1.00  0.00     0.001 C 
HETATM    4  C11 UNL     1     -41.491 -47.829  -6.652  1.00  0.00     0.001 C 
HETATM    5  C12 UNL     1     -42.262 -48.722  -7.650  1.00  0.00     0.015 C 
HETATM    6  C13 UNL     1     -43.549 -48.015  -7.926  1.00  0.00     0.091 C 
ENDROOT
BRANCH   6   7
HETATM    7  C14 UNL     1     -44.143 -48.185  -9.241  1.00  0.00     0.225 C 
HETATM    8  O2  UNL     1     -45.348 -47.786  -9.402  1.00  0.00    -0.273 OA
HETATM    9  N2  UNL     1     -43.512 -48.754 -10.362  1.00  0.00    -0.338 N 
HETATM   10  C15 UNL     1     -44.312 -48.901 -11.599  1.00  0.00     0.127 C 
HETATM   11  C19 UNL     1     -42.154 -49.194 -10.466  1.00  0.00     0.179 C 
HETATM   12  C16 UNL     1     -44.482 -50.430 -11.694  1.00  0.00     0.020 C 
HETATM   13  C17 UNL     1     -43.148 -51.063 -11.886  1.00  0.00     0.004 C 
HETATM   14  C18 UNL     1     -42.017 -50.530 -11.099  1.00  0.00     0.035 C 
BRANCH  11  15
HETATM   15  C20 UNL     1     -41.287 -48.160 -11.136  1.00  0.00     0.244 C 
HETATM   16  O3  UNL     1     -40.535 -48.571 -12.056  1.00  0.00    -0.271 OA
HETATM   17  N3  UNL     1     -41.284 -46.805 -10.793  1.00  0.00    -0.324 N 
HETATM   18  C21 UNL     1     -42.037 -46.041  -9.823  1.00  0.00     0.129 C 
HETATM   19  C24 UNL     1     -40.414 -45.794 -11.417  1.00  0.00     0.222 C 
HETATM   20  C22 UNL     1     -40.897 -45.327  -9.095  1.00  0.00     0.024 C 
HETATM   21  C23 UNL     1     -39.836 -45.135 -10.167  1.00  0.00     0.055 C 
BRANCH  19  22
HETATM   22  O4  UNL     1     -41.193 -44.842 -12.046  1.00  0.00    -0.377 OA
ATOM     23  H4  UNL     1     -40.672 -44.063 -12.207  1.00  0.00     0.212 HD
ENDBRANCH  19  22
ENDBRANCH  11  15
ENDBRANCH   6   7
BRANCH   1  24
HETATM   24  C7  UNL     1     -44.868 -49.686  -6.677  1.00  0.00     0.223 C 
HETATM   25  N1  UNL     1     -45.746 -50.203  -7.706  1.00  0.00    -0.341 N 
ATOM     26  H1  UNL     1     -46.031 -49.578  -8.460  1.00  0.00     0.163 HD
HETATM   27  O1  UNL     1     -44.553 -50.508  -5.801  1.00  0.00    -0.273 OA
BRANCH  25  28
HETATM   28  C6  UNL     1     -46.243 -51.570  -7.718  1.00  0.00     0.129 A 
HETATM   29  C4  UNL     1     -46.730 -51.954  -9.111  1.00  0.00     0.050 A 
HETATM   30  C5  UNL     1     -45.558 -52.603  -8.474  1.00  0.00     0.054 A 
BRANCH  29  31
HETATM   31  C3  UNL     1     -48.036 -52.628  -9.183  1.00  0.00    -0.023 C 
HETATM   32  C2  UNL     1     -48.204 -53.816  -9.731  1.00  0.00    -0.034 C 
HETATM   33  C1  UNL     1     -49.541 -54.433  -9.769  1.00  0.00     0.036 C 
ENDBRANCH  29  31
BRANCH  28  34
HETATM   34  C25 UNL     1     -47.132 -51.973  -6.590  1.00  0.00     0.203 C 
HETATM   35  O5  UNL     1     -46.949 -53.087  -6.056  1.00  0.00    -0.646 OA
HETATM   36  O6  UNL     1     -48.155 -51.202  -6.084  1.00  0.00    -0.646 OA
ENDBRANCH  28  34
ENDBRANCH  25  28
ENDBRANCH   1  24
TORSDOF 7
ENDMDL
MODEL 2
REMARK VINA RESULT: -8.208825309      2.319      4.995
REMARK  7 active torsions:
REMARK  status: ('A' for Active; 'I' for Inactive)
REMARK    1  A    between atoms: C3_3  and  C4_4 
REMARK    2  A    between atoms: C6_6  and  N1_7 
REMARK    3  A    between atoms: C6_6  and  C25_34 
REMARK       I    between atoms: N1_7  and  C7_9 
REMARK    4  A    between atoms: C7_9  and  C8_11 
REMARK    5  A    between atoms: C13_16  and  C14_17 
REMARK       I    between atoms: C14_17  and  N2_19 
REMARK    6  A    between atoms: C19_24  and  C20_25 
REMARK       I    between atoms: C20_25  and  N3_27 
REMARK    7  A    between atoms: C24_31  and  O4_32 
ROOT
HETATM    1  C8  UNL     1     -44.499 -51.985  -8.149  1.00  0.00     0.091 C 
HETATM    2  C9  UNL     1     -45.066 -53.048  -9.084  1.00  0.00     0.015 C 
HETATM    3  C10 UNL     1     -44.632 -52.812 -10.509  1.00  0.00     0.001 C 
HETATM    4  C11 UNL     1     -44.979 -51.471 -11.061  1.00  0.00     0.001 C 
HETATM    5  C12 UNL     1     -45.027 -50.442  -9.910  1.00  0.00     0.015 C 
HETATM    6  C13 UNL     1     -43.960 -50.852  -8.946  1.00  0.00     0.091 C 
ENDROOT
BRANCH   6   7
HETATM    7  C14 UNL     1     -43.301 -49.805  -8.186  1.00  0.00     0.225 C 
HETATM    8  O2  UNL     1     -42.962 -50.072  -6.981  1.00  0.00    -0.273 OA
HETATM    9  N2  UNL     1     -42.997 -48.513  -8.654  1.00  0.00    -0.338 N 
HETATM   10  C15 UNL     1     -42.382 -47.564  -7.699  1.00  0.00     0.127 C 
HETATM   11  C19 UNL     1     -43.192 -48.000  -9.976  1.00  0.00     0.179 C 
HETATM   12  C16 UNL     1     -43.516 -46.545  -7.479  1.00  0.00     0.020 C 
HETATM   13  C17 UNL     1     -43.806 -45.845  -8.761  1.00  0.00     0.004 C 
HETATM   14  C18 UNL     1     -43.820 -46.655  -9.996  1.00  0.00     0.035 C 
BRANCH  11  15
HETATM   15  C20 UNL     1     -41.917 -48.039 -10.777  1.00  0.00     0.244 C 
HETATM   16  O3  UNL     1     -41.256 -46.970 -10.831  1.00  0.00    -0.271 OA
HETATM   17  N3  UNL     1     -41.450 -49.176 -11.442  1.00  0.00    -0.324 N 
HETATM   18  C21 UNL     1     -41.957 -50.527 -11.544  1.00  0.00     0.129 C 
HETATM   19  C24 UNL     1     -40.224 -49.214 -12.258  1.00  0.00     0.222 C 
HETATM   20  C22 UNL     1     -41.946 -50.708 -13.062  1.00  0.00     0.024 C 
HETATM   21  C23 UNL     1     -40.772 -49.861 -13.527  1.00  0.00     0.055 C 
BRANCH  19  22
HETATM   22  O4  UNL     1     -39.331 -50.113 -11.706  1.00  0.00    -0.377 OA
ATOM     23  H4  UNL     1     -38.676 -49.640 -11.205  1.00  0.00     0.212 HD
ENDBRANCH  19  22
ENDBRANCH  11  15
ENDBRANCH   6   7
BRANCH   1  24
HETATM   24  C7  UNL     1     -45.605 -51.589  -7.260  1.00  0.00     0.223 C 
HETATM   25  N1  UNL     1     -45.268 -51.058  -5.955  1.00  0.00    -0.341 N 
ATOM     26  H1  UNL     1     -44.282 -50.969  -5.709  1.00  0.00     0.163 HD
HETATM   27  O1  UNL     1     -46.823 -51.655  -7.495  1.00  0.00    -0.273 OA
BRANCH  25  28
HETATM   28  C6  UNL     1     -46.264 -50.646  -4.980  1.00  0.00     0.129 A 
HETATM   29  C4  UNL     1     -46.096 -49.172  -4.628  1.00  0.00     0.050 A 
HETATM   30  C5  UNL     1     -47.296 -49.688  -5.330  1.00  0.00     0.054 A 
BRANCH  29  31
HETATM   31  C3  UNL     1     -46.131 -48.833  -3.196  1.00  0.00    -0.023 C 
HETATM   32  C2  UNL     1     -47.030 -48.026  -2.668  1.00  0.00    -0.034 C 
HETATM   33  C1  UNL     1     -47.006 -47.732  -1.226  1.00  0.00     0.036 C 
ENDBRANCH  29  31
BRANCH  28  34
HETATM   34  C25 UNL     1     -46.494 -51.563  -3.825  1.00  0.00     0.203 C 
HETATM   35  O5  UNL     1     -45.542 -52.264  -3.423  1.00  0.00    -0.646 OA
HETATM   36  O6  UNL     1     -47.691 -51.699  -3.159  1.00  0.00    -0.646 OA
ENDBRANCH  28  34
ENDBRANCH  25  28
ENDBRANCH   1  24
TORSDOF 7
ENDMDL
MODEL 3
REMARK VINA RESULT: -8.168398241      2.145      3.155
REMARK  7 active torsions:
REMARK  status: ('A' for Active; 'I' for Inactive)
REMARK    1  A    between atoms: C3_3  and  C4_4 
REMARK    2  A    between atoms: C6_6  and  N1_7 
REMARK    3  A    between atoms: C6_6  and  C25_34 
REMARK       I    between atoms: N1_7  and  C7_9 
REMARK    4  A    between atoms: C7_9  and  C8_11 
REMARK    5  A    between atoms: C13_16  and  C14_17 
REMARK       I    between atoms: C14_17  and  N2_19 
REMARK    6  A    between atoms: C19_24  and  C20_25 
REMARK       I    between atoms: C20_25  and  N3_27 
REMARK    7  A    between atoms: C24_31  and  O4_32 
ROOT
HETATM    1  C8  UNL     1     -44.511 -47.838  -6.685  1.00  0.00     0.091 C 
HETATM    2  C9  UNL     1     -43.723 -47.582  -5.405  1.00  0.00     0.015 C 
HETATM    3  C10 UNL     1     -42.270 -47.307  -5.702  1.00  0.00     0.001 C 
HETATM    4  C11 UNL     1     -41.571 -48.373  -6.477  1.00  0.00     0.001 C 
HETATM    5  C12 UNL     1     -42.594 -49.105  -7.375  1.00  0.00     0.015 C 
HETATM    6  C13 UNL     1     -43.573 -48.065  -7.815  1.00  0.00     0.091 C 
ENDROOT
BRANCH   6   7
HETATM    7  C14 UNL     1     -44.188 -48.229  -9.120  1.00  0.00     0.225 C 
HETATM    8  O2  UNL     1     -45.401 -47.842  -9.256  1.00  0.00    -0.273 OA
HETATM    9  N2  UNL     1     -43.571 -48.778 -10.259  1.00  0.00    -0.338 N 
HETATM   10  C15 UNL     1     -44.391 -48.923 -11.483  1.00  0.00     0.127 C 
HETATM   11  C19 UNL     1     -42.210 -49.201 -10.391  1.00  0.00     0.179 C 
HETATM   12  C16 UNL     1     -44.544 -50.452 -11.591  1.00  0.00     0.020 C 
HETATM   13  C17 UNL     1     -43.206 -51.067 -11.813  1.00  0.00     0.004 C 
HETATM   14  C18 UNL     1     -42.068 -50.528 -11.040  1.00  0.00     0.035 C 
BRANCH  11  15
HETATM   15  C20 UNL     1     -41.368 -48.150 -11.066  1.00  0.00     0.244 C 
HETATM   16  O3  UNL     1     -40.706 -48.521 -12.069  1.00  0.00    -0.271 OA
HETATM   17  N3  UNL     1     -41.294 -46.820 -10.641  1.00  0.00    -0.324 N 
HETATM   18  C21 UNL     1     -41.940 -46.099  -9.567  1.00  0.00     0.129 C 
HETATM   19  C24 UNL     1     -40.445 -45.794 -11.272  1.00  0.00     0.222 C 
HETATM   20  C22 UNL     1     -40.723 -45.464  -8.893  1.00  0.00     0.024 C 
HETATM   21  C23 UNL     1     -39.747 -45.233 -10.036  1.00  0.00     0.055 C 
BRANCH  19  22
HETATM   22  O4  UNL     1     -41.242 -44.783 -11.774  1.00  0.00    -0.377 OA
ATOM     23  H4  UNL     1     -40.859 -43.941 -11.555  1.00  0.00     0.212 HD
ENDBRANCH  19  22
ENDBRANCH  11  15
ENDBRANCH   6   7
BRANCH   1  24
HETATM   24  C7  UNL     1     -45.373 -49.001  -6.409  1.00  0.00     0.223 C 
HETATM   25  N1  UNL     1     -46.039 -49.060  -5.124  1.00  0.00    -0.341 N 
ATOM     26  H1  UNL     1     -45.895 -48.293  -4.468  1.00  0.00     0.163 HD
HETATM   27  O1  UNL     1     -45.606 -49.962  -7.161  1.00  0.00    -0.273 OA
BRANCH  25  28
HETATM   28  C6  UNL     1     -46.903 -50.159  -4.724  1.00  0.00     0.129 A 
HETATM   29  C4  UNL     1     -47.749 -49.768  -3.518  1.00  0.00     0.050 A 
HETATM   30  C5  UNL     1     -48.345 -50.055  -4.845  1.00  0.00     0.054 A 
BRANCH  29  31
HETATM   31  C3  UNL     1     -47.814 -50.745  -2.419  1.00  0.00    -0.023 C 
HETATM   32  C2  UNL     1     -48.518 -50.549  -1.321  1.00  0.00    -0.034 C 
HETATM   33  C1  UNL     1     -48.538 -51.571  -0.262  1.00  0.00     0.036 C 
ENDBRANCH  29  31
BRANCH  28  34
HETATM   34  C25 UNL     1     -46.282 -51.515  -4.663  1.00  0.00     0.203 C 
HETATM   35  O5  UNL     1     -45.198 -51.647  -4.057  1.00  0.00    -0.646 OA
HETATM   36  O6  UNL     1     -46.817 -52.649  -5.232  1.00  0.00    -0.646 OA
ENDBRANCH  28  34
ENDBRANCH  25  28
ENDBRANCH   1  24
TORSDOF 7
ENDMDL
MODEL 4
REMARK VINA RESULT: -8.147376711      2.213      4.569
REMARK  7 active torsions:
REMARK  status: ('A' for Active; 'I' for Inactive)
REMARK    1  A    between atoms: C3_3  and  C4_4 
REMARK    2  A    between atoms: C6_6  and  N1_7 
REMARK    3  A    between atoms: C6_6  and  C25_34 
REMARK       I    between atoms: N1_7  and  C7_9 
REMARK    4  A    between atoms: C7_9  and  C8_11 
REMARK    5  A    between atoms: C13_16  and  C14_17 
REMARK       I    between atoms: C14_17  and  N2_19 
REMARK    6  A    between atoms: C19_24  and  C20_25 
REMARK       I    between atoms: C20_25  and  N3_27 
REMARK    7  A    between atoms: C24_31  and  O4_32 
ROOT
HETATM    1  C8  UNL     1     -44.322 -51.847  -8.165  1.00  0.00     0.091 C 
HETATM    2  C9  UNL     1     -44.810 -52.877  -9.177  1.00  0.00     0.015 C 
HETATM    3  C10 UNL     1     -44.359 -52.530 -10.575  1.00  0.00     0.001 C 
HETATM    4  C11 UNL     1     -44.766 -51.176 -11.051  1.00  0.00     0.001 C 
HETATM    5  C12 UNL     1     -44.895 -50.226  -9.840  1.00  0.00     0.015 C 
HETATM    6  C13 UNL     1     -43.829 -50.639  -8.877  1.00  0.00     0.091 C 
ENDROOT
BRANCH   6   7
HETATM    7  C14 UNL     1     -43.244 -49.608  -8.037  1.00  0.00     0.225 C 
HETATM    8  O2  UNL     1     -42.723 -49.975  -6.927  1.00  0.00    -0.273 OA
HETATM    9  N2  UNL     1     -43.198 -48.233  -8.332  1.00  0.00    -0.338 N 
HETATM   10  C15 UNL     1     -42.617 -47.331  -7.311  1.00  0.00     0.127 C 
HETATM   11  C19 UNL     1     -43.629 -47.587  -9.534  1.00  0.00     0.179 C 
HETATM   12  C16 UNL     1     -43.855 -46.553  -6.825  1.00  0.00     0.020 C 
HETATM   13  C17 UNL     1     -44.403 -45.746  -7.950  1.00  0.00     0.004 C 
HETATM   14  C18 UNL     1     -44.449 -46.375  -9.286  1.00  0.00     0.035 C 
BRANCH  11  15
HETATM   15  C20 UNL     1     -42.472 -47.307 -10.457  1.00  0.00     0.244 C 
HETATM   16  O3  UNL     1     -42.213 -48.188 -11.315  1.00  0.00    -0.271 OA
HETATM   17  N3  UNL     1     -41.697 -46.144 -10.404  1.00  0.00    -0.324 N 
HETATM   18  C21 UNL     1     -41.761 -44.964  -9.569  1.00  0.00     0.129 C 
HETATM   19  C24 UNL     1     -40.541 -45.877 -11.277  1.00  0.00     0.222 C 
HETATM   20  C22 UNL     1     -40.314 -44.900  -9.077  1.00  0.00     0.024 C 
HETATM   21  C23 UNL     1     -39.506 -45.476 -10.229  1.00  0.00     0.055 C 
BRANCH  19  22
HETATM   22  O4  UNL     1     -40.791 -44.754 -12.041  1.00  0.00    -0.377 OA
ATOM     23  H4  UNL     1     -40.864 -45.003 -12.955  1.00  0.00     0.212 HD
ENDBRANCH  19  22
ENDBRANCH  11  15
ENDBRANCH   6   7
BRANCH   1  24
HETATM   24  C7  UNL     1     -45.468 -51.566  -7.281  1.00  0.00     0.223 C 
HETATM   25  N1  UNL     1     -45.203 -50.905  -6.020  1.00  0.00    -0.341 N 
ATOM     26  H1  UNL     1     -44.241 -50.650  -5.799  1.00  0.00     0.163 HD
HETATM   27  O1  UNL     1     -46.663 -51.834  -7.488  1.00  0.00    -0.273 OA
BRANCH  25  28
HETATM   28  C6  UNL     1     -46.242 -50.587  -5.053  1.00  0.00     0.129 A 
HETATM   29  C4  UNL     1     -46.174 -49.116  -4.655  1.00  0.00     0.050 A 
HETATM   30  C5  UNL     1     -47.326 -49.685  -5.396  1.00  0.00     0.054 A 
BRANCH  29  31
HETATM   31  C3  UNL     1     -46.256 -48.825  -3.215  1.00  0.00    -0.023 C 
HETATM   32  C2  UNL     1     -47.119 -47.971  -2.701  1.00  0.00    -0.034 C 
HETATM   33  C1  UNL     1     -47.147 -47.728  -1.249  1.00  0.00     0.036 C 
ENDBRANCH  29  31
BRANCH  28  34
HETATM   34  C25 UNL     1     -46.435 -51.551  -3.931  1.00  0.00     0.203 C 
HETATM   35  O5  UNL     1     -45.447 -52.201  -3.528  1.00  0.00    -0.646 OA
HETATM   36  O6  UNL     1     -47.635 -51.786  -3.298  1.00  0.00    -0.646 OA
ENDBRANCH  28  34
ENDBRANCH  25  28
ENDBRANCH   1  24
TORSDOF 7
ENDMDL
MODEL 5
REMARK VINA RESULT: -8.076639884      2.017      4.288
REMARK  7 active torsions:
REMARK  status: ('A' for Active; 'I' for Inactive)
REMARK    1  A    between atoms: C3_3  and  C4_4 
REMARK    2  A    between atoms: C6_6  and  N1_7 
REMARK    3  A    between atoms: C6_6  and  C25_34 
REMARK       I    between atoms: N1_7  and  C7_9 
REMARK    4  A    between atoms: C7_9  and  C8_11 
REMARK    5  A    between atoms: C13_16  and  C14_17 
REMARK       I    between atoms: C14_17  and  N2_19 
REMARK    6  A    between atoms: C19_24  and  C20_25 
REMARK       I    between atoms: C20_25  and  N3_27 
REMARK    7  A    between atoms: C24_31  and  O4_32 
ROOT
HETATM    1  C8  UNL     1     -44.359 -52.028  -8.804  1.00  0.00     0.091 C 
HETATM    2  C9  UNL     1     -44.753 -52.999  -9.912  1.00  0.00     0.015 C 
HETATM    3  C10 UNL     1     -44.149 -52.595 -11.235  1.00  0.00     0.001 C 
HETATM    4  C11 UNL     1     -44.481 -51.212 -11.684  1.00  0.00     0.001 C 
HETATM    5  C12 UNL     1     -44.724 -50.318 -10.448  1.00  0.00     0.015 C 
HETATM    6  C13 UNL     1     -43.773 -50.799  -9.399  1.00  0.00     0.091 C 
ENDROOT
BRANCH   6   7
HETATM    7  C14 UNL     1     -43.265 -49.822  -8.452  1.00  0.00     0.225 C 
HETATM    8  O2  UNL     1     -42.854 -50.254  -7.319  1.00  0.00    -0.273 OA
HETATM    9  N2  UNL     1     -43.183 -48.433  -8.665  1.00  0.00    -0.338 N 
HETATM   10  C15 UNL     1     -42.697 -47.595  -7.546  1.00  0.00     0.127 C 
HETATM   11  C19 UNL     1     -43.494 -47.718  -9.865  1.00  0.00     0.179 C 
HETATM   12  C16 UNL     1     -43.971 -46.831  -7.137  1.00  0.00     0.020 C 
HETATM   13  C17 UNL     1     -44.404 -45.957  -8.262  1.00  0.00     0.004 C 
HETATM   14  C18 UNL     1     -44.327 -46.512  -9.629  1.00  0.00     0.035 C 
BRANCH  11  15
HETATM   15  C20 UNL     1     -42.253 -47.401 -10.657  1.00  0.00     0.244 C 
HETATM   16  O3  UNL     1     -41.853 -48.289 -11.452  1.00  0.00    -0.271 OA
HETATM   17  N3  UNL     1     -41.549 -46.197 -10.552  1.00  0.00    -0.324 N 
HETATM   18  C21 UNL     1     -41.767 -45.002  -9.769  1.00  0.00     0.129 C 
HETATM   19  C24 UNL     1     -40.313 -45.892 -11.295  1.00  0.00     0.222 C 
HETATM   20  C22 UNL     1     -40.393 -44.848  -9.116  1.00  0.00     0.024 C 
HETATM   21  C23 UNL     1     -39.428 -45.411 -10.149  1.00  0.00     0.055 C 
BRANCH  19  22
HETATM   22  O4  UNL     1     -40.529 -44.804 -12.118  1.00  0.00    -0.377 OA
ATOM     23  H4  UNL     1     -39.989 -44.885 -12.897  1.00  0.00     0.212 HD
ENDBRANCH  19  22
ENDBRANCH  11  15
ENDBRANCH   6   7
BRANCH   1  24
HETATM   24  C7  UNL     1     -45.588 -51.766  -8.034  1.00  0.00     0.223 C 
HETATM   25  N1  UNL     1     -45.458 -51.537  -6.610  1.00  0.00    -0.341 N 
ATOM     26  H1  UNL     1     -44.524 -51.556  -6.199  1.00  0.00     0.163 HD
HETATM   27  O1  UNL     1     -46.752 -51.715  -8.465  1.00  0.00    -0.273 OA
BRANCH  25  28
HETATM   28  C6  UNL     1     -46.592 -51.283  -5.736  1.00  0.00     0.129 A 
HETATM   29  C4  UNL     1     -46.121 -50.808  -4.366  1.00  0.00     0.050 A 
HETATM   30  C5  UNL     1     -46.896 -49.938  -5.284  1.00  0.00     0.054 A 
BRANCH  29  31
HETATM   31  C3  UNL     1     -46.750 -51.448  -3.200  1.00  0.00    -0.023 C 
HETATM   32  C2  UNL     1     -47.462 -50.783  -2.310  1.00  0.00    -0.034 C 
HETATM   33  C1  UNL     1     -48.065 -51.488  -1.167  1.00  0.00     0.036 C 
ENDBRANCH  29  31
BRANCH  28  34
HETATM   34  C25 UNL     1     -47.676 -52.309  -5.725  1.00  0.00     0.203 C 
HETATM   35  O5  UNL     1     -48.861 -51.924  -5.818  1.00  0.00    -0.646 OA
HETATM   36  O6  UNL     1     -47.471 -53.666  -5.618  1.00  0.00    -0.646 OA
ENDBRANCH  28  34
ENDBRANCH  25  28
ENDBRANCH   1  24
TORSDOF 7
ENDMDL
