MODEL 1
REMARK VINA RESULT: -7.339602814      0.000      0.000
REMARK  8 active torsions:
REMARK  status: ('A' for Active; 'I' for Inactive)
REMARK       I    between atoms: C2_2  and  N1_4 
REMARK    1  A    between atoms: N1_4  and  S1_6 
REMARK    2  A    between atoms: S1_6  and  N2_9 
REMARK    3  A    between atoms: N2_9  and  C3_11 
REMARK    4  A    between atoms: C3_11  and  O6_23 
REMARK    5  A    between atoms: N3_12  and  N4_14 
REMARK    6  A    between atoms: O6_23  and  C7_24 
REMARK    7  A    between atoms: C7_24  and  C9_26 
REMARK    8  A    between atoms: C9_26  and  O7_30 
ROOT
HETATM    1  C3  UNL     1      26.886  45.925  46.391  1.00  0.00     0.250 C 
HETATM    2  N3  UNL     1      26.851  44.726  46.894  1.00  0.00    -0.263 N 
ATOM      3  H3  UNL     1      26.980  44.556  47.891  1.00  0.00     0.190 HD
ENDROOT
BRANCH   1   4
HETATM    4  N2  UNL     1      26.707  46.161  45.004  1.00  0.00    -0.231 N 
ATOM      5  H2  UNL     1      27.523  46.344  44.420  1.00  0.00     0.184 HD
BRANCH   4   6
HETATM    6  S1  UNL     1      25.153  46.145  44.291  1.00  0.00     0.328 S 
HETATM    7  O2  UNL     1      24.560  47.529  44.271  1.00  0.00    -0.182 OA
HETATM    8  O3  UNL     1      24.215  45.197  45.004  1.00  0.00    -0.182 OA
BRANCH   6   9
HETATM    9  N1  UNL     1      25.354  45.668  42.634  1.00  0.00    -0.237 N 
HETATM   10  C2  UNL     1      26.266  44.634  42.283  1.00  0.00     0.228 C 
HETATM   11  C1  UNL     1      26.386  44.283  40.848  1.00  0.00     0.118 C 
HETATM   12  O1  UNL     1      26.929  44.062  43.171  1.00  0.00    -0.273 OA
ATOM     13  H1  UNL     1      24.813  46.133  41.906  1.00  0.00     0.183 HD
ENDBRANCH   6   9
ENDBRANCH   4   6
ENDBRANCH   1   4
BRANCH   1  14
HETATM   14  O6  UNL     1      27.105  46.952  47.261  1.00  0.00    -0.307 OA
BRANCH  14  15
HETATM   15  C7  UNL     1      26.859  46.978  48.625  1.00  0.00     0.202 C 
HETATM   16  C8  UNL     1      27.903  46.336  49.497  1.00  0.00     0.049 C 
BRANCH  15  17
HETATM   17  C9  UNL     1      26.518  48.303  49.160  1.00  0.00     0.139 C 
HETATM   18  N6  UNL     1      26.604  48.706  50.358  1.00  0.00    -0.382 N 
ATOM     19  H62 UNL     1      26.951  48.025  51.034  1.00  0.00     0.158 HD
ATOM     20  H61 UNL     1      26.368  49.626  50.730  1.00  0.00     0.158 HD
BRANCH  17  21
HETATM   21  O7  UNL     1      26.038  49.244  48.225  1.00  0.00    -0.348 OA
ATOM     22  H7  UNL     1      26.442  50.104  48.251  1.00  0.00     0.219 HD
ENDBRANCH  17  21
ENDBRANCH  15  17
ENDBRANCH  14  15
ENDBRANCH   1  14
BRANCH   2  23
HETATM   23  N4  UNL     1      26.629  43.692  46.000  1.00  0.00    -0.284 N 
HETATM   24  C4  UNL     1      26.947  42.462  46.178  1.00  0.00     0.125 C 
HETATM   25  C5  UNL     1      26.748  41.305  45.286  1.00  0.00     0.258 C 
HETATM   26  N5  UNL     1      27.584  41.969  47.345  1.00  0.00    -0.289 N 
HETATM   27  O4  UNL     1      27.766  40.411  45.681  1.00  0.00    -0.296 OA
HETATM   28  C6  UNL     1      28.082  40.684  46.986  1.00  0.00     0.366 C 
HETATM   29  O5  UNL     1      28.718  39.916  47.763  1.00  0.00    -0.238 OA
ATOM     30  H5  UNL     1      27.668  42.435  48.249  1.00  0.00     0.172 HD
ATOM     31  H4  UNL     1      26.171  43.930  45.120  1.00  0.00     0.188 HD
ENDBRANCH   2  23
TORSDOF 8
ENDMDL
MODEL 2
REMARK VINA RESULT: -7.335291651      1.712      1.881
REMARK  8 active torsions:
REMARK  status: ('A' for Active; 'I' for Inactive)
REMARK       I    between atoms: C2_2  and  N1_4 
REMARK    1  A    between atoms: N1_4  and  S1_6 
REMARK    2  A    between atoms: S1_6  and  N2_9 
REMARK    3  A    between atoms: N2_9  and  C3_11 
REMARK    4  A    between atoms: C3_11  and  O6_23 
REMARK    5  A    between atoms: N3_12  and  N4_14 
REMARK    6  A    between atoms: O6_23  and  C7_24 
REMARK    7  A    between atoms: C7_24  and  C9_26 
REMARK    8  A    between atoms: C9_26  and  O7_30 
ROOT
HETATM    1  C3  UNL     1      26.437  46.056  46.226  1.00  0.00     0.250 C 
HETATM    2  N3  UNL     1      25.285  45.519  46.502  1.00  0.00    -0.263 N 
ATOM      3  H3  UNL     1      24.791  45.722  47.371  1.00  0.00     0.190 HD
ENDROOT
BRANCH   1   4
HETATM    4  N2  UNL     1      27.124  45.775  45.018  1.00  0.00    -0.231 N 
ATOM      5  H2  UNL     1      27.929  45.149  45.036  1.00  0.00     0.184 HD
BRANCH   4   6
HETATM    6  S1  UNL     1      26.632  46.462  43.531  1.00  0.00     0.328 S 
HETATM    7  O2  UNL     1      26.932  47.938  43.500  1.00  0.00    -0.182 OA
HETATM    8  O3  UNL     1      25.160  46.234  43.265  1.00  0.00    -0.182 OA
BRANCH   6   9
HETATM    9  N1  UNL     1      27.595  45.734  42.285  1.00  0.00    -0.237 N 
HETATM   10  C2  UNL     1      27.675  44.319  42.165  1.00  0.00     0.228 C 
HETATM   11  C1  UNL     1      28.519  43.769  41.077  1.00  0.00     0.118 C 
HETATM   12  O1  UNL     1      27.048  43.591  42.960  1.00  0.00    -0.273 OA
ATOM     13  H1  UNL     1      28.108  46.326  41.632  1.00  0.00     0.183 HD
ENDBRANCH   6   9
ENDBRANCH   4   6
ENDBRANCH   1   4
BRANCH   1  14
HETATM   14  O6  UNL     1      26.960  46.906  47.155  1.00  0.00    -0.307 OA
BRANCH  14  15
HETATM   15  C7  UNL     1      26.744  46.906  48.525  1.00  0.00     0.202 C 
HETATM   16  C8  UNL     1      27.755  46.160  49.352  1.00  0.00     0.049 C 
BRANCH  15  17
HETATM   17  C9  UNL     1      26.514  48.234  49.108  1.00  0.00     0.139 C 
HETATM   18  N6  UNL     1      26.663  48.593  50.314  1.00  0.00    -0.382 N 
ATOM     19  H62 UNL     1      26.979  47.868  50.959  1.00  0.00     0.158 HD
ATOM     20  H61 UNL     1      26.503  49.515  50.719  1.00  0.00     0.158 HD
BRANCH  17  21
HETATM   21  O7  UNL     1      26.076  49.236  48.215  1.00  0.00    -0.348 OA
ATOM     22  H7  UNL     1      25.966  50.104  48.584  1.00  0.00     0.219 HD
ENDBRANCH  17  21
ENDBRANCH  15  17
ENDBRANCH  14  15
ENDBRANCH   1  14
BRANCH   2  23
HETATM   23  N4  UNL     1      24.766  44.658  45.550  1.00  0.00    -0.284 N 
HETATM   24  C4  UNL     1      24.755  43.377  45.620  1.00  0.00     0.125 C 
HETATM   25  C5  UNL     1      24.227  42.391  44.660  1.00  0.00     0.258 C 
HETATM   26  N5  UNL     1      25.284  42.638  46.710  1.00  0.00    -0.289 N 
HETATM   27  O4  UNL     1      24.987  41.234  44.930  1.00  0.00    -0.296 OA
HETATM   28  C6  UNL     1      25.412  41.303  46.231  1.00  0.00     0.366 C 
HETATM   29  O5  UNL     1      25.852  40.334  46.913  1.00  0.00    -0.238 OA
ATOM     30  H5  UNL     1      25.520  42.988  47.638  1.00  0.00     0.172 HD
ATOM     31  H4  UNL     1      24.354  45.080  44.717  1.00  0.00     0.188 HD
ENDBRANCH   2  23
TORSDOF 8
ENDMDL
MODEL 3
REMARK VINA RESULT: -7.323529668      2.138      5.136
REMARK  8 active torsions:
REMARK  status: ('A' for Active; 'I' for Inactive)
REMARK       I    between atoms: C2_2  and  N1_4 
REMARK    1  A    between atoms: N1_4  and  S1_6 
REMARK    2  A    between atoms: S1_6  and  N2_9 
REMARK    3  A    between atoms: N2_9  and  C3_11 
REMARK    4  A    between atoms: C3_11  and  O6_23 
REMARK    5  A    between atoms: N3_12  and  N4_14 
REMARK    6  A    between atoms: O6_23  and  C7_24 
REMARK    7  A    between atoms: C7_24  and  C9_26 
REMARK    8  A    between atoms: C9_26  and  O7_30 
ROOT
HETATM    1  C3  UNL     1      25.863  44.060  46.041  1.00  0.00     0.250 C 
HETATM    2  N3  UNL     1      26.882  43.354  46.436  1.00  0.00    -0.263 N 
ATOM      3  H3  UNL     1      27.226  42.558  45.900  1.00  0.00     0.190 HD
ENDROOT
BRANCH   1   4
HETATM    4  N2  UNL     1      25.384  45.166  46.787  1.00  0.00    -0.231 N 
ATOM      5  H2  UNL     1      24.883  45.000  47.660  1.00  0.00     0.184 HD
BRANCH   4   6
HETATM    6  S1  UNL     1      25.629  46.773  46.255  1.00  0.00     0.328 S 
HETATM    7  O2  UNL     1      24.481  47.230  45.392  1.00  0.00    -0.182 OA
HETATM    8  O3  UNL     1      26.929  46.924  45.498  1.00  0.00    -0.182 OA
BRANCH   6   9
HETATM    9  N1  UNL     1      25.625  47.786  47.664  1.00  0.00    -0.237 N 
HETATM   10  C2  UNL     1      26.507  47.523  48.748  1.00  0.00     0.228 C 
HETATM   11  C1  UNL     1      26.445  48.430  49.919  1.00  0.00     0.118 C 
HETATM   12  O1  UNL     1      27.293  46.557  48.690  1.00  0.00    -0.273 OA
ATOM     13  H1  UNL     1      24.985  48.578  47.714  1.00  0.00     0.183 HD
ENDBRANCH   6   9
ENDBRANCH   4   6
ENDBRANCH   1   4
BRANCH   1  14
HETATM   14  O6  UNL     1      25.271  43.686  44.871  1.00  0.00    -0.307 OA
BRANCH  14  15
HETATM   15  C7  UNL     1      25.841  43.638  43.607  1.00  0.00     0.202 C 
HETATM   16  C8  UNL     1      25.112  42.810  42.585  1.00  0.00     0.049 C 
BRANCH  15  17
HETATM   17  C9  UNL     1      26.168  44.950  43.034  1.00  0.00     0.139 C 
HETATM   18  N6  UNL     1      27.315  45.421  42.768  1.00  0.00    -0.382 N 
ATOM     19  H62 UNL     1      28.106  44.814  42.979  1.00  0.00     0.158 HD
ATOM     20  H61 UNL     1      27.542  46.332  42.370  1.00  0.00     0.158 HD
BRANCH  17  21
HETATM   21  O7  UNL     1      25.073  45.791  42.742  1.00  0.00    -0.348 OA
ATOM     22  H7  UNL     1      25.093  46.656  43.135  1.00  0.00     0.219 HD
ENDBRANCH  17  21
ENDBRANCH  15  17
ENDBRANCH  14  15
ENDBRANCH   1  14
BRANCH   2  23
HETATM   23  N4  UNL     1      27.474  43.744  47.626  1.00  0.00    -0.284 N 
HETATM   24  C4  UNL     1      28.388  43.102  48.256  1.00  0.00     0.125 C 
HETATM   25  C5  UNL     1      29.068  43.442  49.520  1.00  0.00     0.258 C 
HETATM   26  N5  UNL     1      28.943  41.873  47.816  1.00  0.00    -0.289 N 
HETATM   27  O4  UNL     1      29.478  42.187  50.017  1.00  0.00    -0.296 OA
HETATM   28  C6  UNL     1      29.615  41.337  48.951  1.00  0.00     0.366 C 
HETATM   29  O5  UNL     1      30.243  40.239  48.962  1.00  0.00    -0.238 OA
ATOM     30  H5  UNL     1      28.875  41.462  46.885  1.00  0.00     0.172 HD
ATOM     31  H4  UNL     1      27.153  44.620  48.039  1.00  0.00     0.188 HD
ENDBRANCH   2  23
TORSDOF 8
ENDMDL
MODEL 4
REMARK VINA RESULT: -7.313042192      0.970      1.250
REMARK  8 active torsions:
REMARK  status: ('A' for Active; 'I' for Inactive)
REMARK       I    between atoms: C2_2  and  N1_4 
REMARK    1  A    between atoms: N1_4  and  S1_6 
REMARK    2  A    between atoms: S1_6  and  N2_9 
REMARK    3  A    between atoms: N2_9  and  C3_11 
REMARK    4  A    between atoms: C3_11  and  O6_23 
REMARK    5  A    between atoms: N3_12  and  N4_14 
REMARK    6  A    between atoms: O6_23  and  C7_24 
REMARK    7  A    between atoms: C7_24  and  C9_26 
REMARK    8  A    between atoms: C9_26  and  O7_30 
ROOT
HETATM    1  C3  UNL     1      26.841  46.317  46.268  1.00  0.00     0.250 C 
HETATM    2  N3  UNL     1      26.955  45.238  46.984  1.00  0.00    -0.263 N 
ATOM      3  H3  UNL     1      27.151  45.273  47.984  1.00  0.00     0.190 HD
ENDROOT
BRANCH   1   4
HETATM    4  N2  UNL     1      26.569  46.268  44.877  1.00  0.00    -0.231 N 
ATOM      5  H2  UNL     1      27.331  46.409  44.214  1.00  0.00     0.184 HD
BRANCH   4   6
HETATM    6  S1  UNL     1      24.990  45.976  44.288  1.00  0.00     0.328 S 
HETATM    7  O2  UNL     1      24.220  47.265  44.165  1.00  0.00    -0.182 OA
HETATM    8  O3  UNL     1      24.230  45.008  45.167  1.00  0.00    -0.182 OA
BRANCH   6   9
HETATM    9  N1  UNL     1      25.152  45.339  42.681  1.00  0.00    -0.237 N 
HETATM   10  C2  UNL     1      26.093  44.311  42.400  1.00  0.00     0.228 C 
HETATM   11  C1  UNL     1      26.177  43.819  41.005  1.00  0.00     0.118 C 
HETATM   12  O1  UNL     1      26.811  43.859  43.314  1.00  0.00    -0.273 OA
ATOM     13  H1  UNL     1      24.566  45.706  41.932  1.00  0.00     0.183 HD
ENDBRANCH   6   9
ENDBRANCH   4   6
ENDBRANCH   1   4
BRANCH   1  14
HETATM   14  O6  UNL     1      26.997  47.507  46.916  1.00  0.00    -0.307 OA
BRANCH  14  15
HETATM   15  C7  UNL     1      26.200  48.039  47.918  1.00  0.00     0.202 C 
HETATM   16  C8  UNL     1      24.752  47.634  47.895  1.00  0.00     0.049 C 
BRANCH  15  17
HETATM   17  C9  UNL     1      26.735  47.877  49.276  1.00  0.00     0.139 C 
HETATM   18  N6  UNL     1      26.601  48.656  50.266  1.00  0.00    -0.382 N 
ATOM     19  H62 UNL     1      26.055  49.501  50.097  1.00  0.00     0.158 HD
ATOM     20  H61 UNL     1      26.973  48.544  51.209  1.00  0.00     0.158 HD
BRANCH  17  21
HETATM   21  O7  UNL     1      27.491  46.708  49.509  1.00  0.00    -0.348 OA
ATOM     22  H7  UNL     1      27.544  46.417  50.411  1.00  0.00     0.219 HD
ENDBRANCH  17  21
ENDBRANCH  15  17
ENDBRANCH  14  15
ENDBRANCH   1  14
BRANCH   2  23
HETATM   23  N4  UNL     1      26.795  44.036  46.313  1.00  0.00    -0.284 N 
HETATM   24  C4  UNL     1      27.289  42.907  46.666  1.00  0.00     0.125 C 
HETATM   25  C5  UNL     1      27.169  41.589  46.016  1.00  0.00     0.258 C 
HETATM   26  N5  UNL     1      28.087  42.716  47.823  1.00  0.00    -0.289 N 
HETATM   27  O4  UNL     1      28.328  40.908  46.445  1.00  0.00    -0.296 OA
HETATM   28  C6  UNL     1      28.718  41.453  47.640  1.00  0.00     0.366 C 
HETATM   29  O5  UNL     1      29.518  40.922  48.463  1.00  0.00    -0.238 OA
ATOM     30  H5  UNL     1      28.188  43.349  48.617  1.00  0.00     0.172 HD
ATOM     31  H4  UNL     1      26.233  44.052  45.462  1.00  0.00     0.188 HD
ENDBRANCH   2  23
TORSDOF 8
ENDMDL
MODEL 5
REMARK VINA RESULT: -7.238955231      1.803      4.520
REMARK  8 active torsions:
REMARK  status: ('A' for Active; 'I' for Inactive)
REMARK       I    between atoms: C2_2  and  N1_4 
REMARK    1  A    between atoms: N1_4  and  S1_6 
REMARK    2  A    between atoms: S1_6  and  N2_9 
REMARK    3  A    between atoms: N2_9  and  C3_11 
REMARK    4  A    between atoms: C3_11  and  O6_23 
REMARK    5  A    between atoms: N3_12  and  N4_14 
REMARK    6  A    between atoms: O6_23  and  C7_24 
REMARK    7  A    between atoms: C7_24  and  C9_26 
REMARK    8  A    between atoms: C9_26  and  O7_30 
ROOT
HETATM    1  C3  UNL     1      26.587  46.272  45.983  1.00  0.00     0.250 C 
HETATM    2  N3  UNL     1      26.178  46.826  44.880  1.00  0.00    -0.263 N 
ATOM      3  H3  UNL     1      26.147  47.839  44.766  1.00  0.00     0.190 HD
ENDROOT
BRANCH   1   4
HETATM    4  N2  UNL     1      26.631  44.864  46.142  1.00  0.00    -0.231 N 
ATOM      5  H2  UNL     1      27.521  44.378  46.035  1.00  0.00     0.184 HD
BRANCH   4   6
HETATM    6  S1  UNL     1      25.224  43.963  46.508  1.00  0.00     0.328 S 
HETATM    7  O2  UNL     1      24.111  44.299  45.551  1.00  0.00    -0.182 OA
HETATM    8  O3  UNL     1      24.762  44.194  47.930  1.00  0.00    -0.182 OA
BRANCH   6   9
HETATM    9  N1  UNL     1      25.607  42.289  46.258  1.00  0.00    -0.237 N 
HETATM   10  C2  UNL     1      26.792  41.727  46.807  1.00  0.00     0.228 C 
HETATM   11  C1  UNL     1      27.053  40.290  46.549  1.00  0.00     0.118 C 
HETATM   12  O1  UNL     1      27.566  42.439  47.477  1.00  0.00    -0.273 OA
ATOM     13  H1  UNL     1      24.975  41.704  45.712  1.00  0.00     0.183 HD
ENDBRANCH   6   9
ENDBRANCH   4   6
ENDBRANCH   1   4
BRANCH   1  14
HETATM   14  O6  UNL     1      26.974  47.109  46.988  1.00  0.00    -0.307 OA
BRANCH  14  15
HETATM   15  C7  UNL     1      26.690  47.002  48.341  1.00  0.00     0.202 C 
HETATM   16  C8  UNL     1      27.616  46.129  49.142  1.00  0.00     0.049 C 
BRANCH  15  17
HETATM   17  C9  UNL     1      26.506  48.286  49.030  1.00  0.00     0.139 C 
HETATM   18  N6  UNL     1      26.644  48.536  50.265  1.00  0.00    -0.382 N 
ATOM     19  H62 UNL     1      26.915  47.747  50.851  1.00  0.00     0.158 HD
ATOM     20  H61 UNL     1      26.515  49.427  50.743  1.00  0.00     0.158 HD
BRANCH  17  21
HETATM   21  O7  UNL     1      26.130  49.378  48.218  1.00  0.00    -0.348 OA
ATOM     22  H7  UNL     1      26.133  50.231  48.636  1.00  0.00     0.219 HD
ENDBRANCH  17  21
ENDBRANCH  15  17
ENDBRANCH  14  15
ENDBRANCH   1  14
BRANCH   2  23
HETATM   23  N4  UNL     1      25.788  45.965  43.868  1.00  0.00    -0.284 N 
HETATM   24  C4  UNL     1      26.476  45.668  42.827  1.00  0.00     0.125 C 
HETATM   25  C5  UNL     1      26.140  44.767  41.709  1.00  0.00     0.258 C 
HETATM   26  N5  UNL     1      27.767  46.187  42.553  1.00  0.00    -0.289 N 
HETATM   27  O4  UNL     1      26.912  45.271  40.641  1.00  0.00    -0.296 OA
HETATM   28  C6  UNL     1      27.997  45.916  41.175  1.00  0.00     0.366 C 
HETATM   29  O5  UNL     1      29.049  46.228  40.546  1.00  0.00    -0.238 OA
ATOM     30  H5  UNL     1      28.397  46.655  43.206  1.00  0.00     0.172 HD
ATOM     31  H4  UNL     1      24.872  45.527  43.959  1.00  0.00     0.188 HD
ENDBRANCH   2  23
TORSDOF 8
ENDMDL
