MODEL 1
REMARK VINA RESULT: -7.640166855      0.000      0.000
REMARK  7 active torsions:
REMARK  status: ('A' for Active; 'I' for Inactive)
REMARK    1  A    between atoms: C2_9  and  N5_10 
REMARK    2  A    between atoms: N5_10  and  N6_12 
REMARK    3  A    between atoms: C3_14  and  C4_15 
REMARK    4  A    between atoms: C4_15  and  C5_17 
REMARK    5  A    between atoms: C6_19  and  N7_20 
REMARK    6  A    between atoms: N7_20  and  C7_22 
REMARK    7  A    between atoms: C12_32  and  O2_33 
ROOT
HETATM    1  C5  UNL     1      25.706  46.016  45.542  1.00  0.00     0.110 A 
HETATM    2  S1  UNL     1      26.886  44.802  45.884  1.00  0.00    -0.046 SA
HETATM    3  C6  UNL     1      27.066  45.097  47.557  1.00  0.00     0.147 A 
HETATM    4  N9  UNL     1      26.223  46.100  47.770  1.00  0.00    -0.316 N 
ATOM      5  H9  UNL     1      26.116  46.495  48.705  1.00  0.00     0.170 HD
HETATM    6  C12 UNL     1      25.530  46.575  46.767  1.00  0.00     0.163 A 
ENDROOT
BRANCH   1   7
HETATM    7  C4  UNL     1      25.132  46.263  44.224  1.00  0.00     0.210 C 
HETATM    8  O1  UNL     1      24.131  47.067  44.118  1.00  0.00    -0.285 OA
BRANCH   7   9
HETATM    9  C3  UNL     1      25.619  45.658  43.022  1.00  0.00     0.164 C 
HETATM   10  N6  UNL     1      24.782  45.026  42.258  1.00  0.00    -0.294 N 
ATOM     11  H6  UNL     1      23.798  44.971  42.522  1.00  0.00     0.186 HD
BRANCH  10  12
HETATM   12  N5  UNL     1      25.209  44.430  41.096  1.00  0.00    -0.129 N 
ATOM     13  H5  UNL     1      26.189  44.159  41.006  1.00  0.00     0.205 HD
BRANCH  12  14
HETATM   14  C2  UNL     1      24.402  44.205  40.116  1.00  0.00     0.730 A 
HETATM   15  N1  UNL     1      24.115  43.033  39.561  1.00  0.00    -0.110 N 
HETATM   16  C1  UNL     1      24.628  41.715  39.910  1.00  0.00     0.199 C 
HETATM   17  N2  UNL     1      23.237  43.208  38.571  1.00  0.00    -0.211 N 
HETATM   18  N3  UNL     1      22.983  44.500  38.519  1.00  0.00    -0.213 N 
ATOM     19  H2  UNL     1      22.840  42.484  37.973  1.00  0.00     0.210 HD
HETATM   20  N4  UNL     1      23.669  45.133  39.437  1.00  0.00    -0.114 N 
ATOM     21  H3  UNL     1      22.344  44.942  37.858  1.00  0.00     0.210 HD
ATOM     22  H4  UNL     1      23.657  46.138  39.612  1.00  0.00     0.207 HD
ENDBRANCH  12  14
ENDBRANCH  10  12
ENDBRANCH   7   9
ENDBRANCH   1   7
BRANCH   6  23
HETATM   23  O2  UNL     1      24.598  47.655  46.903  1.00  0.00    -0.345 OA
ATOM     24  H2  UNL     1      23.678  47.450  47.023  1.00  0.00     0.219 HD
ENDBRANCH   6  23
BRANCH   3  25
HETATM   25  N7  UNL     1      27.843  44.493  48.435  1.00  0.00    -0.366 N 
ATOM     26  H7  UNL     1      28.495  43.758  48.162  1.00  0.00     0.162 HD
BRANCH  25  27
HETATM   27  C7  UNL     1      27.717  44.932  49.805  1.00  0.00     0.086 C 
HETATM   28  C8  UNL     1      28.667  46.090  50.020  1.00  0.00     0.052 C 
HETATM   29  C9  UNL     1      30.033  45.602  50.462  1.00  0.00     0.234 C 
HETATM   30  N8  UNL     1      30.349  44.340  49.835  1.00  0.00    -0.075 N 
HETATM   31  C10 UNL     1      29.472  43.274  50.197  1.00  0.00     0.234 C 
ATOM     32  H82 UNL     1      30.385  44.445  48.821  1.00  0.00     0.277 HD
ATOM     33  H81 UNL     1      31.319  44.083  50.017  1.00  0.00     0.277 HD
HETATM   34  C11 UNL     1      28.136  43.770  50.698  1.00  0.00     0.052 C 
ENDBRANCH  25  27
ENDBRANCH   3  25
TORSDOF 7
ENDMDL
MODEL 2
REMARK VINA RESULT: -7.602461325      2.581      8.881
REMARK  7 active torsions:
REMARK  status: ('A' for Active; 'I' for Inactive)
REMARK    1  A    between atoms: C2_9  and  N5_10 
REMARK    2  A    between atoms: N5_10  and  N6_12 
REMARK    3  A    between atoms: C3_14  and  C4_15 
REMARK    4  A    between atoms: C4_15  and  C5_17 
REMARK    5  A    between atoms: C6_19  and  N7_20 
REMARK    6  A    between atoms: N7_20  and  C7_22 
REMARK    7  A    between atoms: C12_32  and  O2_33 
ROOT
HETATM    1  C5  UNL     1      26.524  45.427  42.945  1.00  0.00     0.110 A 
HETATM    2  S1  UNL     1      25.244  44.278  43.092  1.00  0.00    -0.046 SA
HETATM    3  C6  UNL     1      25.569  43.364  41.687  1.00  0.00     0.147 A 
HETATM    4  N9  UNL     1      26.631  43.977  41.178  1.00  0.00    -0.316 N 
ATOM      5  H9  UNL     1      27.058  43.640  40.315  1.00  0.00     0.170 HD
HETATM    6  C12 UNL     1      27.126  45.017  41.799  1.00  0.00     0.163 A 
ENDROOT
BRANCH   1   7
HETATM    7  C4  UNL     1      26.777  46.510  43.890  1.00  0.00     0.210 C 
HETATM    8  O1  UNL     1      27.266  47.619  43.456  1.00  0.00    -0.285 OA
BRANCH   7   9
HETATM    9  C3  UNL     1      26.512  46.414  45.294  1.00  0.00     0.164 C 
HETATM   10  N6  UNL     1      25.366  46.826  45.742  1.00  0.00    -0.294 N 
ATOM     11  H6  UNL     1      24.677  47.209  45.094  1.00  0.00     0.186 HD
BRANCH  10  12
HETATM   12  N5  UNL     1      25.072  46.752  47.082  1.00  0.00    -0.129 N 
ATOM     13  H5  UNL     1      24.203  46.307  47.377  1.00  0.00     0.205 HD
BRANCH  12  14
HETATM   14  C2  UNL     1      25.869  47.230  47.976  1.00  0.00     0.730 A 
HETATM   15  N1  UNL     1      26.745  46.560  48.715  1.00  0.00    -0.110 N 
HETATM   16  C1  UNL     1      27.032  45.132  48.710  1.00  0.00     0.199 C 
HETATM   17  N2  UNL     1      27.384  47.404  49.528  1.00  0.00    -0.211 N 
HETATM   18  N3  UNL     1      26.896  48.603  49.284  1.00  0.00    -0.213 N 
ATOM     19  H2  UNL     1      28.109  47.167  50.205  1.00  0.00     0.210 HD
HETATM   20  N4  UNL     1      25.978  48.536  48.352  1.00  0.00    -0.114 N 
ATOM     21  H3  UNL     1      27.190  49.459  49.753  1.00  0.00     0.210 HD
ATOM     22  H4  UNL     1      25.443  49.319  47.976  1.00  0.00     0.207 HD
ENDBRANCH  12  14
ENDBRANCH  10  12
ENDBRANCH   7   9
ENDBRANCH   1   7
BRANCH   6  23
HETATM   23  O2  UNL     1      28.269  45.740  41.325  1.00  0.00    -0.345 OA
ATOM     24  H2  UNL     1      28.460  45.732  40.394  1.00  0.00     0.219 HD
ENDBRANCH   6  23
BRANCH   3  25
HETATM   25  N7  UNL     1      24.936  42.312  41.207  1.00  0.00    -0.366 N 
ATOM     26  H7  UNL     1      24.701  41.510  41.793  1.00  0.00     0.162 HD
BRANCH  25  27
HETATM   27  C7  UNL     1      24.595  42.357  39.804  1.00  0.00     0.086 C 
HETATM   28  C8  UNL     1      23.499  43.384  39.618  1.00  0.00     0.052 C 
HETATM   29  C9  UNL     1      22.127  42.754  39.774  1.00  0.00     0.234 C 
HETATM   30  N8  UNL     1      22.160  41.707  40.767  1.00  0.00    -0.075 N 
HETATM   31  C10 UNL     1      23.005  40.607  40.428  1.00  0.00     0.234 C 
ATOM     32  H82 UNL     1      22.418  42.087  41.678  1.00  0.00     0.277 HD
ATOM     33  H81 UNL     1      21.216  41.382  40.976  1.00  0.00     0.277 HD
HETATM   34  C11 UNL     1      24.063  40.983  39.418  1.00  0.00     0.052 C 
ENDBRANCH  25  27
ENDBRANCH   3  25
TORSDOF 7
ENDMDL
MODEL 3
REMARK VINA RESULT: -7.575669602      2.565      8.800
REMARK  7 active torsions:
REMARK  status: ('A' for Active; 'I' for Inactive)
REMARK    1  A    between atoms: C2_9  and  N5_10 
REMARK    2  A    between atoms: N5_10  and  N6_12 
REMARK    3  A    between atoms: C3_14  and  C4_15 
REMARK    4  A    between atoms: C4_15  and  C5_17 
REMARK    5  A    between atoms: C6_19  and  N7_20 
REMARK    6  A    between atoms: N7_20  and  C7_22 
REMARK    7  A    between atoms: C12_32  and  O2_33 
ROOT
HETATM    1  C5  UNL     1      26.764  45.635  42.730  1.00  0.00     0.110 A 
HETATM    2  S1  UNL     1      25.531  44.427  42.678  1.00  0.00    -0.046 SA
HETATM    3  C6  UNL     1      25.973  43.685  41.204  1.00  0.00     0.147 A 
HETATM    4  N9  UNL     1      27.034  44.390  40.828  1.00  0.00    -0.316 N 
ATOM      5  H9  UNL     1      27.521  44.166  39.960  1.00  0.00     0.170 HD
HETATM    6  C12 UNL     1      27.446  45.375  41.583  1.00  0.00     0.163 A 
ENDROOT
BRANCH   1   7
HETATM    7  C4  UNL     1      26.917  46.617  43.798  1.00  0.00     0.210 C 
HETATM    8  O1  UNL     1      27.287  47.814  43.500  1.00  0.00    -0.285 OA
BRANCH   7   9
HETATM    9  C3  UNL     1      26.676  46.328  45.179  1.00  0.00     0.164 C 
HETATM   10  N6  UNL     1      25.607  46.804  45.739  1.00  0.00    -0.294 N 
ATOM     11  H6  UNL     1      24.959  47.372  45.192  1.00  0.00     0.186 HD
BRANCH  10  12
HETATM   12  N5  UNL     1      25.340  46.551  47.063  1.00  0.00    -0.129 N 
ATOM     13  H5  UNL     1      24.595  45.896  47.304  1.00  0.00     0.205 HD
BRANCH  12  14
HETATM   14  C2  UNL     1      26.007  47.120  48.008  1.00  0.00     0.730 A 
HETATM   15  N1  UNL     1      26.907  46.561  48.807  1.00  0.00    -0.110 N 
HETATM   16  C1  UNL     1      27.372  45.180  48.826  1.00  0.00     0.199 C 
HETATM   17  N2  UNL     1      27.378  47.474  49.660  1.00  0.00    -0.211 N 
HETATM   18  N3  UNL     1      26.761  48.603  49.380  1.00  0.00    -0.213 N 
ATOM     19  H2  UNL     1      28.080  47.326  50.385  1.00  0.00     0.210 HD
HETATM   20  N4  UNL     1      25.925  48.427  48.387  1.00  0.00    -0.114 N 
ATOM     21  H3  UNL     1      26.912  49.487  49.866  1.00  0.00     0.210 HD
ATOM     22  H4  UNL     1      25.322  49.139  47.973  1.00  0.00     0.207 HD
ENDBRANCH  12  14
ENDBRANCH  10  12
ENDBRANCH   7   9
ENDBRANCH   1   7
BRANCH   6  23
HETATM   23  O2  UNL     1      28.579  46.189  41.258  1.00  0.00    -0.345 OA
ATOM     24  H2  UNL     1      28.458  47.128  41.176  1.00  0.00     0.219 HD
ENDBRANCH   6  23
BRANCH   3  25
HETATM   25  N7  UNL     1      25.416  42.667  40.579  1.00  0.00    -0.366 N 
ATOM     26  H7  UNL     1      25.312  42.649  39.564  1.00  0.00     0.162 HD
BRANCH  25  27
HETATM   27  C7  UNL     1      24.962  41.578  41.412  1.00  0.00     0.086 C 
HETATM   28  C8  UNL     1      25.489  40.285  40.828  1.00  0.00     0.052 C 
HETATM   29  C9  UNL     1      24.521  39.709  39.812  1.00  0.00     0.234 C 
HETATM   30  N8  UNL     1      23.856  40.767  39.088  1.00  0.00    -0.075 N 
HETATM   31  C10 UNL     1      23.037  41.605  39.903  1.00  0.00     0.234 C 
ATOM     32  H82 UNL     1      24.534  41.325  38.570  1.00  0.00     0.277 HD
ATOM     33  H81 UNL     1      23.317  40.384  38.312  1.00  0.00     0.277 HD
HETATM   34  C11 UNL     1      23.439  41.566  41.358  1.00  0.00     0.052 C 
ENDBRANCH  25  27
ENDBRANCH   3  25
TORSDOF 7
ENDMDL
MODEL 4
REMARK VINA RESULT: -7.547013854      1.817      8.967
REMARK  7 active torsions:
REMARK  status: ('A' for Active; 'I' for Inactive)
REMARK    1  A    between atoms: C2_9  and  N5_10 
REMARK    2  A    between atoms: N5_10  and  N6_12 
REMARK    3  A    between atoms: C3_14  and  C4_15 
REMARK    4  A    between atoms: C4_15  and  C5_17 
REMARK    5  A    between atoms: C6_19  and  N7_20 
REMARK    6  A    between atoms: N7_20  and  C7_22 
REMARK    7  A    between atoms: C12_32  and  O2_33 
ROOT
HETATM    1  C5  UNL     1      25.186  45.794  45.273  1.00  0.00     0.110 A 
HETATM    2  S1  UNL     1      25.314  44.108  44.929  1.00  0.00    -0.046 SA
HETATM    3  C6  UNL     1      25.203  44.193  43.226  1.00  0.00     0.147 A 
HETATM    4  N9  UNL     1      25.075  45.496  43.006  1.00  0.00    -0.316 N 
ATOM      5  H9  UNL     1      24.987  45.853  42.055  1.00  0.00     0.170 HD
HETATM    6  C12 UNL     1      25.064  46.318  44.025  1.00  0.00     0.163 A 
ENDROOT
BRANCH   1   7
HETATM    7  C4  UNL     1      25.217  46.371  46.614  1.00  0.00     0.210 C 
HETATM    8  O1  UNL     1      24.776  47.567  46.792  1.00  0.00    -0.285 OA
BRANCH   7   9
HETATM    9  C3  UNL     1      25.718  45.677  47.761  1.00  0.00     0.164 C 
HETATM   10  N6  UNL     1      26.988  45.735  48.021  1.00  0.00    -0.294 N 
ATOM     11  H6  UNL     1      27.605  46.269  47.410  1.00  0.00     0.186 HD
BRANCH  10  12
HETATM   12  N5  UNL     1      27.508  45.082  49.113  1.00  0.00    -0.129 N 
ATOM     13  H5  UNL     1      27.149  44.160  49.360  1.00  0.00     0.205 HD
BRANCH  12  14
HETATM   14  C2  UNL     1      28.439  45.608  49.833  1.00  0.00     0.730 A 
HETATM   15  N1  UNL     1      29.498  44.996  50.352  1.00  0.00    -0.110 N 
HETATM   16  C1  UNL     1      29.879  43.593  50.244  1.00  0.00     0.199 C 
HETATM   17  N2  UNL     1      30.233  45.875  51.036  1.00  0.00    -0.211 N 
HETATM   18  N3  UNL     1      29.620  47.036  50.936  1.00  0.00    -0.213 N 
ATOM     19  H2  UNL     1      31.100  45.684  51.538  1.00  0.00     0.210 HD
HETATM   20  N4  UNL     1      28.533  46.913  50.216  1.00  0.00    -0.114 N 
ATOM     21  H3  UNL     1      29.945  47.906  51.358  1.00  0.00     0.210 HD
ATOM     22  H4  UNL     1      27.876  47.658  49.984  1.00  0.00     0.207 HD
ENDBRANCH  12  14
ENDBRANCH  10  12
ENDBRANCH   7   9
ENDBRANCH   1   7
BRANCH   6  23
HETATM   23  O2  UNL     1      24.931  47.737  43.884  1.00  0.00    -0.345 OA
ATOM     24  H2  UNL     1      24.832  48.101  43.013  1.00  0.00     0.219 HD
ENDBRANCH   6  23
BRANCH   3  25
HETATM   25  N7  UNL     1      25.234  43.222  42.335  1.00  0.00    -0.366 N 
ATOM     26  H7  UNL     1      25.142  42.242  42.602  1.00  0.00     0.162 HD
BRANCH  25  27
HETATM   27  C7  UNL     1      25.405  43.626  40.958  1.00  0.00     0.086 C 
HETATM   28  C8  UNL     1      24.169  43.215  40.189  1.00  0.00     0.052 C 
HETATM   29  C9  UNL     1      24.311  41.810  39.634  1.00  0.00     0.234 C 
HETATM   30  N8  UNL     1      25.070  40.982  40.541  1.00  0.00    -0.075 N 
HETATM   31  C10 UNL     1      26.417  41.411  40.734  1.00  0.00     0.234 C 
ATOM     32  H82 UNL     1      24.589  40.900  41.437  1.00  0.00     0.277 HD
ATOM     33  H81 UNL     1      25.044  40.007  40.242  1.00  0.00     0.277 HD
HETATM   34  C11 UNL     1      26.610  42.873  40.407  1.00  0.00     0.052 C 
ENDBRANCH  25  27
ENDBRANCH   3  25
TORSDOF 7
ENDMDL
MODEL 5
REMARK VINA RESULT: -7.536273272      1.948      2.551
REMARK  7 active torsions:
REMARK  status: ('A' for Active; 'I' for Inactive)
REMARK    1  A    between atoms: C2_9  and  N5_10 
REMARK    2  A    between atoms: N5_10  and  N6_12 
REMARK    3  A    between atoms: C3_14  and  C4_15 
REMARK    4  A    between atoms: C4_15  and  C5_17 
REMARK    5  A    between atoms: C6_19  and  N7_20 
REMARK    6  A    between atoms: N7_20  and  C7_22 
REMARK    7  A    between atoms: C12_32  and  O2_33 
ROOT
HETATM    1  C5  UNL     1      26.045  44.173  45.676  1.00  0.00     0.110 A 
HETATM    2  S1  UNL     1      27.050  42.770  45.647  1.00  0.00    -0.046 SA
HETATM    3  C6  UNL     1      27.525  42.771  47.288  1.00  0.00     0.147 A 
HETATM    4  N9  UNL     1      26.896  43.835  47.773  1.00  0.00    -0.316 N 
ATOM      5  H9  UNL     1      26.995  44.090  48.756  1.00  0.00     0.170 HD
HETATM    6  C12 UNL     1      26.146  44.553  46.976  1.00  0.00     0.163 A 
ENDROOT
BRANCH   1   7
HETATM    7  C4  UNL     1      25.326  44.701  44.520  1.00  0.00     0.210 C 
HETATM    8  O1  UNL     1      24.309  45.467  44.711  1.00  0.00    -0.285 OA
BRANCH   7   9
HETATM    9  C3  UNL     1      25.688  44.414  43.165  1.00  0.00     0.164 C 
HETATM   10  N6  UNL     1      25.079  45.046  42.210  1.00  0.00    -0.294 N 
ATOM     11  H6  UNL     1      24.359  45.732  42.435  1.00  0.00     0.186 HD
BRANCH  10  12
HETATM   12  N5  UNL     1      25.397  44.799  40.896  1.00  0.00    -0.129 N 
ATOM     13  H5  UNL     1      26.369  44.874  40.595  1.00  0.00     0.205 HD
BRANCH  12  14
HETATM   14  C2  UNL     1      24.495  44.475  40.033  1.00  0.00     0.730 A 
HETATM   15  N1  UNL     1      24.178  43.254  39.620  1.00  0.00    -0.110 N 
HETATM   16  C1  UNL     1      24.755  41.979  40.028  1.00  0.00     0.199 C 
HETATM   17  N2  UNL     1      23.195  43.326  38.719  1.00  0.00    -0.211 N 
HETATM   18  N3  UNL     1      22.907  44.603  38.579  1.00  0.00    -0.213 N 
ATOM     19  H2  UNL     1      22.754  42.544  38.235  1.00  0.00     0.210 HD
HETATM   20  N4  UNL     1      23.673  45.327  39.357  1.00  0.00    -0.114 N 
ATOM     21  H3  UNL     1      22.192  44.975  37.955  1.00  0.00     0.210 HD
ATOM     22  H4  UNL     1      23.656  46.343  39.442  1.00  0.00     0.207 HD
ENDBRANCH  12  14
ENDBRANCH  10  12
ENDBRANCH   7   9
ENDBRANCH   1   7
BRANCH   6  23
HETATM   23  O2  UNL     1      25.431  45.716  47.411  1.00  0.00    -0.345 OA
ATOM     24  H2  UNL     1      24.494  45.756  47.263  1.00  0.00     0.219 HD
ENDBRANCH   6  23
BRANCH   3  25
HETATM   25  N7  UNL     1      28.316  41.937  47.932  1.00  0.00    -0.366 N 
ATOM     26  H7  UNL     1      27.963  41.304  48.650  1.00  0.00     0.162 HD
BRANCH  25  27
HETATM   27  C7  UNL     1      29.712  41.968  47.562  1.00  0.00     0.086 C 
HETATM   28  C8  UNL     1      30.242  40.551  47.596  1.00  0.00     0.052 C 
HETATM   29  C9  UNL     1      30.772  40.197  48.972  1.00  0.00     0.234 C 
HETATM   30  N8  UNL     1      29.988  40.842  49.999  1.00  0.00    -0.075 N 
HETATM   31  C10 UNL     1      30.046  42.268  49.967  1.00  0.00     0.234 C 
ATOM     32  H82 UNL     1      29.020  40.524  49.962  1.00  0.00     0.277 HD
ATOM     33  H81 UNL     1      30.250  40.494  50.921  1.00  0.00     0.277 HD
HETATM   34  C11 UNL     1      30.444  42.799  48.610  1.00  0.00     0.052 C 
ENDBRANCH  25  27
ENDBRANCH   3  25
TORSDOF 7
ENDMDL
