MODEL 1
REMARK VINA RESULT: -8.979975409      0.000      0.000
REMARK  4 active torsions:
REMARK  status: ('A' for Active; 'I' for Inactive)
REMARK    1  A    between atoms: N3_8  and  C4_10 
REMARK    2  A    between atoms: C8_14  and  N4_15 
REMARK    3  A    between atoms: C10_19  and  C11_20 
REMARK    4  A    between atoms: C11_20  and  C13_23 
ROOT
HETATM    1  C11 UNL     1      49.076 -13.309   7.757  1.00  0.00     0.104 C 
HETATM    2  C12 UNL     1      48.830 -14.417   6.830  1.00  0.00     0.104 C 
HETATM    3  N5  UNL     1      48.622 -15.323   6.121  1.00  0.00    -0.191 NA
ENDROOT
BRANCH   1   4
HETATM    4  C10 UNL     1      49.582 -12.193   7.304  1.00  0.00     0.061 A 
HETATM    5  C2  UNL     1      48.991 -10.984   7.046  1.00  0.00     0.054 A 
HETATM    6  C1  UNL     1      47.728 -10.636   7.194  1.00  0.00     0.045 C 
HETATM    7  N1  UNL     1      49.973 -10.150   6.584  1.00  0.00    -0.299 N 
HETATM    8  N2  UNL     1      51.115 -10.772   6.547  1.00  0.00    -0.284 N 
ATOM      9  H1  UNL     1      49.829  -9.179   6.308  1.00  0.00     0.187 HD
HETATM   10  C3  UNL     1      50.939 -12.025   6.975  1.00  0.00     0.134 A 
ATOM     11  H2  UNL     1      52.001 -10.368   6.240  1.00  0.00     0.188 HD
HETATM   12  N3  UNL     1      51.842 -12.948   7.080  1.00  0.00    -0.341 N 
ATOM     13  H3  UNL     1      51.589 -13.875   7.423  1.00  0.00     0.167 HD
BRANCH  12  14
HETATM   14  C4  UNL     1      53.193 -12.666   6.717  1.00  0.00     0.035 A 
HETATM   15  C5  UNL     1      54.110 -12.184   7.642  1.00  0.00     0.029 A 
HETATM   16  C6  UNL     1      55.408 -11.916   7.283  1.00  0.00     0.005 A 
HETATM   17  C7  UNL     1      55.840 -12.115   6.001  1.00  0.00     0.036 A 
HETATM   18  C8  UNL     1      54.957 -12.596   5.038  1.00  0.00     0.105 A 
HETATM   19  C9  UNL     1      53.661 -12.855   5.434  1.00  0.00     0.065 A 
BRANCH  18  20
HETATM   20  N4  UNL     1      55.358 -12.816   3.702  1.00  0.00    -0.116 N 
HETATM   21  O1  UNL     1      56.275 -13.606   3.447  1.00  0.00    -0.532 OA
HETATM   22  O2  UNL     1      54.728 -12.155   2.692  1.00  0.00    -0.532 OA
ENDBRANCH  18  20
ENDBRANCH  12  14
ENDBRANCH   1   4
BRANCH   1  23
HETATM   23  C13 UNL     1      48.699 -13.630   9.114  1.00  0.00     0.128 A 
HETATM   24  N6  UNL     1      48.282 -12.762  10.076  1.00  0.00    -0.339 N 
HETATM   25  C14 UNL     1      48.068 -13.436  11.213  1.00  0.00     0.060 A 
ATOM     26  H6  UNL     1      48.152 -11.758   9.951  1.00  0.00     0.167 HD
HETATM   27  C15 UNL     1      47.643 -13.017  12.461  1.00  0.00     0.032 A 
HETATM   28  C19 UNL     1      48.348 -14.759  10.996  1.00  0.00     0.060 A 
HETATM   29  C16 UNL     1      47.485 -13.889  13.517  1.00  0.00     0.002 A 
HETATM   30  C17 UNL     1      47.769 -15.236  13.301  1.00  0.00     0.002 A 
HETATM   31  C18 UNL     1      48.190 -15.631  12.052  1.00  0.00     0.032 A 
HETATM   32  N7  UNL     1      48.731 -14.861   9.714  1.00  0.00    -0.339 N 
ATOM     33  H7  UNL     1      49.006 -15.728   9.253  1.00  0.00     0.167 HD
ENDBRANCH   1  23
TORSDOF 4
ENDMDL
MODEL 2
REMARK VINA RESULT: -8.965273365      0.074      1.067
REMARK  4 active torsions:
REMARK  status: ('A' for Active; 'I' for Inactive)
REMARK    1  A    between atoms: N3_8  and  C4_10 
REMARK    2  A    between atoms: C8_14  and  N4_15 
REMARK    3  A    between atoms: C10_19  and  C11_20 
REMARK    4  A    between atoms: C11_20  and  C13_23 
ROOT
HETATM    1  C11 UNL     1      49.114 -13.322   7.825  1.00  0.00     0.104 C 
HETATM    2  C12 UNL     1      48.834 -14.436   6.916  1.00  0.00     0.104 C 
HETATM    3  N5  UNL     1      48.599 -15.347   6.221  1.00  0.00    -0.191 NA
ENDROOT
BRANCH   1   4
HETATM    4  C10 UNL     1      49.609 -12.212   7.347  1.00  0.00     0.061 A 
HETATM    5  C2  UNL     1      49.007 -11.013   7.066  1.00  0.00     0.054 A 
HETATM    6  C1  UNL     1      47.743 -10.672   7.213  1.00  0.00     0.045 C 
HETATM    7  N1  UNL     1      49.980 -10.181   6.582  1.00  0.00    -0.299 N 
HETATM    8  N2  UNL     1      51.128 -10.794   6.552  1.00  0.00    -0.284 N 
ATOM      9  H1  UNL     1      49.828  -9.217   6.287  1.00  0.00     0.187 HD
HETATM   10  C3  UNL     1      50.964 -12.040   7.008  1.00  0.00     0.134 A 
ATOM     11  H2  UNL     1      52.009 -10.390   6.233  1.00  0.00     0.188 HD
HETATM   12  N3  UNL     1      51.874 -12.953   7.128  1.00  0.00    -0.341 N 
ATOM     13  H3  UNL     1      51.629 -13.875   7.490  1.00  0.00     0.167 HD
BRANCH  12  14
HETATM   14  C4  UNL     1      53.221 -12.669   6.751  1.00  0.00     0.035 A 
HETATM   15  C5  UNL     1      54.148 -12.194   7.671  1.00  0.00     0.029 A 
HETATM   16  C6  UNL     1      55.442 -11.923   7.300  1.00  0.00     0.005 A 
HETATM   17  C7  UNL     1      55.860 -12.111   6.012  1.00  0.00     0.036 A 
HETATM   18  C8  UNL     1      54.967 -12.585   5.055  1.00  0.00     0.105 A 
HETATM   19  C9  UNL     1      53.675 -12.847   5.462  1.00  0.00     0.065 A 
BRANCH  18  20
HETATM   20  N4  UNL     1      55.354 -12.795   3.712  1.00  0.00    -0.116 N 
HETATM   21  O1  UNL     1      56.323 -13.515   3.448  1.00  0.00    -0.532 OA
HETATM   22  O2  UNL     1      54.651 -12.200   2.709  1.00  0.00    -0.532 OA
ENDBRANCH  18  20
ENDBRANCH  12  14
ENDBRANCH   1   4
BRANCH   1  23
HETATM   23  C13 UNL     1      48.780 -13.630   9.196  1.00  0.00     0.128 A 
HETATM   24  N6  UNL     1      48.795 -14.857   9.788  1.00  0.00    -0.339 N 
HETATM   25  C14 UNL     1      48.381 -14.738  11.055  1.00  0.00     0.060 A 
ATOM     26  H6  UNL     1      49.077 -15.727   9.336  1.00  0.00     0.167 HD
HETATM   27  C15 UNL     1      48.222 -15.676  12.059  1.00  0.00     0.032 A 
HETATM   28  C19 UNL     1      48.092 -13.422  11.299  1.00  0.00     0.060 A 
HETATM   29  C16 UNL     1      47.775 -15.339  13.319  1.00  0.00     0.002 A 
HETATM   30  C17 UNL     1      47.478 -14.001  13.572  1.00  0.00     0.002 A 
HETATM   31  C18 UNL     1      47.645 -13.084  12.559  1.00  0.00     0.032 A 
HETATM   32  N7  UNL     1      48.339 -12.761  10.157  1.00  0.00    -0.339 N 
ATOM     33  H7  UNL     1      48.216 -11.757  10.025  1.00  0.00     0.167 HD
ENDBRANCH   1  23
TORSDOF 4
ENDMDL
MODEL 3
REMARK VINA RESULT: -8.964569542      1.751      2.237
REMARK  4 active torsions:
REMARK  status: ('A' for Active; 'I' for Inactive)
REMARK    1  A    between atoms: N3_8  and  C4_10 
REMARK    2  A    between atoms: C8_14  and  N4_15 
REMARK    3  A    between atoms: C10_19  and  C11_20 
REMARK    4  A    between atoms: C11_20  and  C13_23 
ROOT
HETATM    1  C11 UNL     1      49.108 -13.130   7.750  1.00  0.00     0.104 C 
HETATM    2  C12 UNL     1      48.898 -14.371   7.002  1.00  0.00     0.104 C 
HETATM    3  N5  UNL     1      48.717 -15.380   6.438  1.00  0.00    -0.191 NA
ENDROOT
BRANCH   1   4
HETATM    4  C10 UNL     1      49.599 -12.086   7.137  1.00  0.00     0.061 A 
HETATM    5  C2  UNL     1      49.006 -10.905   6.771  1.00  0.00     0.054 A 
HETATM    6  C1  UNL     1      47.760 -10.518   6.951  1.00  0.00     0.045 C 
HETATM    7  N1  UNL     1      49.968 -10.151   6.154  1.00  0.00    -0.299 N 
HETATM    8  N2  UNL     1      51.099 -10.794   6.123  1.00  0.00    -0.284 N 
ATOM      9  H1  UNL     1      49.819  -9.217   5.772  1.00  0.00     0.187 HD
HETATM   10  C3  UNL     1      50.935 -11.984   6.710  1.00  0.00     0.134 A 
ATOM     11  H2  UNL     1      51.969 -10.447   5.718  1.00  0.00     0.188 HD
HETATM   12  N3  UNL     1      51.832 -12.904   6.871  1.00  0.00    -0.341 N 
ATOM     13  H3  UNL     1      51.589 -13.778   7.336  1.00  0.00     0.167 HD
BRANCH  12  14
HETATM   14  C4  UNL     1      53.161 -12.693   6.395  1.00  0.00     0.035 A 
HETATM   15  C5  UNL     1      53.492 -12.873   5.058  1.00  0.00     0.029 A 
HETATM   16  C6  UNL     1      54.773 -12.668   4.610  1.00  0.00     0.005 A 
HETATM   17  C7  UNL     1      55.766 -12.281   5.466  1.00  0.00     0.036 A 
HETATM   18  C8  UNL     1      55.483 -12.088   6.816  1.00  0.00     0.105 A 
HETATM   19  C9  UNL     1      54.185 -12.303   7.232  1.00  0.00     0.065 A 
BRANCH  18  20
HETATM   20  N4  UNL     1      56.476 -11.689   7.738  1.00  0.00    -0.116 N 
HETATM   21  O1  UNL     1      56.942 -12.502   8.544  1.00  0.00    -0.532 OA
HETATM   22  O2  UNL     1      56.918 -10.401   7.734  1.00  0.00    -0.532 OA
ENDBRANCH  18  20
ENDBRANCH  12  14
ENDBRANCH   1   4
BRANCH   1  23
HETATM   23  C13 UNL     1      48.719 -13.247   9.136  1.00  0.00     0.128 A 
HETATM   24  N6  UNL     1      48.769 -14.366   9.910  1.00  0.00    -0.339 N 
HETATM   25  C14 UNL     1      48.282 -14.082  11.124  1.00  0.00     0.060 A 
ATOM     26  H6  UNL     1      49.123 -15.275   9.612  1.00  0.00     0.167 HD
HETATM   27  C15 UNL     1      48.121 -14.866  12.253  1.00  0.00     0.032 A 
HETATM   28  C19 UNL     1      47.907 -12.766  11.148  1.00  0.00     0.060 A 
HETATM   29  C16 UNL     1      47.589 -14.370  13.424  1.00  0.00     0.002 A 
HETATM   30  C17 UNL     1      47.205 -13.031  13.453  1.00  0.00     0.002 A 
HETATM   31  C18 UNL     1      47.375 -12.270  12.320  1.00  0.00     0.032 A 
HETATM   32  N7  UNL     1      48.179 -12.271   9.931  1.00  0.00    -0.339 N 
ATOM     33  H7  UNL     1      48.008 -11.309   9.639  1.00  0.00     0.167 HD
ENDBRANCH   1  23
TORSDOF 4
ENDMDL
MODEL 4
REMARK VINA RESULT: -8.852441103      3.912      7.909
REMARK  4 active torsions:
REMARK  status: ('A' for Active; 'I' for Inactive)
REMARK    1  A    between atoms: N3_8  and  C4_10 
REMARK    2  A    between atoms: C8_14  and  N4_15 
REMARK    3  A    between atoms: C10_19  and  C11_20 
REMARK    4  A    between atoms: C11_20  and  C13_23 
ROOT
HETATM    1  C11 UNL     1      51.036 -12.832   6.782  1.00  0.00     0.104 C 
HETATM    2  C12 UNL     1      50.684 -11.617   6.043  1.00  0.00     0.104 C 
HETATM    3  N5  UNL     1      50.441 -10.635   5.455  1.00  0.00    -0.191 NA
ENDROOT
BRANCH   1   4
HETATM    4  C10 UNL     1      50.099 -13.689   7.091  1.00  0.00     0.061 A 
HETATM    5  C2  UNL     1      49.727 -14.861   6.485  1.00  0.00     0.054 A 
HETATM    6  C1  UNL     1      50.236 -15.431   5.411  1.00  0.00     0.045 C 
HETATM    7  N1  UNL     1      48.687 -15.374   7.212  1.00  0.00    -0.299 N 
HETATM    8  N2  UNL     1      48.407 -14.593   8.215  1.00  0.00    -0.284 N 
ATOM      9  H1  UNL     1      48.201 -16.244   6.999  1.00  0.00     0.187 HD
HETATM   10  C3  UNL     1      49.237 -13.546   8.192  1.00  0.00     0.134 A 
ATOM     11  H2  UNL     1      47.672 -14.753   8.905  1.00  0.00     0.188 HD
HETATM   12  N3  UNL     1      49.266 -12.555   9.026  1.00  0.00    -0.341 N 
ATOM     13  H3  UNL     1      49.950 -11.807   8.908  1.00  0.00     0.167 HD
BRANCH  12  14
HETATM   14  C4  UNL     1      48.340 -12.511  10.111  1.00  0.00     0.035 A 
HETATM   15  C5  UNL     1      47.359 -11.531  10.190  1.00  0.00     0.029 A 
HETATM   16  C6  UNL     1      46.472 -11.496  11.238  1.00  0.00     0.005 A 
HETATM   17  C7  UNL     1      46.527 -12.426  12.239  1.00  0.00     0.036 A 
HETATM   18  C8  UNL     1      47.494 -13.427  12.203  1.00  0.00     0.105 A 
HETATM   19  C9  UNL     1      48.368 -13.432  11.136  1.00  0.00     0.065 A 
BRANCH  18  20
HETATM   20  N4  UNL     1      47.589 -14.409  13.215  1.00  0.00    -0.116 N 
HETATM   21  O1  UNL     1      47.588 -14.079  14.406  1.00  0.00    -0.532 OA
HETATM   22  O2  UNL     1      47.682 -15.724  12.870  1.00  0.00    -0.532 OA
ENDBRANCH  18  20
ENDBRANCH  12  14
ENDBRANCH   1   4
BRANCH   1  23
HETATM   23  C13 UNL     1      52.447 -12.910   7.077  1.00  0.00     0.128 A 
HETATM   24  N6  UNL     1      53.371 -11.920   6.931  1.00  0.00    -0.339 N 
HETATM   25  C14 UNL     1      54.578 -12.393   7.269  1.00  0.00     0.060 A 
ATOM     26  H6  UNL     1      53.175 -10.970   6.616  1.00  0.00     0.167 HD
HETATM   27  C15 UNL     1      55.823 -11.792   7.292  1.00  0.00     0.032 A 
HETATM   28  C19 UNL     1      54.445 -13.705   7.640  1.00  0.00     0.060 A 
HETATM   29  C16 UNL     1      56.960 -12.469   7.679  1.00  0.00     0.002 A 
HETATM   30  C17 UNL     1      56.831 -13.804   8.057  1.00  0.00     0.002 A 
HETATM   31  C18 UNL     1      55.582 -14.381   8.027  1.00  0.00     0.032 A 
HETATM   32  N7  UNL     1      53.143 -14.004   7.517  1.00  0.00    -0.339 N 
ATOM     33  H7  UNL     1      52.731 -14.915   7.722  1.00  0.00     0.167 HD
ENDBRANCH   1  23
TORSDOF 4
ENDMDL
MODEL 5
REMARK VINA RESULT: -8.620088832      2.425      3.268
REMARK  4 active torsions:
REMARK  status: ('A' for Active; 'I' for Inactive)
REMARK    1  A    between atoms: N3_8  and  C4_10 
REMARK    2  A    between atoms: C8_14  and  N4_15 
REMARK    3  A    between atoms: C10_19  and  C11_20 
REMARK    4  A    between atoms: C11_20  and  C13_23 
ROOT
HETATM    1  C11 UNL     1      49.954 -11.545   7.799  1.00  0.00     0.104 C 
HETATM    2  C12 UNL     1      50.112 -10.091   7.719  1.00  0.00     0.104 C 
HETATM    3  N5  UNL     1      50.215  -8.926   7.688  1.00  0.00    -0.191 NA
ENDROOT
BRANCH   1   4
HETATM    4  C10 UNL     1      50.471 -12.299   6.865  1.00  0.00     0.061 A 
HETATM    5  C2  UNL     1      49.887 -12.917   5.790  1.00  0.00     0.054 A 
HETATM    6  C1  UNL     1      48.622 -12.903   5.421  1.00  0.00     0.045 C 
HETATM    7  N1  UNL     1      50.879 -13.586   5.126  1.00  0.00    -0.299 N 
HETATM    8  N2  UNL     1      52.021 -13.414   5.725  1.00  0.00    -0.284 N 
ATOM      9  H1  UNL     1      50.742 -14.141   4.282  1.00  0.00     0.187 HD
HETATM   10  C3  UNL     1      51.835 -12.636   6.796  1.00  0.00     0.134 A 
ATOM     11  H2  UNL     1      52.914 -13.810   5.427  1.00  0.00     0.188 HD
HETATM   12  N3  UNL     1      52.734 -12.244   7.641  1.00  0.00    -0.341 N 
ATOM     13  H3  UNL     1      52.473 -11.647   8.426  1.00  0.00     0.167 HD
BRANCH  12  14
HETATM   14  C4  UNL     1      54.093 -12.649   7.474  1.00  0.00     0.035 A 
HETATM   15  C5  UNL     1      54.938 -12.006   6.578  1.00  0.00     0.029 A 
HETATM   16  C6  UNL     1      56.243 -12.402   6.423  1.00  0.00     0.005 A 
HETATM   17  C7  UNL     1      56.754 -13.443   7.147  1.00  0.00     0.036 A 
HETATM   18  C8  UNL     1      55.946 -14.118   8.058  1.00  0.00     0.105 A 
HETATM   19  C9  UNL     1      54.640 -13.694   8.188  1.00  0.00     0.065 A 
BRANCH  18  20
HETATM   20  N4  UNL     1      56.430 -15.200   8.827  1.00  0.00    -0.116 N 
HETATM   21  O1  UNL     1      57.227 -15.000   9.751  1.00  0.00    -0.532 OA
HETATM   22  O2  UNL     1      56.012 -16.465   8.547  1.00  0.00    -0.532 OA
ENDBRANCH  18  20
ENDBRANCH  12  14
ENDBRANCH   1   4
BRANCH   1  23
HETATM   23  C13 UNL     1      49.209 -11.957   8.965  1.00  0.00     0.128 A 
HETATM   24  N6  UNL     1      48.399 -11.181   9.737  1.00  0.00    -0.339 N 
HETATM   25  C14 UNL     1      47.923 -11.916  10.750  1.00  0.00     0.060 A 
ATOM     26  H6  UNL     1      48.189 -10.197   9.570  1.00  0.00     0.167 HD
HETATM   27  C15 UNL     1      47.072 -11.596  11.793  1.00  0.00     0.032 A 
HETATM   28  C19 UNL     1      48.424 -13.185  10.643  1.00  0.00     0.060 A 
HETATM   29  C16 UNL     1      46.699 -12.517  12.748  1.00  0.00     0.002 A 
HETATM   30  C17 UNL     1      47.207 -13.810  12.645  1.00  0.00     0.002 A 
HETATM   31  C18 UNL     1      48.051 -14.106  11.599  1.00  0.00     0.032 A 
HETATM   32  N7  UNL     1      49.206 -13.194   9.552  1.00  0.00    -0.339 N 
ATOM     33  H7  UNL     1      49.722 -14.005   9.210  1.00  0.00     0.167 HD
ENDBRANCH   1  23
TORSDOF 4
ENDMDL
