MODEL 1
REMARK VINA RESULT: -9.476772795      0.000      0.000
REMARK  5 active torsions:
REMARK  status: ('A' for Active; 'I' for Inactive)
REMARK    1  A    between atoms: N1_1  and  C1_4 
REMARK    2  A    between atoms: N4_16  and  C9_17 
REMARK    3  A    between atoms: C9_17  and  C10_18 
REMARK    4  A    between atoms: C13_21  and  C14_22 
REMARK    5  A    between atoms: C15_23  and  C16_24 
ROOT
HETATM    1  C1  UNL     1      47.767 -12.359   7.849  1.00  0.00     0.117 A 
HETATM    2  C2  UNL     1      48.747 -12.123   6.877  1.00  0.00     0.035 A 
HETATM    3  C3  UNL     1      48.830 -12.873   5.725  1.00  0.00     0.019 A 
HETATM    4  C4  UNL     1      49.811 -12.624   4.765  1.00  0.00     0.027 A 
HETATM    5  C5  UNL     1      50.733 -11.610   4.947  1.00  0.00     0.048 A 
HETATM    6  N2  UNL     1      51.722 -11.369   3.966  1.00  0.00    -0.102 NA
HETATM    7  C6  UNL     1      50.637 -10.870   6.103  1.00  0.00     0.057 A 
HETATM    8  C7  UNL     1      49.667 -11.112   7.055  1.00  0.00     0.052 A 
HETATM    9  N3  UNL     1      49.553 -10.408   8.184  1.00  0.00    -0.307 N 
ATOM     10  H3  UNL     1      50.218  -9.652   8.351  1.00  0.00     0.170 HD
HETATM   11  C8  UNL     1      48.602 -10.644   9.121  1.00  0.00     0.329 A 
HETATM   12  O1  UNL     1      48.629  -9.894  10.131  1.00  0.00    -0.246 OA
HETATM   13  N4  UNL     1      47.675 -11.635   8.975  1.00  0.00    -0.281 N 
ENDROOT
BRANCH  13  14
HETATM   14  C9  UNL     1      46.653 -11.848   9.970  1.00  0.00     0.174 C 
BRANCH  14  15
HETATM   15  C10 UNL     1      47.006 -12.729  11.089  1.00  0.00    -0.040 A 
HETATM   16  C11 UNL     1      47.051 -12.327  12.394  1.00  0.00     0.010 A 
HETATM   17  C12 UNL     1      47.382 -13.206  13.434  1.00  0.00     0.021 A 
HETATM   18  C13 UNL     1      47.676 -14.523  13.163  1.00  0.00     0.018 A 
HETATM   19  C21 UNL     1      47.624 -14.909  11.833  1.00  0.00     0.021 A 
HETATM   20  C22 UNL     1      47.305 -14.069  10.814  1.00  0.00     0.010 A 
BRANCH  18  21
HETATM   21  C14 UNL     1      48.018 -15.438  14.212  1.00  0.00    -0.061 C 
HETATM   22  C15 UNL     1      48.323 -16.209  15.088  1.00  0.00    -0.060 C 
BRANCH  22  23
HETATM   23  C16 UNL     1      48.715 -17.135  16.138  1.00  0.00     0.033 A 
HETATM   24  C17 UNL     1      47.999 -18.274  16.390  1.00  0.00     0.023 A 
HETATM   25  C18 UNL     1      48.447 -19.108  17.421  1.00  0.00     0.019 A 
HETATM   26  C19 UNL     1      49.572 -18.792  18.155  1.00  0.00     0.087 A 
HETATM   27  N5  UNL     1      50.259 -17.667  17.889  1.00  0.00    -0.374 N 
HETATM   28  C20 UNL     1      49.841 -16.864  16.909  1.00  0.00     0.108 A 
ATOM     29  H5  UNL     1      51.090 -17.430  18.431  1.00  0.00     0.164 HD
ENDBRANCH  22  23
ENDBRANCH  18  21
ENDBRANCH  14  15
ENDBRANCH  13  14
BRANCH   1  30
HETATM   30  N1  UNL     1      46.993 -13.349   7.588  1.00  0.00    -0.384 N 
ATOM     31  H12 UNL     1      46.260 -13.664   8.223  1.00  0.00     0.157 HD
ATOM     32  H11 UNL     1      47.194 -13.815   6.703  1.00  0.00     0.157 HD
ENDBRANCH   1  30
TORSDOF 5
ENDMDL
MODEL 2
REMARK VINA RESULT: -9.389255436      0.619      1.293
REMARK  5 active torsions:
REMARK  status: ('A' for Active; 'I' for Inactive)
REMARK    1  A    between atoms: N1_1  and  C1_4 
REMARK    2  A    between atoms: N4_16  and  C9_17 
REMARK    3  A    between atoms: C9_17  and  C10_18 
REMARK    4  A    between atoms: C13_21  and  C14_22 
REMARK    5  A    between atoms: C15_23  and  C16_24 
ROOT
HETATM    1  C1  UNL     1      47.856 -12.387   7.698  1.00  0.00     0.117 A 
HETATM    2  C2  UNL     1      48.838 -12.118   6.736  1.00  0.00     0.035 A 
HETATM    3  C3  UNL     1      48.920 -12.824   5.557  1.00  0.00     0.019 A 
HETATM    4  C4  UNL     1      49.903 -12.544   4.609  1.00  0.00     0.027 A 
HETATM    5  C5  UNL     1      50.830 -11.542   4.831  1.00  0.00     0.048 A 
HETATM    6  N2  UNL     1      51.822 -11.268   3.861  1.00  0.00    -0.102 NA
HETATM    7  C6  UNL     1      50.735 -10.846   6.014  1.00  0.00     0.057 A 
HETATM    8  C7  UNL     1      49.763 -11.119   6.955  1.00  0.00     0.052 A 
HETATM    9  N3  UNL     1      49.650 -10.458   8.109  1.00  0.00    -0.307 N 
ATOM     10  H3  UNL     1      50.318  -9.712   8.305  1.00  0.00     0.170 HD
HETATM   11  C8  UNL     1      48.696 -10.725   9.035  1.00  0.00     0.329 A 
HETATM   12  O1  UNL     1      48.725 -10.015  10.073  1.00  0.00    -0.246 OA
HETATM   13  N4  UNL     1      47.764 -11.706   8.850  1.00  0.00    -0.281 N 
ENDROOT
BRANCH  13  14
HETATM   14  C9  UNL     1      46.740 -11.951   9.834  1.00  0.00     0.174 C 
BRANCH  14  15
HETATM   15  C10 UNL     1      47.055 -12.943  10.870  1.00  0.00    -0.040 A 
HETATM   16  C11 UNL     1      47.291 -14.264  10.618  1.00  0.00     0.010 A 
HETATM   17  C12 UNL     1      47.599 -15.174  11.638  1.00  0.00     0.021 A 
HETATM   18  C13 UNL     1      47.675 -14.752  12.945  1.00  0.00     0.018 A 
HETATM   19  C21 UNL     1      47.432 -13.408  13.178  1.00  0.00     0.021 A 
HETATM   20  C22 UNL     1      47.133 -12.514  12.201  1.00  0.00     0.010 A 
BRANCH  18  21
HETATM   21  C14 UNL     1      47.989 -15.667  14.004  1.00  0.00    -0.061 C 
HETATM   22  C15 UNL     1      48.272 -16.435  14.890  1.00  0.00    -0.060 C 
BRANCH  22  23
HETATM   23  C16 UNL     1      48.637 -17.354  15.955  1.00  0.00     0.033 A 
HETATM   24  C17 UNL     1      49.620 -17.049  16.857  1.00  0.00     0.023 A 
HETATM   25  C18 UNL     1      49.907 -17.994  17.849  1.00  0.00     0.019 A 
HETATM   26  C19 UNL     1      49.220 -19.189  17.915  1.00  0.00     0.087 A 
HETATM   27  N5  UNL     1      48.259 -19.467  17.017  1.00  0.00    -0.374 N 
HETATM   28  C20 UNL     1      47.976 -18.574  16.066  1.00  0.00     0.108 A 
ATOM     29  H5  UNL     1      47.751 -20.350  17.063  1.00  0.00     0.164 HD
ENDBRANCH  22  23
ENDBRANCH  18  21
ENDBRANCH  14  15
ENDBRANCH  13  14
BRANCH   1  30
HETATM   30  N1  UNL     1      47.078 -13.363   7.397  1.00  0.00    -0.384 N 
ATOM     31  H12 UNL     1      47.291 -14.038   6.663  1.00  0.00     0.157 HD
ATOM     32  H11 UNL     1      46.212 -13.388   7.936  1.00  0.00     0.157 HD
ENDBRANCH   1  30
TORSDOF 5
ENDMDL
MODEL 3
REMARK VINA RESULT: -9.030887868      1.433      2.322
REMARK  5 active torsions:
REMARK  status: ('A' for Active; 'I' for Inactive)
REMARK    1  A    between atoms: N1_1  and  C1_4 
REMARK    2  A    between atoms: N4_16  and  C9_17 
REMARK    3  A    between atoms: C9_17  and  C10_18 
REMARK    4  A    between atoms: C13_21  and  C14_22 
REMARK    5  A    between atoms: C15_23  and  C16_24 
ROOT
HETATM    1  C1  UNL     1      47.939 -11.168   9.623  1.00  0.00     0.117 A 
HETATM    2  C2  UNL     1      48.681 -11.063   8.440  1.00  0.00     0.035 A 
HETATM    3  C3  UNL     1      49.549 -10.019   8.211  1.00  0.00     0.019 A 
HETATM    4  C4  UNL     1      50.283  -9.929   7.029  1.00  0.00     0.027 A 
HETATM    5  C5  UNL     1      50.156 -10.894   6.047  1.00  0.00     0.048 A 
HETATM    6  N2  UNL     1      50.906 -10.791   4.852  1.00  0.00    -0.102 NA
HETATM    7  C6  UNL     1      49.285 -11.931   6.291  1.00  0.00     0.057 A 
HETATM    8  C7  UNL     1      48.558 -12.024   7.460  1.00  0.00     0.052 A 
HETATM    9  N3  UNL     1      47.707 -13.020   7.719  1.00  0.00    -0.307 N 
ATOM     10  H3  UNL     1      47.589 -13.750   7.016  1.00  0.00     0.170 HD
HETATM   11  C8  UNL     1      46.991 -13.114   8.867  1.00  0.00     0.329 A 
HETATM   12  O1  UNL     1      46.230 -14.111   8.959  1.00  0.00    -0.246 OA
HETATM   13  N4  UNL     1      47.090 -12.180   9.858  1.00  0.00    -0.281 N 
ENDROOT
BRANCH  13  14
HETATM   14  C9  UNL     1      46.343 -12.316  11.083  1.00  0.00     0.174 C 
BRANCH  14  15
HETATM   15  C10 UNL     1      46.850 -13.295  12.052  1.00  0.00    -0.040 A 
HETATM   16  C11 UNL     1      47.219 -14.570  11.730  1.00  0.00     0.010 A 
HETATM   17  C12 UNL     1      47.710 -15.468  12.688  1.00  0.00     0.021 A 
HETATM   18  C13 UNL     1      47.836 -15.081  14.002  1.00  0.00     0.018 A 
HETATM   19  C21 UNL     1      47.457 -13.783  14.306  1.00  0.00     0.021 A 
HETATM   20  C22 UNL     1      46.981 -12.901  13.390  1.00  0.00     0.010 A 
BRANCH  18  21
HETATM   21  C14 UNL     1      48.336 -15.984  14.997  1.00  0.00    -0.061 C 
HETATM   22  C15 UNL     1      48.772 -16.733  15.837  1.00  0.00    -0.060 C 
BRANCH  22  23
HETATM   23  C16 UNL     1      49.314 -17.618  16.855  1.00  0.00     0.033 A 
HETATM   24  C17 UNL     1      48.510 -18.470  17.563  1.00  0.00     0.023 A 
HETATM   25  C18 UNL     1      49.117 -19.286  18.525  1.00  0.00     0.019 A 
HETATM   26  C19 UNL     1      50.477 -19.232  18.749  1.00  0.00     0.087 A 
HETATM   27  N5  UNL     1      51.247 -18.387  18.041  1.00  0.00    -0.374 N 
HETATM   28  C20 UNL     1      50.680 -17.604  17.121  1.00  0.00     0.108 A 
ATOM     29  H5  UNL     1      52.253 -18.345  18.206  1.00  0.00     0.164 HD
ENDBRANCH  22  23
ENDBRANCH  18  21
ENDBRANCH  14  15
ENDBRANCH  13  14
BRANCH   1  30
HETATM   30  N1  UNL     1      48.111 -10.194  10.441  1.00  0.00    -0.384 N 
ATOM     31  H12 UNL     1      48.185 -10.322  11.450  1.00  0.00     0.157 HD
ATOM     32  H11 UNL     1      48.137  -9.275   9.998  1.00  0.00     0.157 HD
ENDBRANCH   1  30
TORSDOF 5
ENDMDL
MODEL 4
REMARK VINA RESULT: -9.001491863      1.323      1.636
REMARK  5 active torsions:
REMARK  status: ('A' for Active; 'I' for Inactive)
REMARK    1  A    between atoms: N1_1  and  C1_4 
REMARK    2  A    between atoms: N4_16  and  C9_17 
REMARK    3  A    between atoms: C9_17  and  C10_18 
REMARK    4  A    between atoms: C13_21  and  C14_22 
REMARK    5  A    between atoms: C15_23  and  C16_24 
ROOT
HETATM    1  C1  UNL     1      48.370 -11.921   7.031  1.00  0.00     0.117 A 
HETATM    2  C2  UNL     1      49.361 -11.899   6.042  1.00  0.00     0.035 A 
HETATM    3  C3  UNL     1      49.293 -12.695   4.920  1.00  0.00     0.019 A 
HETATM    4  C4  UNL     1      50.288 -12.661   3.944  1.00  0.00     0.027 A 
HETATM    5  C5  UNL     1      51.378 -11.821   4.079  1.00  0.00     0.048 A 
HETATM    6  N2  UNL     1      52.380 -11.797   3.081  1.00  0.00    -0.102 NA
HETATM    7  C6  UNL     1      51.432 -11.033   5.205  1.00  0.00     0.057 A 
HETATM    8  C7  UNL     1      50.449 -11.063   6.174  1.00  0.00     0.052 A 
HETATM    9  N3  UNL     1      50.479 -10.308   7.275  1.00  0.00    -0.307 N 
ATOM     10  H3  UNL     1      51.270  -9.676   7.406  1.00  0.00     0.170 HD
HETATM   11  C8  UNL     1      49.514 -10.335   8.228  1.00  0.00     0.329 A 
HETATM   12  O1  UNL     1      49.689  -9.565   9.207  1.00  0.00    -0.246 OA
HETATM   13  N4  UNL     1      48.424 -11.150   8.128  1.00  0.00    -0.281 N 
ENDROOT
BRANCH  13  14
HETATM   14  C9  UNL     1      47.396 -11.141   9.138  1.00  0.00     0.174 C 
BRANCH  14  15
HETATM   15  C10 UNL     1      47.482 -12.183  10.168  1.00  0.00    -0.040 A 
HETATM   16  C11 UNL     1      46.631 -12.281  11.231  1.00  0.00     0.010 A 
HETATM   17  C12 UNL     1      46.744 -13.301  12.185  1.00  0.00     0.021 A 
HETATM   18  C13 UNL     1      47.734 -14.250  12.073  1.00  0.00     0.018 A 
HETATM   19  C21 UNL     1      48.586 -14.132  10.987  1.00  0.00     0.021 A 
HETATM   20  C22 UNL     1      48.489 -13.150  10.054  1.00  0.00     0.010 A 
BRANCH  18  21
HETATM   21  C14 UNL     1      47.867 -15.302  13.038  1.00  0.00    -0.061 C 
HETATM   22  C15 UNL     1      47.970 -16.199  13.838  1.00  0.00    -0.060 C 
BRANCH  22  23
HETATM   23  C16 UNL     1      48.088 -17.296  14.784  1.00  0.00     0.033 A 
HETATM   24  C17 UNL     1      48.559 -17.098  16.054  1.00  0.00     0.023 A 
HETATM   25  C18 UNL     1      48.640 -18.211  16.898  1.00  0.00     0.019 A 
HETATM   26  C19 UNL     1      48.257 -19.464  16.464  1.00  0.00     0.087 A 
HETATM   27  N5  UNL     1      47.798 -19.635  15.211  1.00  0.00    -0.374 N 
HETATM   28  C20 UNL     1      47.716 -18.581  14.398  1.00  0.00     0.108 A 
ATOM     29  H5  UNL     1      47.515 -20.560  14.888  1.00  0.00     0.164 HD
ENDBRANCH  22  23
ENDBRANCH  18  21
ENDBRANCH  14  15
ENDBRANCH  13  14
BRANCH   1  30
HETATM   30  N1  UNL     1      47.429 -12.767   6.815  1.00  0.00    -0.384 N 
ATOM     31  H12 UNL     1      47.602 -13.746   6.591  1.00  0.00     0.157 HD
ATOM     32  H11 UNL     1      46.491 -12.368   6.857  1.00  0.00     0.157 HD
ENDBRANCH   1  30
TORSDOF 5
ENDMDL
MODEL 5
REMARK VINA RESULT: -8.711304142      2.764     10.294
REMARK  5 active torsions:
REMARK  status: ('A' for Active; 'I' for Inactive)
REMARK    1  A    between atoms: N1_1  and  C1_4 
REMARK    2  A    between atoms: N4_16  and  C9_17 
REMARK    3  A    between atoms: C9_17  and  C10_18 
REMARK    4  A    between atoms: C13_21  and  C14_22 
REMARK    5  A    between atoms: C15_23  and  C16_24 
ROOT
HETATM    1  C1  UNL     1      47.385 -12.427  10.998  1.00  0.00     0.117 A 
HETATM    2  C2  UNL     1      47.453 -13.356  12.043  1.00  0.00     0.035 A 
HETATM    3  C3  UNL     1      47.500 -12.969  13.364  1.00  0.00     0.019 A 
HETATM    4  C4  UNL     1      47.566 -13.906  14.394  1.00  0.00     0.027 A 
HETATM    5  C5  UNL     1      47.587 -15.260  14.114  1.00  0.00     0.048 A 
HETATM    6  N2  UNL     1      47.654 -16.200  15.168  1.00  0.00    -0.102 NA
HETATM    7  C6  UNL     1      47.539 -15.631  12.790  1.00  0.00     0.057 A 
HETATM    8  C7  UNL     1      47.473 -14.706  11.767  1.00  0.00     0.052 A 
HETATM    9  N3  UNL     1      47.426 -15.041  10.475  1.00  0.00    -0.307 N 
ATOM     10  H3  UNL     1      47.439 -16.033  10.233  1.00  0.00     0.170 HD
HETATM   11  C8  UNL     1      47.361 -14.135   9.468  1.00  0.00     0.329 A 
HETATM   12  O1  UNL     1      47.325 -14.610   8.304  1.00  0.00    -0.246 OA
HETATM   13  N4  UNL     1      47.338 -12.791   9.707  1.00  0.00    -0.281 N 
ENDROOT
BRANCH  13  14
HETATM   14  C9  UNL     1      47.238 -11.847   8.623  1.00  0.00     0.174 C 
BRANCH  14  15
HETATM   15  C10 UNL     1      48.336 -11.852   7.649  1.00  0.00    -0.040 A 
HETATM   16  C11 UNL     1      49.626 -11.520   7.950  1.00  0.00     0.010 A 
HETATM   17  C12 UNL     1      50.647 -11.550   6.990  1.00  0.00     0.021 A 
HETATM   18  C13 UNL     1      50.370 -11.923   5.694  1.00  0.00     0.018 A 
HETATM   19  C21 UNL     1      49.055 -12.256   5.412  1.00  0.00     0.021 A 
HETATM   20  C22 UNL     1      48.056 -12.232   6.331  1.00  0.00     0.010 A 
BRANCH  18  21
HETATM   21  C14 UNL     1      51.400 -11.960   4.697  1.00  0.00    -0.061 C 
HETATM   22  C15 UNL     1      52.274 -12.007   3.866  1.00  0.00    -0.060 C 
BRANCH  22  23
HETATM   23  C16 UNL     1      53.333 -12.085   2.874  1.00  0.00     0.033 A 
HETATM   24  C17 UNL     1      53.214 -11.479   1.652  1.00  0.00     0.023 A 
HETATM   25  C18 UNL     1      54.283 -11.608   0.758  1.00  0.00     0.019 A 
HETATM   26  C19 UNL     1      55.416 -12.319   1.098  1.00  0.00     0.087 A 
HETATM   27  N5  UNL     1      55.509 -12.906   2.304  1.00  0.00    -0.374 N 
HETATM   28  C20 UNL     1      54.497 -12.791   3.166  1.00  0.00     0.108 A 
ATOM     29  H5  UNL     1      56.345 -13.434   2.557  1.00  0.00     0.164 HD
ENDBRANCH  22  23
ENDBRANCH  18  21
ENDBRANCH  14  15
ENDBRANCH  13  14
BRANCH   1  30
HETATM   30  N1  UNL     1      47.411 -11.202  11.379  1.00  0.00    -0.384 N 
ATOM     31  H12 UNL     1      48.276 -10.675  11.497  1.00  0.00     0.157 HD
ATOM     32  H11 UNL     1      46.493 -10.808  11.584  1.00  0.00     0.157 HD
ENDBRANCH   1  30
TORSDOF 5
ENDMDL
