MODEL 1
REMARK VINA RESULT: -7.946668818      0.000      0.000
REMARK  9 active torsions:
REMARK  status: ('A' for Active; 'I' for Inactive)
REMARK    1  A    between atoms: C2_2  and  N1_3 
REMARK    2  A    between atoms: C2_2  and  C3_7 
REMARK    3  A    between atoms: C4_8  and  C5_9 
REMARK    4  A    between atoms: C6_10  and  C7_11 
REMARK    5  A    between atoms: C7_11  and  C8_12 
REMARK    6  A    between atoms: C17_21  and  C18_22 
REMARK    7  A    between atoms: C18_22  and  O1_23 
REMARK    8  A    between atoms: C21_28  and  O3_29 
REMARK    9  A    between atoms: C22_31  and  C23_32 
ROOT
HETATM    1  C8  UNL     1      58.855  39.273  16.153  1.00  0.00     0.018 C 
HETATM    2  C9  UNL     1      58.582  38.165  17.157  1.00  0.00     0.017 C 
HETATM    3  C10 UNL     1      58.456  36.928  16.313  1.00  0.00     0.026 C 
HETATM    4  C11 UNL     1      58.331  35.645  17.106  1.00  0.00    -0.024 C 
HETATM    5  C12 UNL     1      57.549  34.490  16.788  1.00  0.00    -0.025 C 
HETATM    6  C13 UNL     1      56.242  34.474  16.186  1.00  0.00     0.012 C 
HETATM    7  C14 UNL     1      55.502  33.249  15.719  1.00  0.00     0.009 C 
HETATM    8  C15 UNL     1      54.452  34.057  14.852  1.00  0.00     0.008 C 
HETATM    9  C16 UNL     1      55.272  35.071  14.073  1.00  0.00     0.021 C 
HETATM   10  C17 UNL     1      54.867  36.474  13.988  1.00  0.00     0.150 C 
HETATM   11  O2  UNL     1      55.464  37.566  14.273  1.00  0.00    -0.377 OA
HETATM   12  C19 UNL     1      56.707  38.011  14.587  1.00  0.00     0.140 C 
HETATM   13  C20 UNL     1      56.620  39.444  14.948  1.00  0.00     0.065 C 
HETATM   14  C21 UNL     1      57.674  40.058  15.746  1.00  0.00     0.125 C 
HETATM   15  C22 UNL     1      57.211  37.032  15.537  1.00  0.00     0.046 C 
HETATM   16  C24 UNL     1      57.450  35.875  14.646  1.00  0.00     0.025 C 
HETATM   17  C25 UNL     1      56.543  34.790  14.751  1.00  0.00     0.001 C 
ENDROOT
BRANCH   1  18
HETATM   18  C7  UNL     1      59.874  40.199  16.817  1.00  0.00     0.034 C 
BRANCH  18  19
HETATM   19  C6  UNL     1      61.242  39.913  16.379  1.00  0.00    -0.026 C 
HETATM   20  C5  UNL     1      61.565  39.999  15.111  1.00  0.00    -0.004 C 
BRANCH  20  21
HETATM   21  C4  UNL     1      62.923  39.718  14.653  1.00  0.00    -0.002 C 
HETATM   22  C3  UNL     1      63.399  40.337  13.597  1.00  0.00     0.005 C 
BRANCH  22  23
HETATM   23  C2  UNL     1      64.775  40.073  13.107  1.00  0.00     0.202 C 
HETATM   24  C1  UNL     1      64.688  39.402  11.759  1.00  0.00     0.044 C 
BRANCH  23  25
HETATM   25  N1  UNL     1      65.499  39.277  14.078  1.00  0.00    -0.072 N 
ATOM     26  H13 UNL     1      65.017  38.397  14.264  1.00  0.00     0.275 HD
ATOM     27  H12 UNL     1      66.363  38.909  13.680  1.00  0.00     0.275 HD
ATOM     28  H11 UNL     1      65.681  39.785  14.943  1.00  0.00     0.275 HD
ENDBRANCH  23  25
ENDBRANCH  22  23
ENDBRANCH  20  21
ENDBRANCH  18  19
ENDBRANCH   1  18
BRANCH  14  29
HETATM   29  O3  UNL     1      57.174  40.732  16.891  1.00  0.00    -0.395 OA
ATOM     30  H3  UNL     1      57.234  41.666  16.735  1.00  0.00     0.210 HD
ENDBRANCH  14  29
BRANCH  15  31
HETATM   31  C23 UNL     1      56.288  37.180  16.633  1.00  0.00     0.244 C 
HETATM   32  O4  UNL     1      55.455  38.062  16.876  1.00  0.00    -0.306 OA
ENDBRANCH  15  31
BRANCH  10  33
HETATM   33  C18 UNL     1      54.335  36.706  12.537  1.00  0.00     0.196 C 
BRANCH  33  34
HETATM   34  O1  UNL     1      53.023  37.140  12.578  1.00  0.00    -0.398 OA
ATOM     35  H1  UNL     1      52.990  38.084  12.483  1.00  0.00     0.209 HD
ENDBRANCH  33  34
ENDBRANCH  10  33
TORSDOF 9
ENDMDL
MODEL 2
REMARK VINA RESULT: -7.943762363      4.548      7.398
REMARK  9 active torsions:
REMARK  status: ('A' for Active; 'I' for Inactive)
REMARK    1  A    between atoms: C2_2  and  N1_3 
REMARK    2  A    between atoms: C2_2  and  C3_7 
REMARK    3  A    between atoms: C4_8  and  C5_9 
REMARK    4  A    between atoms: C6_10  and  C7_11 
REMARK    5  A    between atoms: C7_11  and  C8_12 
REMARK    6  A    between atoms: C17_21  and  C18_22 
REMARK    7  A    between atoms: C18_22  and  O1_23 
REMARK    8  A    between atoms: C21_28  and  O3_29 
REMARK    9  A    between atoms: C22_31  and  C23_32 
ROOT
HETATM    1  C8  UNL     1      55.227  39.462  15.791  1.00  0.00     0.018 C 
HETATM    2  C9  UNL     1      55.422  38.826  14.424  1.00  0.00     0.017 C 
HETATM    3  C10 UNL     1      55.258  37.354  14.678  1.00  0.00     0.026 C 
HETATM    4  C11 UNL     1      55.258  36.505  13.425  1.00  0.00    -0.024 C 
HETATM    5  C12 UNL     1      55.806  35.194  13.255  1.00  0.00    -0.025 C 
HETATM    6  C13 UNL     1      57.022  34.687  13.834  1.00  0.00     0.012 C 
HETATM    7  C14 UNL     1      57.502  33.262  13.768  1.00  0.00     0.009 C 
HETATM    8  C15 UNL     1      58.570  33.433  14.924  1.00  0.00     0.008 C 
HETATM    9  C16 UNL     1      57.846  34.181  16.031  1.00  0.00     0.021 C 
HETATM   10  C17 UNL     1      58.460  35.324  16.706  1.00  0.00     0.150 C 
HETATM   11  O2  UNL     1      58.081  36.529  16.886  1.00  0.00    -0.377 OA
HETATM   12  C19 UNL     1      56.965  37.290  16.749  1.00  0.00     0.140 C 
HETATM   13  C20 UNL     1      57.320  38.702  17.023  1.00  0.00     0.065 C 
HETATM   14  C21 UNL     1      56.469  39.775  16.524  1.00  0.00     0.125 C 
HETATM   15  C22 UNL     1      56.414  36.896  15.463  1.00  0.00     0.046 C 
HETATM   16  C24 UNL     1      55.899  35.546  15.782  1.00  0.00     0.025 C 
HETATM   17  C25 UNL     1      56.625  34.446  15.260  1.00  0.00     0.001 C 
ENDROOT
BRANCH   1  18
HETATM   18  C7  UNL     1      54.446  40.754  15.544  1.00  0.00     0.034 C 
BRANCH  18  19
HETATM   19  C6  UNL     1      53.070  40.489  15.119  1.00  0.00    -0.026 C 
HETATM   20  C5  UNL     1      52.066  40.735  15.927  1.00  0.00    -0.004 C 
BRANCH  20  21
HETATM   21  C4  UNL     1      50.686  40.479  15.523  1.00  0.00    -0.002 C 
HETATM   22  C3  UNL     1      50.410  39.450  14.756  1.00  0.00     0.005 C 
BRANCH  22  23
HETATM   23  C2  UNL     1      49.017  39.163  14.329  1.00  0.00     0.202 C 
HETATM   24  C1  UNL     1      48.658  37.763  14.761  1.00  0.00     0.044 C 
BRANCH  23  25
HETATM   25  N1  UNL     1      48.893  39.351  12.897  1.00  0.00    -0.072 N 
ATOM     26  H13 UNL     1      48.082  38.852  12.531  1.00  0.00     0.275 HD
ATOM     27  H12 UNL     1      48.612  40.306  12.676  1.00  0.00     0.275 HD
ATOM     28  H11 UNL     1      49.741  39.092  12.393  1.00  0.00     0.275 HD
ENDBRANCH  23  25
ENDBRANCH  22  23
ENDBRANCH  20  21
ENDBRANCH  18  19
ENDBRANCH   1  18
BRANCH  14  29
HETATM   29  O3  UNL     1      57.189  40.746  15.779  1.00  0.00    -0.395 OA
ATOM     30  H3  UNL     1      58.116  40.567  15.878  1.00  0.00     0.210 HD
ENDBRANCH  14  29
BRANCH  15  31
HETATM   31  C23 UNL     1      57.459  37.297  14.556  1.00  0.00     0.244 C 
HETATM   32  O4  UNL     1      58.485  37.963  14.747  1.00  0.00    -0.306 OA
ENDBRANCH  15  31
BRANCH  10  33
HETATM   33  C18 UNL     1      58.866  34.842  18.136  1.00  0.00     0.196 C 
BRANCH  33  34
HETATM   34  O1  UNL     1      58.408  33.556  18.349  1.00  0.00    -0.398 OA
ATOM     35  H1  UNL     1      57.921  33.515  19.164  1.00  0.00     0.209 HD
ENDBRANCH  33  34
ENDBRANCH  10  33
TORSDOF 9
ENDMDL
MODEL 3
REMARK VINA RESULT: -7.851312250      1.224      1.510
REMARK  9 active torsions:
REMARK  status: ('A' for Active; 'I' for Inactive)
REMARK    1  A    between atoms: C2_2  and  N1_3 
REMARK    2  A    between atoms: C2_2  and  C3_7 
REMARK    3  A    between atoms: C4_8  and  C5_9 
REMARK    4  A    between atoms: C6_10  and  C7_11 
REMARK    5  A    between atoms: C7_11  and  C8_12 
REMARK    6  A    between atoms: C17_21  and  C18_22 
REMARK    7  A    between atoms: C18_22  and  O1_23 
REMARK    8  A    between atoms: C21_28  and  O3_29 
REMARK    9  A    between atoms: C22_31  and  C23_32 
ROOT
HETATM    1  C8  UNL     1      58.769  39.193  16.650  1.00  0.00     0.018 C 
HETATM    2  C9  UNL     1      58.668  37.682  16.786  1.00  0.00     0.017 C 
HETATM    3  C10 UNL     1      58.359  37.209  15.394  1.00  0.00     0.026 C 
HETATM    4  C11 UNL     1      58.358  35.704  15.236  1.00  0.00    -0.024 C 
HETATM    5  C12 UNL     1      57.506  34.910  14.405  1.00  0.00    -0.025 C 
HETATM    6  C13 UNL     1      56.109  35.133  14.142  1.00  0.00     0.012 C 
HETATM    7  C14 UNL     1      55.268  34.379  13.147  1.00  0.00     0.009 C 
HETATM    8  C15 UNL     1      54.090  35.437  13.146  1.00  0.00     0.008 C 
HETATM    9  C16 UNL     1      54.770  36.791  13.038  1.00  0.00     0.021 C 
HETATM   10  C17 UNL     1      54.386  37.908  13.902  1.00  0.00     0.150 C 
HETATM   11  O2  UNL     1      55.049  38.654  14.698  1.00  0.00    -0.377 OA
HETATM   12  C19 UNL     1      56.338  38.937  15.013  1.00  0.00     0.140 C 
HETATM   13  C20 UNL     1      56.351  39.837  16.188  1.00  0.00     0.065 C 
HETATM   14  C21 UNL     1      57.550  39.941  17.011  1.00  0.00     0.125 C 
HETATM   15  C22 UNL     1      56.992  37.639  15.061  1.00  0.00     0.046 C 
HETATM   16  C24 UNL     1      57.034  37.294  13.623  1.00  0.00     0.025 C 
HETATM   17  C25 UNL     1      56.140  36.285  13.182  1.00  0.00     0.001 C 
ENDROOT
BRANCH   1  18
HETATM   18  C7  UNL     1      59.915  39.620  17.569  1.00  0.00     0.034 C 
BRANCH  18  19
HETATM   19  C6  UNL     1      61.140  39.908  16.819  1.00  0.00    -0.026 C 
HETATM   20  C5  UNL     1      61.127  39.926  15.507  1.00  0.00    -0.004 C 
BRANCH  20  21
HETATM   21  C4  UNL     1      62.337  40.211  14.740  1.00  0.00    -0.002 C 
HETATM   22  C3  UNL     1      63.234  39.269  14.561  1.00  0.00     0.005 C 
BRANCH  22  23
HETATM   23  C2  UNL     1      64.474  39.527  13.787  1.00  0.00     0.202 C 
HETATM   24  C1  UNL     1      64.382  38.799  12.469  1.00  0.00     0.044 C 
BRANCH  23  25
HETATM   25  N1  UNL     1      65.631  39.128  14.562  1.00  0.00    -0.072 N 
ATOM     26  H13 UNL     1      65.563  39.465  15.523  1.00  0.00     0.275 HD
ATOM     27  H12 UNL     1      65.625  38.124  14.739  1.00  0.00     0.275 HD
ATOM     28  H11 UNL     1      66.510  39.420  14.133  1.00  0.00     0.275 HD
ENDBRANCH  23  25
ENDBRANCH  22  23
ENDBRANCH  20  21
ENDBRANCH  18  19
ENDBRANCH   1  18
BRANCH  14  29
HETATM   29  O3  UNL     1      57.290  39.725  18.390  1.00  0.00    -0.395 OA
ATOM     30  H3  UNL     1      56.388  39.443  18.481  1.00  0.00     0.210 HD
ENDBRANCH  14  29
BRANCH  15  31
HETATM   31  C23 UNL     1      56.296  36.996  16.146  1.00  0.00     0.244 C 
HETATM   32  O4  UNL     1      55.518  37.454  16.993  1.00  0.00    -0.306 OA
ENDBRANCH  15  31
BRANCH  10  33
HETATM   33  C18 UNL     1      53.595  38.919  13.012  1.00  0.00     0.196 C 
BRANCH  33  34
HETATM   34  O1  UNL     1      53.511  38.444  11.717  1.00  0.00    -0.398 OA
ATOM     35  H1  UNL     1      52.924  37.699  11.681  1.00  0.00     0.209 HD
ENDBRANCH  33  34
ENDBRANCH  10  33
TORSDOF 9
ENDMDL
MODEL 4
REMARK VINA RESULT: -7.839480843      4.392      6.912
REMARK  9 active torsions:
REMARK  status: ('A' for Active; 'I' for Inactive)
REMARK    1  A    between atoms: C2_2  and  N1_3 
REMARK    2  A    between atoms: C2_2  and  C3_7 
REMARK    3  A    between atoms: C4_8  and  C5_9 
REMARK    4  A    between atoms: C6_10  and  C7_11 
REMARK    5  A    between atoms: C7_11  and  C8_12 
REMARK    6  A    between atoms: C17_21  and  C18_22 
REMARK    7  A    between atoms: C18_22  and  O1_23 
REMARK    8  A    between atoms: C21_28  and  O3_29 
REMARK    9  A    between atoms: C22_31  and  C23_32 
ROOT
HETATM    1  C8  UNL     1      56.438  40.194  17.271  1.00  0.00     0.018 C 
HETATM    2  C9  UNL     1      56.478  39.893  15.781  1.00  0.00     0.017 C 
HETATM    3  C10 UNL     1      56.010  38.468  15.683  1.00  0.00     0.026 C 
HETATM    4  C11 UNL     1      55.815  37.975  14.266  1.00  0.00    -0.024 C 
HETATM    5  C12 UNL     1      56.072  36.665  13.750  1.00  0.00    -0.025 C 
HETATM    6  C13 UNL     1      57.161  35.797  14.110  1.00  0.00     0.012 C 
HETATM    7  C14 UNL     1      57.328  34.366  13.672  1.00  0.00     0.009 C 
HETATM    8  C15 UNL     1      58.424  34.025  14.764  1.00  0.00     0.008 C 
HETATM    9  C16 UNL     1      57.888  34.604  16.062  1.00  0.00     0.021 C 
HETATM   10  C17 UNL     1      58.738  35.395  16.952  1.00  0.00     0.150 C 
HETATM   11  O2  UNL     1      58.623  36.569  17.441  1.00  0.00    -0.377 OA
HETATM   12  C19 UNL     1      57.692  37.548  17.564  1.00  0.00     0.140 C 
HETATM   13  C20 UNL     1      58.339  38.746  18.145  1.00  0.00     0.065 C 
HETATM   14  C21 UNL     1      57.728  40.058  17.975  1.00  0.00     0.125 C 
HETATM   15  C22 UNL     1      57.053  37.606  16.259  1.00  0.00     0.046 C 
HETATM   16  C24 UNL     1      56.269  36.351  16.276  1.00  0.00     0.025 C 
HETATM   17  C25 UNL     1      56.740  35.292  15.458  1.00  0.00     0.001 C 
ENDROOT
BRANCH   1  18
HETATM   18  C7  UNL     1      55.945  41.636  17.393  1.00  0.00     0.034 C 
BRANCH  18  19
HETATM   19  C6  UNL     1      54.509  41.749  17.123  1.00  0.00    -0.026 C 
HETATM   20  C5  UNL     1      53.677  40.837  17.565  1.00  0.00    -0.004 C 
BRANCH  20  21
HETATM   21  C4  UNL     1      52.242  40.930  17.306  1.00  0.00    -0.002 C 
HETATM   22  C3  UNL     1      51.805  41.030  16.072  1.00  0.00     0.005 C 
BRANCH  22  23
HETATM   23  C2  UNL     1      50.353  41.127  15.777  1.00  0.00     0.202 C 
HETATM   24  C1  UNL     1      50.001  40.086  14.742  1.00  0.00     0.044 C 
BRANCH  23  25
HETATM   25  N1  UNL     1      50.027  42.471  15.346  1.00  0.00    -0.072 N 
ATOM     26  H13 UNL     1      50.861  43.057  15.308  1.00  0.00     0.275 HD
ATOM     27  H12 UNL     1      49.770  42.488  14.359  1.00  0.00     0.275 HD
ATOM     28  H11 UNL     1      49.303  42.901  15.921  1.00  0.00     0.275 HD
ENDBRANCH  23  25
ENDBRANCH  22  23
ENDBRANCH  20  21
ENDBRANCH  18  19
ENDBRANCH   1  18
BRANCH  14  29
HETATM   29  O3  UNL     1      58.626  41.019  17.442  1.00  0.00    -0.395 OA
ATOM     30  H3  UNL     1      59.457  40.588  17.278  1.00  0.00     0.210 HD
ENDBRANCH  14  29
BRANCH  15  31
HETATM   31  C23 UNL     1      58.148  38.001  15.409  1.00  0.00     0.244 C 
HETATM   32  O4  UNL     1      59.203  38.592  15.672  1.00  0.00    -0.306 OA
ENDBRANCH  15  31
BRANCH  10  33
HETATM   33  C18 UNL     1      59.051  34.501  18.194  1.00  0.00     0.196 C 
BRANCH  33  34
HETATM   34  O1  UNL     1      58.283  33.352  18.155  1.00  0.00    -0.398 OA
ATOM     35  H1  UNL     1      58.506  32.787  18.886  1.00  0.00     0.209 HD
ENDBRANCH  33  34
ENDBRANCH  10  33
TORSDOF 9
ENDMDL
MODEL 5
REMARK VINA RESULT: -7.783936169      3.601      6.123
REMARK  9 active torsions:
REMARK  status: ('A' for Active; 'I' for Inactive)
REMARK    1  A    between atoms: C2_2  and  N1_3 
REMARK    2  A    between atoms: C2_2  and  C3_7 
REMARK    3  A    between atoms: C4_8  and  C5_9 
REMARK    4  A    between atoms: C6_10  and  C7_11 
REMARK    5  A    between atoms: C7_11  and  C8_12 
REMARK    6  A    between atoms: C17_21  and  C18_22 
REMARK    7  A    between atoms: C18_22  and  O1_23 
REMARK    8  A    between atoms: C21_28  and  O3_29 
REMARK    9  A    between atoms: C22_31  and  C23_32 
ROOT
HETATM    1  C8  UNL     1      55.436  37.534  12.386  1.00  0.00     0.018 C 
HETATM    2  C9  UNL     1      55.756  38.364  13.619  1.00  0.00     0.017 C 
HETATM    3  C10 UNL     1      57.077  37.825  14.091  1.00  0.00     0.026 C 
HETATM    4  C11 UNL     1      57.691  38.600  15.236  1.00  0.00    -0.024 C 
HETATM    5  C12 UNL     1      58.448  38.088  16.336  1.00  0.00    -0.025 C 
HETATM    6  C13 UNL     1      58.217  36.854  17.039  1.00  0.00     0.012 C 
HETATM    7  C14 UNL     1      59.114  36.258  18.092  1.00  0.00     0.009 C 
HETATM    8  C15 UNL     1      58.448  34.823  18.031  1.00  0.00     0.008 C 
HETATM    9  C16 UNL     1      58.316  34.506  16.551  1.00  0.00     0.021 C 
HETATM   10  C17 UNL     1      57.075  33.968  15.994  1.00  0.00     0.150 C 
HETATM   11  O2  UNL     1      56.310  34.358  15.049  1.00  0.00    -0.377 OA
HETATM   12  C19 UNL     1      56.304  35.253  14.030  1.00  0.00     0.140 C 
HETATM   13  C20 UNL     1      54.962  35.251  13.405  1.00  0.00     0.065 C 
HETATM   14  C21 UNL     1      54.526  36.395  12.613  1.00  0.00     0.125 C 
HETATM   15  C22 UNL     1      56.853  36.467  14.612  1.00  0.00     0.046 C 
HETATM   16  C24 UNL     1      58.276  36.088  14.758  1.00  0.00     0.025 C 
HETATM   17  C25 UNL     1      58.736  35.829  16.075  1.00  0.00     0.001 C 
ENDROOT
BRANCH   1  18
HETATM   18  C7  UNL     1      54.797  38.499  11.386  1.00  0.00     0.034 C 
BRANCH  18  19
HETATM   19  C6  UNL     1      54.668  39.851  11.935  1.00  0.00    -0.026 C 
HETATM   20  C5  UNL     1      55.129  40.884  11.270  1.00  0.00    -0.004 C 
BRANCH  20  21
HETATM   21  C4  UNL     1      55.011  42.240  11.799  1.00  0.00    -0.002 C 
HETATM   22  C3  UNL     1      54.772  42.426  13.076  1.00  0.00     0.005 C 
BRANCH  22  23
HETATM   23  C2  UNL     1      54.646  43.792  13.644  1.00  0.00     0.202 C 
HETATM   24  C1  UNL     1      54.181  44.727  12.555  1.00  0.00     0.044 C 
BRANCH  23  25
HETATM   25  N1  UNL     1      55.909  44.201  14.225  1.00  0.00    -0.072 N 
ATOM     26  H13 UNL     1      56.479  44.706  13.547  1.00  0.00     0.275 HD
ATOM     27  H12 UNL     1      55.773  44.944  14.911  1.00  0.00     0.275 HD
ATOM     28  H11 UNL     1      56.425  43.419  14.628  1.00  0.00     0.275 HD
ENDBRANCH  23  25
ENDBRANCH  22  23
ENDBRANCH  20  21
ENDBRANCH  18  19
ENDBRANCH   1  18
BRANCH  14  29
HETATM   29  O3  UNL     1      53.271  36.908  13.033  1.00  0.00    -0.395 OA
ATOM     30  H3  UNL     1      52.600  36.552  12.463  1.00  0.00     0.210 HD
ENDBRANCH  14  29
BRANCH  15  31
HETATM   31  C23 UNL     1      55.872  36.784  15.618  1.00  0.00     0.244 C 
HETATM   32  O4  UNL     1      55.031  36.072  16.181  1.00  0.00    -0.306 OA
ENDBRANCH  15  31
BRANCH  10  33
HETATM   33  C18 UNL     1      57.338  32.463  15.666  1.00  0.00     0.196 C 
BRANCH  33  34
HETATM   34  O1  UNL     1      57.349  31.721  16.832  1.00  0.00    -0.398 OA
ATOM     35  H1  UNL     1      56.497  31.760  17.250  1.00  0.00     0.209 HD
ENDBRANCH  33  34
ENDBRANCH  10  33
TORSDOF 9
ENDMDL
