MODEL 1
REMARK VINA RESULT: -9.989026467      0.000      0.000
REMARK  10 active torsions:
REMARK  status: ('A' for Active; 'I' for Inactive)
REMARK    1  A    between atoms: C2_2  and  N1_3 
REMARK    2  A    between atoms: C2_2  and  C3_7 
REMARK    3  A    between atoms: C3_7  and  C4_8 
REMARK       I    between atoms: C4_8  and  N2_10 
REMARK    4  A    between atoms: N3_13  and  C7_14 
REMARK    5  A    between atoms: C7_14  and  C8_15 
REMARK    6  A    between atoms: C8_15  and  N4_16 
REMARK       I    between atoms: N4_16  and  C9_18 
REMARK    7  A    between atoms: C9_18  and  C10_20 
REMARK    8  A    between atoms: C10_20  and  C11_21 
REMARK    9  A    between atoms: C11_21  and  C12_22 
REMARK   10  A    between atoms: C16_26  and  C17_27 
ROOT
HETATM    1  C7  UNL     1       5.437   7.941  22.769  1.00  0.00     0.069 C 
HETATM    2  C22 UNL     1       4.547   9.128  22.771  1.00  0.00     0.042 C 
HETATM    3  C23 UNL     1       3.141   8.580  22.955  1.00  0.00     0.082 C 
HETATM    4  C24 UNL     1       3.291   7.345  23.790  1.00  0.00     0.246 C 
HETATM    5  F1  UNL     1       2.688   7.574  25.036  1.00  0.00    -0.206 F 
HETATM    6  F2  UNL     1       2.654   6.238  23.271  1.00  0.00    -0.206 F 
HETATM    7  C25 UNL     1       4.759   7.180  23.985  1.00  0.00     0.115 C 
ENDROOT
BRANCH   1   8
HETATM    8  N3  UNL     1       6.712   8.272  23.260  1.00  0.00    -0.376 N 
HETATM    9  C6  UNL     1       7.604   9.017  22.467  1.00  0.00     0.143 C 
HETATM   10  C5  UNL     1       8.977   8.336  22.591  1.00  0.00     0.146 C 
HETATM   11  N2  UNL     1       9.305   8.346  24.023  1.00  0.00    -0.346 N 
HETATM   12  C4  UNL     1      10.576   8.786  24.437  1.00  0.00     0.222 C 
HETATM   13  C27 UNL     1       8.309   7.898  24.982  1.00  0.00     0.170 C 
HETATM   14  O1  UNL     1      11.413   9.165  23.596  1.00  0.00    -0.273 OA
HETATM   15  C26 UNL     1       6.915   8.390  24.650  1.00  0.00     0.079 C 
BRANCH  12  16
HETATM   16  C3  UNL     1      10.922   8.804  25.870  1.00  0.00     0.135 C 
BRANCH  16  17
HETATM   17  C2  UNL     1      11.427   7.442  26.333  1.00  0.00     0.188 C 
HETATM   18  C1  UNL     1      12.922   7.431  26.214  1.00  0.00     0.040 C 
BRANCH  17  19
HETATM   19  N1  UNL     1      11.081   7.191  27.708  1.00  0.00    -0.075 N 
ATOM     20  H13 UNL     1      11.844   7.407  28.350  1.00  0.00     0.274 HD
ATOM     21  H12 UNL     1      10.401   7.860  28.070  1.00  0.00     0.274 HD
ATOM     22  H11 UNL     1      10.762   6.226  27.787  1.00  0.00     0.274 HD
ENDBRANCH  17  19
ENDBRANCH  16  17
ENDBRANCH  12  16
ENDBRANCH   1   8
BRANCH   1  23
HETATM   23  C8  UNL     1       5.370   6.956  21.684  1.00  0.00     0.095 C 
BRANCH  23  24
HETATM   24  N4  UNL     1       6.289   5.922  21.521  1.00  0.00    -0.338 N 
HETATM   25  C9  UNL     1       6.423   4.889  20.578  1.00  0.00     0.221 C 
HETATM   26  O2  UNL     1       5.586   4.778  19.655  1.00  0.00    -0.273 OA
ATOM     27  H4  UNL     1       7.018   5.914  22.235  1.00  0.00     0.167 HD
BRANCH  25  28
HETATM   28  C10 UNL     1       7.546   3.903  20.638  1.00  0.00     0.107 C 
BRANCH  28  29
HETATM   29  C11 UNL     1       7.185   2.558  20.078  1.00  0.00     0.043 C 
BRANCH  29  30
HETATM   30  C12 UNL     1       8.129   2.206  18.983  1.00  0.00    -0.082 C 
HETATM   31  C13 UNL     1       8.901   1.133  18.809  1.00  0.00    -0.018 C 
HETATM   32  C14 UNL     1       9.621   1.312  17.578  1.00  0.00     0.023 A 
HETATM   33  C15 UNL     1       9.427   1.165  16.199  1.00  0.00     0.025 A 
HETATM   34  C16 UNL     1       8.402   1.898  16.799  1.00  0.00     0.021 A 
HETATM   35  C21 UNL     1       8.342   3.072  17.738  1.00  0.00     0.049 C 
BRANCH  34  36
HETATM   36  C17 UNL     1       7.073   1.165  16.893  1.00  0.00     0.269 C 
HETATM   37  O3  UNL     1       7.033   0.034  16.090  1.00  0.00    -0.360 OA
HETATM   38  C18 UNL     1       6.107   0.064  15.085  1.00  0.00     0.173 C 
HETATM   39  C19 UNL     1       6.090   1.361  14.307  1.00  0.00     0.053 C 
HETATM   40  C20 UNL     1       6.352   2.552  15.202  1.00  0.00     0.173 C 
HETATM   41  O4  UNL     1       6.118   2.120  16.510  1.00  0.00    -0.360 OA
ENDBRANCH  34  36
ENDBRANCH  29  30
ENDBRANCH  28  29
ENDBRANCH  25  28
ENDBRANCH  23  24
ENDBRANCH   1  23
TORSDOF 10
ENDMDL
MODEL 2
REMARK VINA RESULT: -9.894369629      0.996      1.126
REMARK  10 active torsions:
REMARK  status: ('A' for Active; 'I' for Inactive)
REMARK    1  A    between atoms: C2_2  and  N1_3 
REMARK    2  A    between atoms: C2_2  and  C3_7 
REMARK    3  A    between atoms: C3_7  and  C4_8 
REMARK       I    between atoms: C4_8  and  N2_10 
REMARK    4  A    between atoms: N3_13  and  C7_14 
REMARK    5  A    between atoms: C7_14  and  C8_15 
REMARK    6  A    between atoms: C8_15  and  N4_16 
REMARK       I    between atoms: N4_16  and  C9_18 
REMARK    7  A    between atoms: C9_18  and  C10_20 
REMARK    8  A    between atoms: C10_20  and  C11_21 
REMARK    9  A    between atoms: C11_21  and  C12_22 
REMARK   10  A    between atoms: C16_26  and  C17_27 
ROOT
HETATM    1  C7  UNL     1       5.393   8.198  23.326  1.00  0.00     0.069 C 
HETATM    2  C22 UNL     1       4.765   9.395  22.716  1.00  0.00     0.042 C 
HETATM    3  C23 UNL     1       3.283   9.282  23.033  1.00  0.00     0.082 C 
HETATM    4  C24 UNL     1       3.202   8.579  24.353  1.00  0.00     0.246 C 
HETATM    5  F1  UNL     1       2.694   9.476  25.305  1.00  0.00    -0.206 F 
HETATM    6  F2  UNL     1       2.336   7.505  24.362  1.00  0.00    -0.206 F 
HETATM    7  C25 UNL     1       4.609   8.242  24.706  1.00  0.00     0.115 C 
ENDROOT
BRANCH   1   8
HETATM    8  N3  UNL     1       6.722   8.465  23.697  1.00  0.00    -0.376 N 
HETATM    9  C6  UNL     1       7.586   9.127  22.804  1.00  0.00     0.143 C 
HETATM   10  C5  UNL     1       8.921   8.367  22.838  1.00  0.00     0.146 C 
HETATM   11  N2  UNL     1       9.372   8.402  24.237  1.00  0.00    -0.346 N 
HETATM   12  C4  UNL     1      10.697   8.776  24.526  1.00  0.00     0.222 C 
HETATM   13  C27 UNL     1       8.436   8.047  25.292  1.00  0.00     0.170 C 
HETATM   14  O1  UNL     1      11.479   9.076  23.605  1.00  0.00    -0.273 OA
HETATM   15  C26 UNL     1       7.050   8.614  25.060  1.00  0.00     0.079 C 
BRANCH  12  16
HETATM   16  C3  UNL     1      11.164   8.817  25.923  1.00  0.00     0.135 C 
BRANCH  16  17
HETATM   17  C2  UNL     1      11.653   7.449  26.384  1.00  0.00     0.188 C 
HETATM   18  C1  UNL     1      13.153   7.451  26.351  1.00  0.00     0.040 C 
BRANCH  17  19
HETATM   19  N1  UNL     1      11.230   7.163  27.730  1.00  0.00    -0.075 N 
ATOM     20  H13 UNL     1      11.986   7.260  28.408  1.00  0.00     0.274 HD
ATOM     21  H12 UNL     1      10.611   7.881  28.108  1.00  0.00     0.274 HD
ATOM     22  H11 UNL     1      10.809   6.235  27.743  1.00  0.00     0.274 HD
ENDBRANCH  17  19
ENDBRANCH  16  17
ENDBRANCH  12  16
ENDBRANCH   1   8
BRANCH   1  23
HETATM   23  C8  UNL     1       5.094   6.854  22.819  1.00  0.00     0.095 C 
BRANCH  23  24
HETATM   24  N4  UNL     1       5.972   6.112  22.031  1.00  0.00    -0.338 N 
HETATM   25  C9  UNL     1       6.463   6.267  20.724  1.00  0.00     0.221 C 
HETATM   26  O2  UNL     1       6.086   7.238  20.030  1.00  0.00    -0.273 OA
ATOM     27  H4  UNL     1       6.335   5.283  22.503  1.00  0.00     0.167 HD
BRANCH  25  28
HETATM   28  C10 UNL     1       7.434   5.301  20.123  1.00  0.00     0.107 C 
BRANCH  28  29
HETATM   29  C11 UNL     1       7.182   3.878  20.530  1.00  0.00     0.043 C 
BRANCH  29  30
HETATM   30  C12 UNL     1       7.846   2.960  19.564  1.00  0.00    -0.082 C 
HETATM   31  C13 UNL     1       7.970   1.633  19.567  1.00  0.00    -0.018 C 
HETATM   32  C14 UNL     1       8.714   1.265  18.394  1.00  0.00     0.023 A 
HETATM   33  C15 UNL     1       8.510   1.057  17.024  1.00  0.00     0.025 A 
HETATM   34  C16 UNL     1       7.984   2.275  17.454  1.00  0.00     0.021 A 
HETATM   35  C21 UNL     1       8.503   3.432  18.264  1.00  0.00     0.049 C 
BRANCH  34  36
HETATM   36  C17 UNL     1       6.464   2.326  17.501  1.00  0.00     0.269 C 
HETATM   37  O3  UNL     1       5.878   1.214  16.912  1.00  0.00    -0.360 OA
HETATM   38  C18 UNL     1       5.119   1.472  15.805  1.00  0.00     0.173 C 
HETATM   39  C19 UNL     1       5.779   2.406  14.815  1.00  0.00     0.053 C 
HETATM   40  C20 UNL     1       6.585   3.480  15.513  1.00  0.00     0.173 C 
HETATM   41  O4  UNL     1       6.132   3.515  16.834  1.00  0.00    -0.360 OA
ENDBRANCH  34  36
ENDBRANCH  29  30
ENDBRANCH  28  29
ENDBRANCH  25  28
ENDBRANCH  23  24
ENDBRANCH   1  23
TORSDOF 10
ENDMDL
MODEL 3
REMARK VINA RESULT: -9.777915854      2.552      3.130
REMARK  10 active torsions:
REMARK  status: ('A' for Active; 'I' for Inactive)
REMARK    1  A    between atoms: C2_2  and  N1_3 
REMARK    2  A    between atoms: C2_2  and  C3_7 
REMARK    3  A    between atoms: C3_7  and  C4_8 
REMARK       I    between atoms: C4_8  and  N2_10 
REMARK    4  A    between atoms: N3_13  and  C7_14 
REMARK    5  A    between atoms: C7_14  and  C8_15 
REMARK    6  A    between atoms: C8_15  and  N4_16 
REMARK       I    between atoms: N4_16  and  C9_18 
REMARK    7  A    between atoms: C9_18  and  C10_20 
REMARK    8  A    between atoms: C10_20  and  C11_21 
REMARK    9  A    between atoms: C11_21  and  C12_22 
REMARK   10  A    between atoms: C16_26  and  C17_27 
ROOT
HETATM    1  C7  UNL     1       7.554  10.400  20.628  1.00  0.00     0.069 C 
HETATM    2  C22 UNL     1       7.546  11.884  20.641  1.00  0.00     0.042 C 
HETATM    3  C23 UNL     1       6.355  12.290  19.787  1.00  0.00     0.082 C 
HETATM    4  C24 UNL     1       5.337  11.206  19.966  1.00  0.00     0.246 C 
HETATM    5  F1  UNL     1       4.232  11.741  20.646  1.00  0.00    -0.206 F 
HETATM    6  F2  UNL     1       4.835  10.709  18.782  1.00  0.00    -0.206 F 
HETATM    7  C25 UNL     1       5.995  10.190  20.834  1.00  0.00     0.115 C 
ENDROOT
BRANCH   1   8
HETATM    8  N3  UNL     1       8.112   9.894  21.814  1.00  0.00    -0.376 N 
HETATM    9  C6  UNL     1       7.387   8.985  22.607  1.00  0.00     0.143 C 
HETATM   10  C5  UNL     1       7.547   9.446  24.064  1.00  0.00     0.146 C 
HETATM   11  N2  UNL     1       8.991   9.447  24.333  1.00  0.00    -0.346 N 
HETATM   12  C4  UNL     1       9.477   8.830  25.501  1.00  0.00     0.222 C 
HETATM   13  C27 UNL     1       9.888  10.087  23.385  1.00  0.00     0.170 C 
HETATM   14  O1  UNL     1       8.688   8.289  26.298  1.00  0.00    -0.273 OA
HETATM   15  C26 UNL     1       9.514   9.806  21.944  1.00  0.00     0.079 C 
BRANCH  12  16
HETATM   16  C3  UNL     1      10.923   8.820  25.785  1.00  0.00     0.135 C 
BRANCH  16  17
HETATM   17  C2  UNL     1      11.372   7.467  26.321  1.00  0.00     0.188 C 
HETATM   18  C1  UNL     1      12.867   7.394  26.219  1.00  0.00     0.040 C 
BRANCH  17  19
HETATM   19  N1  UNL     1      11.005   7.298  27.703  1.00  0.00    -0.075 N 
ATOM     20  H13 UNL     1      11.714   6.800  28.240  1.00  0.00     0.274 HD
ATOM     21  H12 UNL     1      11.026   8.175  28.225  1.00  0.00     0.274 HD
ATOM     22  H11 UNL     1      10.093   6.842  27.739  1.00  0.00     0.274 HD
ENDBRANCH  17  19
ENDBRANCH  16  17
ENDBRANCH  12  16
ENDBRANCH   1   8
BRANCH   1  23
HETATM   23  C8  UNL     1       7.827   9.663  19.389  1.00  0.00     0.095 C 
BRANCH  23  24
HETATM   24  N4  UNL     1       7.350   8.380  19.132  1.00  0.00    -0.338 N 
HETATM   25  C9  UNL     1       7.821   7.094  19.446  1.00  0.00     0.221 C 
HETATM   26  O2  UNL     1       8.894   6.962  20.078  1.00  0.00    -0.273 OA
ATOM     27  H4  UNL     1       6.476   8.371  18.607  1.00  0.00     0.167 HD
BRANCH  25  28
HETATM   28  C10 UNL     1       7.078   5.859  19.047  1.00  0.00     0.107 C 
BRANCH  28  29
HETATM   29  C11 UNL     1       7.124   4.778  20.088  1.00  0.00     0.043 C 
BRANCH  29  30
HETATM   30  C12 UNL     1       7.699   3.540  19.495  1.00  0.00    -0.082 C 
HETATM   31  C13 UNL     1       7.617   2.267  19.883  1.00  0.00    -0.018 C 
HETATM   32  C14 UNL     1       8.370   1.479  18.947  1.00  0.00     0.023 A 
HETATM   33  C15 UNL     1       8.225   0.907  17.677  1.00  0.00     0.025 A 
HETATM   34  C16 UNL     1       7.867   2.255  17.690  1.00  0.00     0.021 A 
HETATM   35  C21 UNL     1       8.504   3.522  18.193  1.00  0.00     0.049 C 
BRANCH  34  36
HETATM   36  C17 UNL     1       6.373   2.513  17.558  1.00  0.00     0.269 C 
HETATM   37  O3  UNL     1       5.659   1.358  17.272  1.00  0.00    -0.360 OA
HETATM   38  C18 UNL     1       5.018   1.351  16.065  1.00  0.00     0.173 C 
HETATM   39  C19 UNL     1       5.873   1.835  14.916  1.00  0.00     0.053 C 
HETATM   40  C20 UNL     1       6.792   2.961  15.339  1.00  0.00     0.173 C 
HETATM   41  O4  UNL     1       6.271   3.465  16.532  1.00  0.00    -0.360 OA
ENDBRANCH  34  36
ENDBRANCH  29  30
ENDBRANCH  28  29
ENDBRANCH  25  28
ENDBRANCH  23  24
ENDBRANCH   1  23
TORSDOF 10
ENDMDL
MODEL 4
REMARK VINA RESULT: -9.767150679      1.366      2.198
REMARK  10 active torsions:
REMARK  status: ('A' for Active; 'I' for Inactive)
REMARK    1  A    between atoms: C2_2  and  N1_3 
REMARK    2  A    between atoms: C2_2  and  C3_7 
REMARK    3  A    between atoms: C3_7  and  C4_8 
REMARK       I    between atoms: C4_8  and  N2_10 
REMARK    4  A    between atoms: N3_13  and  C7_14 
REMARK    5  A    between atoms: C7_14  and  C8_15 
REMARK    6  A    between atoms: C8_15  and  N4_16 
REMARK       I    between atoms: N4_16  and  C9_18 
REMARK    7  A    between atoms: C9_18  and  C10_20 
REMARK    8  A    between atoms: C10_20  and  C11_21 
REMARK    9  A    between atoms: C11_21  and  C12_22 
REMARK   10  A    between atoms: C16_26  and  C17_27 
ROOT
HETATM    1  C7  UNL     1       5.495   8.491  22.595  1.00  0.00     0.069 C 
HETATM    2  C22 UNL     1       4.531   9.477  23.141  1.00  0.00     0.042 C 
HETATM    3  C23 UNL     1       3.180   8.780  23.116  1.00  0.00     0.082 C 
HETATM    4  C24 UNL     1       3.469   7.325  23.326  1.00  0.00     0.246 C 
HETATM    5  F1  UNL     1       2.938   6.941  24.567  1.00  0.00    -0.206 F 
HETATM    6  F2  UNL     1       2.873   6.497  22.399  1.00  0.00    -0.206 F 
HETATM    7  C25 UNL     1       4.954   7.224  23.381  1.00  0.00     0.115 C 
ENDROOT
BRANCH   1   8
HETATM    8  N3  UNL     1       6.776   8.692  23.138  1.00  0.00    -0.376 N 
HETATM    9  C6  UNL     1       7.770   9.344  22.385  1.00  0.00     0.143 C 
HETATM   10  C5  UNL     1       9.061   8.529  22.560  1.00  0.00     0.146 C 
HETATM   11  N2  UNL     1       9.331   8.502  24.004  1.00  0.00    -0.346 N 
HETATM   12  C4  UNL     1      10.622   8.812  24.471  1.00  0.00     0.222 C 
HETATM   13  C27 UNL     1       8.257   8.155  24.920  1.00  0.00     0.170 C 
HETATM   14  O1  UNL     1      11.525   9.106  23.667  1.00  0.00    -0.273 OA
HETATM   15  C26 UNL     1       6.934   8.785  24.536  1.00  0.00     0.079 C 
BRANCH  12  16
HETATM   16  C3  UNL     1      10.910   8.791  25.917  1.00  0.00     0.135 C 
BRANCH  16  17
HETATM   17  C2  UNL     1      11.423   7.427  26.359  1.00  0.00     0.188 C 
HETATM   18  C1  UNL     1      12.920   7.433  26.256  1.00  0.00     0.040 C 
BRANCH  17  19
HETATM   19  N1  UNL     1      11.066   7.145  27.725  1.00  0.00    -0.075 N 
ATOM     20  H13 UNL     1      11.800   7.404  28.384  1.00  0.00     0.274 HD
ATOM     21  H12 UNL     1      10.337   7.768  28.076  1.00  0.00     0.274 HD
ATOM     22  H11 UNL     1      10.807   6.161  27.793  1.00  0.00     0.274 HD
ENDBRANCH  17  19
ENDBRANCH  16  17
ENDBRANCH  12  16
ENDBRANCH   1   8
BRANCH   1  23
HETATM   23  C8  UNL     1       5.420   8.068  21.192  1.00  0.00     0.095 C 
BRANCH  23  24
HETATM   24  N4  UNL     1       6.218   7.066  20.643  1.00  0.00    -0.338 N 
HETATM   25  C9  UNL     1       7.116   7.031  19.564  1.00  0.00     0.221 C 
HETATM   26  O2  UNL     1       7.304   8.060  18.877  1.00  0.00    -0.273 OA
ATOM     27  H4  UNL     1       6.132   6.172  21.125  1.00  0.00     0.167 HD
BRANCH  25  28
HETATM   28  C10 UNL     1       7.868   5.790  19.199  1.00  0.00     0.107 C 
BRANCH  28  29
HETATM   29  C11 UNL     1       7.694   4.679  20.193  1.00  0.00     0.043 C 
BRANCH  29  30
HETATM   30  C12 UNL     1       6.975   3.544  19.551  1.00  0.00    -0.082 C 
HETATM   31  C13 UNL     1       6.042   3.530  18.599  1.00  0.00    -0.018 C 
HETATM   32  C14 UNL     1       5.688   2.158  18.359  1.00  0.00     0.023 A 
HETATM   33  C15 UNL     1       6.160   1.044  17.654  1.00  0.00     0.025 A 
HETATM   34  C16 UNL     1       7.156   1.630  18.436  1.00  0.00     0.021 A 
HETATM   35  C21 UNL     1       7.260   2.074  19.870  1.00  0.00     0.049 C 
BRANCH  34  36
HETATM   36  C17 UNL     1       8.224   2.371  17.646  1.00  0.00     0.269 C 
HETATM   37  O3  UNL     1       8.260   1.986  16.313  1.00  0.00    -0.360 OA
HETATM   38  C18 UNL     1       9.420   1.386  15.909  1.00  0.00     0.173 C 
HETATM   39  C19 UNL     1       9.922   0.323  16.861  1.00  0.00     0.053 C 
HETATM   40  C20 UNL     1       9.664   0.699  18.304  1.00  0.00     0.173 C 
HETATM   41  O4  UNL     1       9.422   2.074  18.315  1.00  0.00    -0.360 OA
ENDBRANCH  34  36
ENDBRANCH  29  30
ENDBRANCH  28  29
ENDBRANCH  25  28
ENDBRANCH  23  24
ENDBRANCH   1  23
TORSDOF 10
ENDMDL
MODEL 5
REMARK VINA RESULT: -9.730937543      1.878      2.726
REMARK  10 active torsions:
REMARK  status: ('A' for Active; 'I' for Inactive)
REMARK    1  A    between atoms: C2_2  and  N1_3 
REMARK    2  A    between atoms: C2_2  and  C3_7 
REMARK    3  A    between atoms: C3_7  and  C4_8 
REMARK       I    between atoms: C4_8  and  N2_10 
REMARK    4  A    between atoms: N3_13  and  C7_14 
REMARK    5  A    between atoms: C7_14  and  C8_15 
REMARK    6  A    between atoms: C8_15  and  N4_16 
REMARK       I    between atoms: N4_16  and  C9_18 
REMARK    7  A    between atoms: C9_18  and  C10_20 
REMARK    8  A    between atoms: C10_20  and  C11_21 
REMARK    9  A    between atoms: C11_21  and  C12_22 
REMARK   10  A    between atoms: C16_26  and  C17_27 
ROOT
HETATM    1  C7  UNL     1       5.354   8.139  23.189  1.00  0.00     0.069 C 
HETATM    2  C22 UNL     1       4.610   9.387  22.892  1.00  0.00     0.042 C 
HETATM    3  C23 UNL     1       3.155   9.075  23.203  1.00  0.00     0.082 C 
HETATM    4  C24 UNL     1       3.182   8.077  24.320  1.00  0.00     0.246 C 
HETATM    5  F1  UNL     1       2.643   8.678  25.467  1.00  0.00    -0.206 F 
HETATM    6  F2  UNL     1       2.406   6.961  24.092  1.00  0.00    -0.206 F 
HETATM    7  C25 UNL     1       4.625   7.790  24.554  1.00  0.00     0.115 C 
ENDROOT
BRANCH   1   8
HETATM    8  N3  UNL     1       6.672   8.426  23.585  1.00  0.00    -0.376 N 
HETATM    9  C6  UNL     1       7.536   9.121  22.719  1.00  0.00     0.143 C 
HETATM   10  C5  UNL     1       8.886   8.387  22.762  1.00  0.00     0.146 C 
HETATM   11  N2  UNL     1       9.313   8.406  24.168  1.00  0.00    -0.346 N 
HETATM   12  C4  UNL     1      10.626   8.802  24.485  1.00  0.00     0.222 C 
HETATM   13  C27 UNL     1       8.368   8.014  25.201  1.00  0.00     0.170 C 
HETATM   14  O1  UNL     1      11.416   9.132  23.583  1.00  0.00    -0.273 OA
HETATM   15  C26 UNL     1       6.975   8.557  24.956  1.00  0.00     0.079 C 
BRANCH  12  16
HETATM   16  C3  UNL     1      11.070   8.827  25.891  1.00  0.00     0.135 C 
BRANCH  16  17
HETATM   17  C2  UNL     1      11.549   7.454  26.345  1.00  0.00     0.188 C 
HETATM   18  C1  UNL     1      13.046   7.429  26.266  1.00  0.00     0.040 C 
BRANCH  17  19
HETATM   19  N1  UNL     1      11.163   7.183  27.705  1.00  0.00    -0.075 N 
ATOM     20  H13 UNL     1      11.360   6.223  27.986  1.00  0.00     0.274 HD
ATOM     21  H12 UNL     1      11.763   7.653  28.384  1.00  0.00     0.274 HD
ATOM     22  H11 UNL     1      10.180   7.430  27.815  1.00  0.00     0.274 HD
ENDBRANCH  17  19
ENDBRANCH  16  17
ENDBRANCH  12  16
ENDBRANCH   1   8
BRANCH   1  23
HETATM   23  C8  UNL     1       5.143   6.931  22.383  1.00  0.00     0.095 C 
BRANCH  23  24
HETATM   24  N4  UNL     1       5.778   6.693  21.166  1.00  0.00    -0.338 N 
HETATM   25  C9  UNL     1       5.641   7.246  19.882  1.00  0.00     0.221 C 
HETATM   26  O2  UNL     1       4.790   8.141  19.678  1.00  0.00    -0.273 OA
ATOM     27  H4  UNL     1       6.491   5.965  21.218  1.00  0.00     0.167 HD
BRANCH  25  28
HETATM   28  C10 UNL     1       6.488   6.798  18.733  1.00  0.00     0.107 C 
BRANCH  28  29
HETATM   29  C11 UNL     1       7.775   6.155  19.160  1.00  0.00     0.043 C 
BRANCH  29  30
HETATM   30  C12 UNL     1       7.769   4.720  18.768  1.00  0.00    -0.082 C 
HETATM   31  C13 UNL     1       8.640   3.742  19.021  1.00  0.00    -0.018 C 
HETATM   32  C14 UNL     1       8.144   2.548  18.395  1.00  0.00     0.023 A 
HETATM   33  C15 UNL     1       7.214   1.528  18.631  1.00  0.00     0.025 A 
HETATM   34  C16 UNL     1       6.657   2.796  18.800  1.00  0.00     0.021 A 
HETATM   35  C21 UNL     1       6.628   4.062  17.988  1.00  0.00     0.049 C 
BRANCH  34  36
HETATM   36  C17 UNL     1       6.361   3.169  20.245  1.00  0.00     0.269 C 
HETATM   37  O3  UNL     1       6.387   2.070  21.092  1.00  0.00    -0.360 OA
HETATM   38  C18 UNL     1       5.198   1.771  21.697  1.00  0.00     0.173 C 
HETATM   39  C19 UNL     1       4.013   1.785  20.757  1.00  0.00     0.053 C 
HETATM   40  C20 UNL     1       4.140   2.874  19.714  1.00  0.00     0.173 C 
HETATM   41  O4  UNL     1       5.095   3.772  20.198  1.00  0.00    -0.360 OA
ENDBRANCH  34  36
ENDBRANCH  29  30
ENDBRANCH  28  29
ENDBRANCH  25  28
ENDBRANCH  23  24
ENDBRANCH   1  23
TORSDOF 10
ENDMDL
