MODEL 1
REMARK VINA RESULT: -8.115846113      0.000      0.000
REMARK  11 active torsions:
REMARK  status: ('A' for Active; 'I' for Inactive)
REMARK    1  A    between atoms: C2_2  and  O1_3 
REMARK    2  A    between atoms: O1_3  and  C3_4 
REMARK    3  A    between atoms: C3_4  and  C4_6 
REMARK    4  A    between atoms: C8_15  and  C9_16 
REMARK    5  A    between atoms: C9_16  and  N3_17 
REMARK       I    between atoms: N3_17  and  C10_19 
REMARK    6  A    between atoms: C10_19  and  C11_21 
REMARK    7  A    between atoms: C18_28  and  C19_29 
REMARK    8  A    between atoms: C20_31  and  C21_32 
REMARK    9  A    between atoms: C21_32  and  O5_33 
REMARK   10  A    between atoms: O5_33  and  C22_34 
REMARK   11  A    between atoms: C22_34  and  C23_36 
ROOT
HETATM    1  N3  UNL     1       6.772   6.558  18.761  1.00  0.00    -0.359 N 
ATOM      2  H3  UNL     1       7.651   6.888  18.363  1.00  0.00     0.162 HD
HETATM    3  C10 UNL     1       6.675   5.188  19.089  1.00  0.00     0.222 C 
HETATM    4  O4  UNL     1       5.606   4.761  19.577  1.00  0.00    -0.273 OA
ENDROOT
BRANCH   3   5
HETATM    5  C11 UNL     1       7.781   4.208  18.888  1.00  0.00     0.083 C 
HETATM    6  C12 UNL     1       7.939   3.312  20.045  1.00  0.00     0.015 C 
HETATM    7  C13 UNL     1       7.648   1.871  19.907  1.00  0.00     0.006 C 
HETATM    8  C14 UNL     1       8.228   1.169  18.749  1.00  0.00    -0.009 C 
HETATM    9  C15 UNL     1       9.416   1.952  18.234  1.00  0.00     0.010 C 
HETATM   10  C17 UNL     1       7.587   1.332  17.431  1.00  0.00    -0.000 C 
HETATM   11  C16 UNL     1       8.507   2.490  17.174  1.00  0.00    -0.004 C 
HETATM   12  C24 UNL     1       7.696   3.662  17.532  1.00  0.00     0.010 C 
HETATM   13  C20 UNL     1       6.309   3.246  17.051  1.00  0.00     0.021 C 
HETATM   14  C18 UNL     1       6.172   1.799  17.364  1.00  0.00     0.011 C 
BRANCH  13  15
HETATM   15  C21 UNL     1       6.127   3.601  15.593  1.00  0.00     0.184 C 
BRANCH  15  16
HETATM   16  O5  UNL     1       5.322   4.751  15.439  1.00  0.00    -0.320 OA
BRANCH  16  17
HETATM   17  C22 UNL     1       5.800   5.947  14.956  1.00  0.00     0.272 C 
HETATM   18  O6  UNL     1       6.045   6.842  15.825  1.00  0.00    -0.264 OA
BRANCH  17  19
HETATM   19  C23 UNL     1       6.057   6.301  13.560  1.00  0.00     0.225 C 
HETATM   20 CL2  UNL     1       6.836   7.870  13.340  1.00  0.00    -0.120 Cl
ENDBRANCH  17  19
ENDBRANCH  16  17
ENDBRANCH  15  16
ENDBRANCH  13  15
BRANCH  14  21
HETATM   21  C19 UNL     1       5.373   0.990  16.378  1.00  0.00     0.120 C 
HETATM   22 CL1  UNL     1       6.348  -0.196  15.499  1.00  0.00    -0.130 Cl
ENDBRANCH  14  21
ENDBRANCH   3   5
BRANCH   1  23
HETATM   23  C9  UNL     1       5.736   7.508  18.945  1.00  0.00     0.149 C 
BRANCH  23  24
HETATM   24  C8  UNL     1       6.128   8.941  18.803  1.00  0.00     0.123 C 
HETATM   25  C4  UNL     1       7.097   9.449  19.830  1.00  0.00     0.155 C 
HETATM   26  C5  UNL     1       7.472  10.855  19.508  1.00  0.00     0.003 C 
HETATM   27  C6  UNL     1       7.860  11.770  20.645  1.00  0.00     0.064 C 
HETATM   28  N1  UNL     1       7.468  11.282  18.307  1.00  0.00    -0.316 N 
HETATM   29  C7  UNL     1       7.115  10.498  17.191  1.00  0.00     0.320 C 
ATOM     30  H1  UNL     1       7.736  12.253  18.144  1.00  0.00     0.170 HD
HETATM   31  O3  UNL     1       7.113  10.904  16.022  1.00  0.00    -0.247 OA
HETATM   32  N2  UNL     1       6.739   9.144  17.471  1.00  0.00    -0.335 N 
ATOM     33  H2  UNL     1       6.881   8.383  16.807  1.00  0.00     0.164 HD
BRANCH  25  34
HETATM   34  C3  UNL     1       8.320   8.616  19.971  1.00  0.00     0.270 C 
HETATM   35  O2  UNL     1       9.201   8.682  19.079  1.00  0.00    -0.264 OA
BRANCH  34  36
HETATM   36  O1  UNL     1       8.525   7.775  21.039  1.00  0.00    -0.321 OA
BRANCH  36  37
HETATM   37  C2  UNL     1       8.439   8.221  22.377  1.00  0.00     0.174 C 
HETATM   38  C1  UNL     1       9.598   9.137  22.733  1.00  0.00     0.034 C 
ENDBRANCH  36  37
ENDBRANCH  34  36
ENDBRANCH  25  34
ENDBRANCH  23  24
ENDBRANCH   1  23
TORSDOF 11
ENDMDL
MODEL 2
REMARK VINA RESULT: -8.020067819      1.185      1.265
REMARK  11 active torsions:
REMARK  status: ('A' for Active; 'I' for Inactive)
REMARK    1  A    between atoms: C2_2  and  O1_3 
REMARK    2  A    between atoms: O1_3  and  C3_4 
REMARK    3  A    between atoms: C3_4  and  C4_6 
REMARK    4  A    between atoms: C8_15  and  C9_16 
REMARK    5  A    between atoms: C9_16  and  N3_17 
REMARK       I    between atoms: N3_17  and  C10_19 
REMARK    6  A    between atoms: C10_19  and  C11_21 
REMARK    7  A    between atoms: C18_28  and  C19_29 
REMARK    8  A    between atoms: C20_31  and  C21_32 
REMARK    9  A    between atoms: C21_32  and  O5_33 
REMARK   10  A    between atoms: O5_33  and  C22_34 
REMARK   11  A    between atoms: C22_34  and  C23_36 
ROOT
HETATM    1  N3  UNL     1       6.938   6.787  19.843  1.00  0.00    -0.359 N 
ATOM      2  H3  UNL     1       7.686   7.039  19.196  1.00  0.00     0.162 HD
HETATM    3  C10 UNL     1       6.838   5.434  20.233  1.00  0.00     0.222 C 
HETATM    4  O4  UNL     1       5.927   5.103  21.023  1.00  0.00    -0.273 OA
ENDROOT
BRANCH   3   5
HETATM    5  C11 UNL     1       7.760   4.364  19.756  1.00  0.00     0.083 C 
HETATM    6  C12 UNL     1       7.713   3.172  20.618  1.00  0.00     0.015 C 
HETATM    7  C13 UNL     1       7.177   1.901  20.091  1.00  0.00     0.006 C 
HETATM    8  C14 UNL     1       7.668   1.450  18.778  1.00  0.00    -0.009 C 
HETATM    9  C15 UNL     1       8.994   2.117  18.485  1.00  0.00     0.010 C 
HETATM   10  C17 UNL     1       7.117   2.080  17.564  1.00  0.00    -0.000 C 
HETATM   11  C16 UNL     1       8.235   3.079  17.625  1.00  0.00    -0.004 C 
HETATM   12  C24 UNL     1       7.631   4.234  18.303  1.00  0.00     0.010 C 
HETATM   13  C20 UNL     1       6.212   4.223  17.742  1.00  0.00     0.021 C 
HETATM   14  C18 UNL     1       5.810   2.794  17.646  1.00  0.00     0.011 C 
BRANCH  13  15
HETATM   15  C21 UNL     1       6.152   4.990  16.441  1.00  0.00     0.184 C 
BRANCH  15  16
HETATM   16  O5  UNL     1       6.118   6.384  16.666  1.00  0.00    -0.320 OA
BRANCH  16  17
HETATM   17  C22 UNL     1       5.299   7.240  15.968  1.00  0.00     0.272 C 
HETATM   18  O6  UNL     1       4.655   8.088  16.662  1.00  0.00    -0.264 OA
BRANCH  17  19
HETATM   19  C23 UNL     1       5.087   7.282  14.521  1.00  0.00     0.225 C 
HETATM   20 CL2  UNL     1       6.571   7.216  13.567  1.00  0.00    -0.120 Cl
ENDBRANCH  17  19
ENDBRANCH  16  17
ENDBRANCH  15  16
ENDBRANCH  13  15
BRANCH  14  21
HETATM   21  C19 UNL     1       4.919   2.445  16.484  1.00  0.00     0.120 C 
HETATM   22 CL1  UNL     1       5.371   0.928  15.693  1.00  0.00    -0.130 Cl
ENDBRANCH  14  21
ENDBRANCH   3   5
BRANCH   1  23
HETATM   23  C9  UNL     1       6.075   7.822  20.285  1.00  0.00     0.149 C 
BRANCH  23  24
HETATM   24  C8  UNL     1       6.303   9.168  19.681  1.00  0.00     0.123 C 
HETATM   25  C4  UNL     1       7.075  10.133  20.531  1.00  0.00     0.155 C 
HETATM   26  C5  UNL     1       7.311  11.391  19.767  1.00  0.00     0.003 C 
HETATM   27  C6  UNL     1       7.448  12.681  20.539  1.00  0.00     0.064 C 
HETATM   28  N1  UNL     1       7.394  11.386  18.495  1.00  0.00    -0.316 N 
HETATM   29  C7  UNL     1       7.273  10.231  17.700  1.00  0.00     0.320 C 
ATOM     30  H1  UNL     1       7.559  12.276  18.024  1.00  0.00     0.170 HD
HETATM   31  O3  UNL     1       7.358  10.217  16.465  1.00  0.00    -0.247 OA
HETATM   32  N2  UNL     1       7.036   9.006  18.406  1.00  0.00    -0.335 N 
ATOM     33  H2  UNL     1       7.347   8.099  18.059  1.00  0.00     0.164 HD
BRANCH  25  34
HETATM   34  C3  UNL     1       8.366   9.595  21.035  1.00  0.00     0.270 C 
HETATM   35  O2  UNL     1       9.339   9.523  20.246  1.00  0.00    -0.264 OA
BRANCH  34  36
HETATM   36  O1  UNL     1       8.537   9.173  22.332  1.00  0.00    -0.321 OA
BRANCH  36  37
HETATM   37  C2  UNL     1       9.196   9.962  23.302  1.00  0.00     0.174 C 
HETATM   38  C1  UNL     1      10.578   9.415  23.615  1.00  0.00     0.034 C 
ENDBRANCH  36  37
ENDBRANCH  34  36
ENDBRANCH  25  34
ENDBRANCH  23  24
ENDBRANCH   1  23
TORSDOF 11
ENDMDL
MODEL 3
REMARK VINA RESULT: -7.986672524      1.398      1.591
REMARK  11 active torsions:
REMARK  status: ('A' for Active; 'I' for Inactive)
REMARK    1  A    between atoms: C2_2  and  O1_3 
REMARK    2  A    between atoms: O1_3  and  C3_4 
REMARK    3  A    between atoms: C3_4  and  C4_6 
REMARK    4  A    between atoms: C8_15  and  C9_16 
REMARK    5  A    between atoms: C9_16  and  N3_17 
REMARK       I    between atoms: N3_17  and  C10_19 
REMARK    6  A    between atoms: C10_19  and  C11_21 
REMARK    7  A    between atoms: C18_28  and  C19_29 
REMARK    8  A    between atoms: C20_31  and  C21_32 
REMARK    9  A    between atoms: C21_32  and  O5_33 
REMARK   10  A    between atoms: O5_33  and  C22_34 
REMARK   11  A    between atoms: C22_34  and  C23_36 
ROOT
HETATM    1  N3  UNL     1       7.393   6.089  19.151  1.00  0.00    -0.359 N 
ATOM      2  H3  UNL     1       7.388   6.447  18.196  1.00  0.00     0.162 HD
HETATM    3  C10 UNL     1       7.785   4.747  19.345  1.00  0.00     0.222 C 
HETATM    4  O4  UNL     1       7.796   4.287  20.508  1.00  0.00    -0.273 OA
ENDROOT
BRANCH   3   5
HETATM    5  C11 UNL     1       8.189   3.833  18.238  1.00  0.00     0.083 C 
HETATM    6  C12 UNL     1       8.976   2.690  18.727  1.00  0.00     0.015 C 
HETATM    7  C13 UNL     1       8.423   1.324  18.643  1.00  0.00     0.006 C 
HETATM    8  C14 UNL     1       7.832   0.908  17.360  1.00  0.00    -0.009 C 
HETATM    9  C15 UNL     1       8.379   1.782  16.252  1.00  0.00     0.010 C 
HETATM   10  C17 UNL     1       6.477   1.379  17.021  1.00  0.00    -0.000 C 
HETATM   11  C16 UNL     1       7.103   2.559  16.336  1.00  0.00    -0.004 C 
HETATM   12  C24 UNL     1       7.043   3.620  17.351  1.00  0.00     0.010 C 
HETATM   13  C20 UNL     1       5.703   3.339  18.024  1.00  0.00     0.021 C 
HETATM   14  C18 UNL     1       5.580   1.859  18.112  1.00  0.00     0.011 C 
BRANCH  13  15
HETATM   15  C21 UNL     1       4.582   4.027  17.279  1.00  0.00     0.184 C 
BRANCH  15  16
HETATM   16  O5  UNL     1       4.727   5.431  17.312  1.00  0.00    -0.320 OA
BRANCH  16  17
HETATM   17  C22 UNL     1       5.188   6.166  16.244  1.00  0.00     0.272 C 
HETATM   18  O6  UNL     1       5.965   7.132  16.526  1.00  0.00    -0.264 OA
BRANCH  17  19
HETATM   19  C23 UNL     1       4.885   5.960  14.828  1.00  0.00     0.225 C 
HETATM   20 CL2  UNL     1       6.209   5.256  13.896  1.00  0.00    -0.120 Cl
ENDBRANCH  17  19
ENDBRANCH  16  17
ENDBRANCH  15  16
ENDBRANCH  13  15
BRANCH  14  21
HETATM   21  C19 UNL     1       4.187   1.310  17.961  1.00  0.00     0.120 C 
HETATM   22 CL1  UNL     1       4.010   0.241  16.562  1.00  0.00    -0.130 Cl
ENDBRANCH  14  21
ENDBRANCH   3   5
BRANCH   1  23
HETATM   23  C9  UNL     1       7.008   6.976  20.187  1.00  0.00     0.149 C 
BRANCH  23  24
HETATM   24  C8  UNL     1       6.850   8.409  19.799  1.00  0.00     0.123 C 
HETATM   25  C4  UNL     1       7.371   9.407  20.790  1.00  0.00     0.155 C 
HETATM   26  C5  UNL     1       7.239  10.782  20.229  1.00  0.00     0.003 C 
HETATM   27  C6  UNL     1       7.060  11.931  21.192  1.00  0.00     0.064 C 
HETATM   28  N1  UNL     1       7.274  10.990  18.973  1.00  0.00    -0.316 N 
HETATM   29  C7  UNL     1       7.432   9.975  18.008  1.00  0.00     0.320 C 
ATOM     30  H1  UNL     1       7.181  11.951  18.644  1.00  0.00     0.170 HD
HETATM   31  O3  UNL     1       7.472  10.170  16.786  1.00  0.00    -0.247 OA
HETATM   32  N2  UNL     1       7.552   8.641  18.517  1.00  0.00    -0.335 N 
ATOM     33  H2  UNL     1       8.078   7.912  18.036  1.00  0.00     0.164 HD
BRANCH  25  34
HETATM   34  C3  UNL     1       8.777   9.163  21.210  1.00  0.00     0.270 C 
HETATM   35  O2  UNL     1       9.706   9.589  20.484  1.00  0.00    -0.264 OA
BRANCH  34  36
HETATM   36  O1  UNL     1       9.098   8.488  22.365  1.00  0.00    -0.321 OA
BRANCH  36  37
HETATM   37  C2  UNL     1       9.333   9.156  23.588  1.00  0.00     0.174 C 
HETATM   38  C1  UNL     1      10.819   9.291  23.870  1.00  0.00     0.034 C 
ENDBRANCH  36  37
ENDBRANCH  34  36
ENDBRANCH  25  34
ENDBRANCH  23  24
ENDBRANCH   1  23
TORSDOF 11
ENDMDL
MODEL 4
REMARK VINA RESULT: -7.711964991      2.120      3.043
REMARK  11 active torsions:
REMARK  status: ('A' for Active; 'I' for Inactive)
REMARK    1  A    between atoms: C2_2  and  O1_3 
REMARK    2  A    between atoms: O1_3  and  C3_4 
REMARK    3  A    between atoms: C3_4  and  C4_6 
REMARK    4  A    between atoms: C8_15  and  C9_16 
REMARK    5  A    between atoms: C9_16  and  N3_17 
REMARK       I    between atoms: N3_17  and  C10_19 
REMARK    6  A    between atoms: C10_19  and  C11_21 
REMARK    7  A    between atoms: C18_28  and  C19_29 
REMARK    8  A    between atoms: C20_31  and  C21_32 
REMARK    9  A    between atoms: C21_32  and  O5_33 
REMARK   10  A    between atoms: O5_33  and  C22_34 
REMARK   11  A    between atoms: C22_34  and  C23_36 
ROOT
HETATM    1  N3  UNL     1       7.403   5.453  19.221  1.00  0.00    -0.359 N 
ATOM      2  H3  UNL     1       7.472   5.924  18.318  1.00  0.00     0.162 HD
HETATM    3  C10 UNL     1       7.869   4.122  19.301  1.00  0.00     0.222 C 
HETATM    4  O4  UNL     1       7.792   3.525  20.396  1.00  0.00    -0.273 OA
ENDROOT
BRANCH   3   5
HETATM    5  C11 UNL     1       8.453   3.377  18.148  1.00  0.00     0.083 C 
HETATM    6  C12 UNL     1       9.220   2.200  18.586  1.00  0.00     0.015 C 
HETATM    7  C13 UNL     1       8.744   0.844  18.251  1.00  0.00     0.006 C 
HETATM    8  C14 UNL     1       8.343   0.589  16.857  1.00  0.00    -0.009 C 
HETATM    9  C15 UNL     1       8.990   1.619  15.956  1.00  0.00     0.010 C 
HETATM   10  C17 UNL     1       7.023   1.065  16.404  1.00  0.00    -0.000 C 
HETATM   11  C16 UNL     1       7.680   2.343  15.969  1.00  0.00    -0.004 C 
HETATM   12  C24 UNL     1       7.442   3.256  17.096  1.00  0.00     0.010 C 
HETATM   13  C20 UNL     1       6.040   2.850  17.541  1.00  0.00     0.021 C 
HETATM   14  C18 UNL     1       5.973   1.369  17.418  1.00  0.00     0.011 C 
BRANCH  13  15
HETATM   15  C21 UNL     1       4.996   3.602  16.748  1.00  0.00     0.184 C 
BRANCH  15  16
HETATM   16  O5  UNL     1       4.944   4.962  17.124  1.00  0.00    -0.320 OA
BRANCH  16  17
HETATM   17  C22 UNL     1       5.363   5.986  16.306  1.00  0.00     0.272 C 
HETATM   18  O6  UNL     1       6.016   6.919  16.871  1.00  0.00    -0.264 OA
BRANCH  17  19
HETATM   19  C23 UNL     1       5.142   6.119  14.866  1.00  0.00     0.225 C 
HETATM   20 CL2  UNL     1       6.342   5.292  13.868  1.00  0.00    -0.120 Cl
ENDBRANCH  17  19
ENDBRANCH  16  17
ENDBRANCH  15  16
ENDBRANCH  13  15
BRANCH  14  21
HETATM   21  C19 UNL     1       4.637   0.808  17.011  1.00  0.00     0.120 C 
HETATM   22 CL1  UNL     1       4.701  -0.117  15.505  1.00  0.00    -0.130 Cl
ENDBRANCH  14  21
ENDBRANCH   3   5
BRANCH   1  23
HETATM   23  C9  UNL     1       6.847   6.181  20.302  1.00  0.00     0.149 C 
BRANCH  23  24
HETATM   24  C8  UNL     1       7.707   7.256  20.879  1.00  0.00     0.123 C 
HETATM   25  C4  UNL     1       7.308   8.659  20.527  1.00  0.00     0.155 C 
HETATM   26  C5  UNL     1       8.188   9.622  21.248  1.00  0.00     0.003 C 
HETATM   27  C6  UNL     1       8.446  10.967  20.612  1.00  0.00     0.064 C 
HETATM   28  N1  UNL     1       8.713   9.326  22.370  1.00  0.00    -0.316 N 
HETATM   29  C7  UNL     1       8.528   8.095  23.028  1.00  0.00     0.320 C 
ATOM     30  H1  UNL     1       9.305  10.024  22.821  1.00  0.00     0.170 HD
HETATM   31  O3  UNL     1       9.031   7.801  24.121  1.00  0.00    -0.247 OA
HETATM   32  N2  UNL     1       7.695   7.143  22.354  1.00  0.00    -0.335 N 
ATOM     33  H2  UNL     1       7.139   6.447  22.850  1.00  0.00     0.164 HD
BRANCH  25  34
HETATM   34  C3  UNL     1       5.880   8.968  20.804  1.00  0.00     0.270 C 
HETATM   35  O2  UNL     1       5.171   9.425  19.875  1.00  0.00    -0.264 OA
BRANCH  34  36
HETATM   36  O1  UNL     1       5.306   8.772  22.038  1.00  0.00    -0.321 OA
BRANCH  36  37
HETATM   37  C2  UNL     1       5.082   9.834  22.943  1.00  0.00     0.174 C 
HETATM   38  C1  UNL     1       5.351   9.408  24.376  1.00  0.00     0.034 C 
ENDBRANCH  36  37
ENDBRANCH  34  36
ENDBRANCH  25  34
ENDBRANCH  23  24
ENDBRANCH   1  23
TORSDOF 11
ENDMDL
MODEL 5
REMARK VINA RESULT: -7.667225411      1.791      1.977
REMARK  11 active torsions:
REMARK  status: ('A' for Active; 'I' for Inactive)
REMARK    1  A    between atoms: C2_2  and  O1_3 
REMARK    2  A    between atoms: O1_3  and  C3_4 
REMARK    3  A    between atoms: C3_4  and  C4_6 
REMARK    4  A    between atoms: C8_15  and  C9_16 
REMARK    5  A    between atoms: C9_16  and  N3_17 
REMARK       I    between atoms: N3_17  and  C10_19 
REMARK    6  A    between atoms: C10_19  and  C11_21 
REMARK    7  A    between atoms: C18_28  and  C19_29 
REMARK    8  A    between atoms: C20_31  and  C21_32 
REMARK    9  A    between atoms: C21_32  and  O5_33 
REMARK   10  A    between atoms: O5_33  and  C22_34 
REMARK   11  A    between atoms: C22_34  and  C23_36 
ROOT
HETATM    1  N3  UNL     1       7.553   5.969  19.215  1.00  0.00    -0.359 N 
ATOM      2  H3  UNL     1       7.555   6.358  18.272  1.00  0.00     0.162 HD
HETATM    3  C10 UNL     1       7.917   4.613  19.364  1.00  0.00     0.222 C 
HETATM    4  O4  UNL     1       7.920   4.115  20.511  1.00  0.00    -0.273 OA
ENDROOT
BRANCH   3   5
HETATM    5  C11 UNL     1       8.303   3.728  18.228  1.00  0.00     0.083 C 
HETATM    6  C12 UNL     1       9.047   2.542  18.681  1.00  0.00     0.015 C 
HETATM    7  C13 UNL     1       8.451   1.200  18.541  1.00  0.00     0.006 C 
HETATM    8  C14 UNL     1       7.861   0.851  17.238  1.00  0.00    -0.009 C 
HETATM    9  C15 UNL     1       8.447   1.747  16.169  1.00  0.00     0.010 C 
HETATM   10  C17 UNL     1       6.525   1.379  16.904  1.00  0.00    -0.000 C 
HETATM   11  C16 UNL     1       7.196   2.562  16.270  1.00  0.00    -0.004 C 
HETATM   12  C24 UNL     1       7.160   3.586  17.323  1.00  0.00     0.010 C 
HETATM   13  C20 UNL     1       5.805   3.324  17.973  1.00  0.00     0.021 C 
HETATM   14  C18 UNL     1       5.633   1.847  18.005  1.00  0.00     0.011 C 
BRANCH  13  15
HETATM   15  C21 UNL     1       4.714   4.075  17.244  1.00  0.00     0.184 C 
BRANCH  15  16
HETATM   16  O5  UNL     1       4.527   5.366  17.785  1.00  0.00    -0.320 OA
BRANCH  16  17
HETATM   17  C22 UNL     1       4.793   6.521  17.087  1.00  0.00     0.272 C 
HETATM   18  O6  UNL     1       6.004   6.700  16.746  1.00  0.00    -0.264 OA
BRANCH  17  19
HETATM   19  C23 UNL     1       3.841   7.561  16.697  1.00  0.00     0.225 C 
HETATM   20 CL2  UNL     1       3.852   8.984  17.741  1.00  0.00    -0.120 Cl
ENDBRANCH  17  19
ENDBRANCH  16  17
ENDBRANCH  15  16
ENDBRANCH  13  15
BRANCH  14  21
HETATM   21  C19 UNL     1       4.225   1.349  17.821  1.00  0.00     0.120 C 
HETATM   22 CL1  UNL     1       4.020   0.366  16.364  1.00  0.00    -0.130 Cl
ENDBRANCH  14  21
ENDBRANCH   3   5
BRANCH   1  23
HETATM   23  C9  UNL     1       7.186   6.829  20.280  1.00  0.00     0.149 C 
BRANCH  23  24
HETATM   24  C8  UNL     1       6.885   8.243  19.907  1.00  0.00     0.123 C 
HETATM   25  C4  UNL     1       7.332   9.280  20.895  1.00  0.00     0.155 C 
HETATM   26  C5  UNL     1       7.057  10.639  20.348  1.00  0.00     0.003 C 
HETATM   27  C6  UNL     1       6.792  11.761  21.323  1.00  0.00     0.064 C 
HETATM   28  N1  UNL     1       7.044  10.857  19.092  1.00  0.00    -0.316 N 
HETATM   29  C7  UNL     1       7.275   9.868  18.117  1.00  0.00     0.320 C 
ATOM     30  H1  UNL     1       6.853  11.807  18.774  1.00  0.00     0.170 HD
HETATM   31  O3  UNL     1       7.269  10.072  16.896  1.00  0.00    -0.247 OA
HETATM   32  N2  UNL     1       7.532   8.548  18.612  1.00  0.00    -0.335 N 
ATOM     33  H2  UNL     1       8.114   7.874  18.113  1.00  0.00     0.164 HD
BRANCH  25  34
HETATM   34  C3  UNL     1       8.763   9.167  21.281  1.00  0.00     0.270 C 
HETATM   35  O2  UNL     1       9.638   9.586  20.486  1.00  0.00    -0.264 OA
BRANCH  34  36
HETATM   36  O1  UNL     1       9.166   8.622  22.478  1.00  0.00    -0.321 OA
BRANCH  36  37
HETATM   37  C2  UNL     1       8.246   8.191  23.459  1.00  0.00     0.174 C 
HETATM   38  C1  UNL     1       8.198   9.151  24.634  1.00  0.00     0.034 C 
ENDBRANCH  36  37
ENDBRANCH  34  36
ENDBRANCH  25  34
ENDBRANCH  23  24
ENDBRANCH   1  23
TORSDOF 11
ENDMDL
