MODEL 1
REMARK VINA RESULT: -11.030663162      0.000      0.000
REMARK  7 active torsions:
REMARK  status: ('A' for Active; 'I' for Inactive)
REMARK    1  A    between atoms: N1_1  and  N2_4 
REMARK       I    between atoms: N2_4  and  C1_6 
REMARK    2  A    between atoms: C1_6  and  C2_8 
REMARK    3  A    between atoms: N5_13  and  C3_14 
REMARK    4  A    between atoms: C3_14  and  C4_15 
REMARK    5  A    between atoms: C4_15  and  N6_16 
REMARK    6  A    between atoms: N6_16  and  C5_17 
REMARK    7  A    between atoms: N6_16  and  C9_32 
ROOT
HETATM    1  N6  UNL     1      85.419  49.634   2.945  1.00  0.00    -0.164 N 
ENDROOT
BRANCH   1   2
HETATM    2  C4  UNL     1      84.433  49.433   3.967  1.00  0.00     0.171 C 
BRANCH   2   3
HETATM    3  C3  UNL     1      83.036  49.834   3.590  1.00  0.00     0.173 C 
BRANCH   3   4
HETATM    4  N5  UNL     1      82.150  49.010   4.426  1.00  0.00    -0.261 N 
HETATM    5  N4  UNL     1      82.267  48.763   5.697  1.00  0.00    -0.238 N 
HETATM    6  N3  UNL     1      81.286  47.971   6.121  1.00  0.00    -0.278 N 
ATOM      7  H4  UNL     1      83.012  49.127   6.291  1.00  0.00     0.208 HD
HETATM    8  C2  UNL     1      80.482  47.682   5.088  1.00  0.00     0.161 A 
ATOM      9  H3  UNL     1      81.164  47.639   7.077  1.00  0.00     0.189 HD
HETATM   10  C13 UNL     1      81.031  48.343   4.005  1.00  0.00     0.168 A 
HETATM   11  N16 UNL     1      80.539  48.330   2.697  1.00  0.00    -0.078 NA
BRANCH   8  12
HETATM   12  C1  UNL     1      79.250  46.865   5.084  1.00  0.00     0.291 C 
HETATM   13  N2  UNL     1      78.662  46.475   3.843  1.00  0.00    -0.271 N 
ATOM     14  H2  UNL     1      79.075  46.760   2.954  1.00  0.00     0.189 HD
HETATM   15  O1  UNL     1      78.738  46.523   6.162  1.00  0.00    -0.264 OA
BRANCH  13  16
HETATM   16  N1  UNL     1      77.500  45.691   3.881  1.00  0.00    -0.342 N 
ATOM     17  H12 UNL     1      77.223  45.230   4.748  1.00  0.00     0.176 HD
ATOM     18  H11 UNL     1      76.954  45.601   3.024  1.00  0.00     0.176 HD
ENDBRANCH  13  16
ENDBRANCH   8  12
ENDBRANCH   3   4
ENDBRANCH   2   3
ENDBRANCH   1   2
BRANCH   1  19
HETATM   19  C5  UNL     1      86.308  50.750   3.049  1.00  0.00     0.688 A 
HETATM   20  N7  UNL     1      87.192  51.040   4.025  1.00  0.00    -0.172 N 
HETATM   21  C6  UNL     1      87.844  52.171   3.727  1.00  0.00     0.167 A 
ATOM     22  H7  UNL     1      87.341  50.482   4.865  1.00  0.00     0.186 HD
HETATM   23  N8  UNL     1      88.795  52.905   4.308  1.00  0.00    -0.269 N 
HETATM   24  C8  UNL     1      87.344  52.604   2.509  1.00  0.00     0.137 A 
HETATM   25  N9  UNL     1      89.295  54.029   3.789  1.00  0.00    -0.240 N 
ATOM     26  H8  UNL     1      89.163  52.588   5.204  1.00  0.00     0.190 HD
HETATM   27  N10 UNL     1      88.846  54.471   2.629  1.00  0.00    -0.271 N 
ATOM     28  H9  UNL     1      90.021  54.544   4.288  1.00  0.00     0.208 HD
HETATM   29  C7  UNL     1      87.883  53.767   1.998  1.00  0.00     0.163 A 
ATOM     30  H10 UNL     1      89.219  55.327   2.218  1.00  0.00     0.190 HD
HETATM   31  N11 UNL     1      87.359  54.188   0.725  1.00  0.00    -0.079 NA
HETATM   32  N12 UNL     1      86.409  51.713   2.127  1.00  0.00    -0.184 N 
ATOM     33  H12 UNL     1      85.862  51.765   1.267  1.00  0.00     0.184 HD
ENDBRANCH   1  19
BRANCH   1  34
HETATM   34  C9  UNL     1      85.592  48.825   1.801  1.00  0.00     0.154 A 
HETATM   35  N13 UNL     1      86.087  49.241   0.615  1.00  0.00    -0.336 N 
HETATM   36  C10 UNL     1      86.206  48.415  -0.435  1.00  0.00     0.185 A 
ATOM     37  H13 UNL     1      86.378  50.214   0.515  1.00  0.00     0.168 HD
HETATM   38  N14 UNL     1      85.844  47.123  -0.381  1.00  0.00    -0.318 N 
HETATM   39  C11 UNL     1      85.345  46.641   0.770  1.00  0.00     0.274 A 
ATOM     40  H14 UNL     1      85.946  46.519  -1.197  1.00  0.00     0.169 HD
HETATM   41  O2  UNL     1      85.006  45.431   0.827  1.00  0.00    -0.266 OA
HETATM   42  C12 UNL     1      85.220  47.502   1.869  1.00  0.00     0.158 A 
HETATM   43  N15 UNL     1      84.703  46.983   3.082  1.00  0.00    -0.092 NA
ENDBRANCH   1  34
TORSDOF 7
ENDMDL
MODEL 2
REMARK VINA RESULT: -9.896666646      2.264      8.311
REMARK  7 active torsions:
REMARK  status: ('A' for Active; 'I' for Inactive)
REMARK    1  A    between atoms: N1_1  and  N2_4 
REMARK       I    between atoms: N2_4  and  C1_6 
REMARK    2  A    between atoms: C1_6  and  C2_8 
REMARK    3  A    between atoms: N5_13  and  C3_14 
REMARK    4  A    between atoms: C3_14  and  C4_15 
REMARK    5  A    between atoms: C4_15  and  N6_16 
REMARK    6  A    between atoms: N6_16  and  C5_17 
REMARK    7  A    between atoms: N6_16  and  C9_32 
ROOT
HETATM    1  N6  UNL     1      83.165  47.801   3.257  1.00  0.00    -0.164 N 
ENDROOT
BRANCH   1   2
HETATM    2  C4  UNL     1      83.602  49.070   3.760  1.00  0.00     0.171 C 
BRANCH   2   3
HETATM    3  C3  UNL     1      85.052  49.134   4.147  1.00  0.00     0.173 C 
BRANCH   3   4
HETATM    4  N5  UNL     1      85.690  49.998   3.142  1.00  0.00    -0.261 N 
HETATM    5  N4  UNL     1      85.837  49.758   1.872  1.00  0.00    -0.238 N 
HETATM    6  N3  UNL     1      86.467  50.761   1.268  1.00  0.00    -0.278 N 
ATOM      7  H4  UNL     1      85.512  48.913   1.402  1.00  0.00     0.208 HD
HETATM    8  C2  UNL     1      86.749  51.708   2.173  1.00  0.00     0.161 A 
ATOM      9  H3  UNL     1      86.698  50.803   0.275  1.00  0.00     0.189 HD
HETATM   10  C13 UNL     1      86.255  51.224   3.371  1.00  0.00     0.168 A 
HETATM   11  N16 UNL     1      86.325  51.866   4.610  1.00  0.00    -0.078 NA
BRANCH   8  12
HETATM   12  C1  UNL     1      87.413  53.011   1.962  1.00  0.00     0.291 C 
HETATM   13  N2  UNL     1      88.695  53.257   2.543  1.00  0.00    -0.271 N 
ATOM     14  H2  UNL     1      89.159  52.547   3.110  1.00  0.00     0.189 HD
HETATM   15  O1  UNL     1      86.851  53.883   1.280  1.00  0.00    -0.264 OA
BRANCH  13  16
HETATM   16  N1  UNL     1      89.297  54.502   2.310  1.00  0.00    -0.342 N 
ATOM     17  H12 UNL     1      90.251  54.675   2.625  1.00  0.00     0.176 HD
ATOM     18  H11 UNL     1      88.753  55.214   1.822  1.00  0.00     0.176 HD
ENDBRANCH  13  16
ENDBRANCH   8  12
ENDBRANCH   3   4
ENDBRANCH   2   3
ENDBRANCH   1   2
BRANCH   1  19
HETATM   19  C5  UNL     1      81.778  47.461   3.345  1.00  0.00     0.688 A 
HETATM   20  N7  UNL     1      80.899  47.220   2.351  1.00  0.00    -0.172 N 
HETATM   21  C6  UNL     1      79.701  46.917   2.865  1.00  0.00     0.167 A 
ATOM     22  H7  UNL     1      81.115  47.263   1.355  1.00  0.00     0.186 HD
HETATM   23  N8  UNL     1      78.503  46.599   2.370  1.00  0.00    -0.269 N 
HETATM   24  C8  UNL     1      79.839  46.970   4.243  1.00  0.00     0.137 A 
HETATM   25  N9  UNL     1      77.431  46.329   3.118  1.00  0.00    -0.240 N 
ATOM     26  H8  UNL     1      78.400  46.560   1.356  1.00  0.00     0.190 HD
HETATM   27  N10 UNL     1      77.525  46.367   4.435  1.00  0.00    -0.271 N 
ATOM     28  H9  UNL     1      76.543  46.096   2.674  1.00  0.00     0.208 HD
HETATM   29  C7  UNL     1      78.715  46.683   4.989  1.00  0.00     0.163 A 
ATOM     30  H10 UNL     1      76.716  46.162   5.021  1.00  0.00     0.190 HD
HETATM   31  N11 UNL     1      78.887  46.730   6.417  1.00  0.00    -0.079 NA
HETATM   32  N12 UNL     1      81.118  47.306   4.499  1.00  0.00    -0.184 N 
ATOM     33  H12 UNL     1      81.522  47.424   5.428  1.00  0.00     0.184 HD
ENDBRANCH   1  19
BRANCH   1  34
HETATM   34  C9  UNL     1      83.994  46.815   2.681  1.00  0.00     0.154 A 
HETATM   35  N13 UNL     1      84.503  45.743   3.328  1.00  0.00    -0.336 N 
HETATM   36  C10 UNL     1      85.300  44.856   2.715  1.00  0.00     0.185 A 
ATOM     37  H13 UNL     1      84.273  45.605   4.312  1.00  0.00     0.168 HD
HETATM   38  N14 UNL     1      85.648  44.969   1.423  1.00  0.00    -0.318 N 
HETATM   39  C11 UNL     1      85.176  46.012   0.718  1.00  0.00     0.274 A 
ATOM     40  H14 UNL     1      86.257  44.279   0.985  1.00  0.00     0.169 HD
HETATM   41  O2  UNL     1      85.497  46.122  -0.493  1.00  0.00    -0.266 OA
HETATM   42  C12 UNL     1      84.342  46.941   1.356  1.00  0.00     0.158 A 
HETATM   43  N15 UNL     1      83.840  48.030   0.602  1.00  0.00    -0.092 NA
ENDBRANCH   1  34
TORSDOF 7
ENDMDL
MODEL 3
REMARK VINA RESULT: -9.762328943      7.673     11.437
REMARK  7 active torsions:
REMARK  status: ('A' for Active; 'I' for Inactive)
REMARK    1  A    between atoms: N1_1  and  N2_4 
REMARK       I    between atoms: N2_4  and  C1_6 
REMARK    2  A    between atoms: C1_6  and  C2_8 
REMARK    3  A    between atoms: N5_13  and  C3_14 
REMARK    4  A    between atoms: C3_14  and  C4_15 
REMARK    5  A    between atoms: C4_15  and  N6_16 
REMARK    6  A    between atoms: N6_16  and  C5_17 
REMARK    7  A    between atoms: N6_16  and  C9_32 
ROOT
HETATM    1  N6  UNL     1      85.026  57.154   6.820  1.00  0.00    -0.164 N 
ENDROOT
BRANCH   1   2
HETATM    2  C4  UNL     1      85.185  56.527   5.540  1.00  0.00     0.171 C 
BRANCH   2   3
HETATM    3  C3  UNL     1      86.317  57.058   4.708  1.00  0.00     0.173 C 
BRANCH   3   4
HETATM    4  N5  UNL     1      87.201  55.908   4.466  1.00  0.00    -0.261 N 
HETATM    5  N4  UNL     1      86.900  54.646   4.559  1.00  0.00    -0.238 N 
HETATM    6  N3  UNL     1      87.952  53.884   4.273  1.00  0.00    -0.278 N 
ATOM      7  H4  UNL     1      85.981  54.288   4.816  1.00  0.00     0.208 HD
HETATM    8  C2  UNL     1      88.995  54.672   3.977  1.00  0.00     0.161 A 
ATOM      9  H3  UNL     1      87.963  52.864   4.279  1.00  0.00     0.189 HD
HETATM   10  C13 UNL     1      88.519  55.965   4.099  1.00  0.00     0.168 A 
HETATM   11  N16 UNL     1      89.254  57.136   3.895  1.00  0.00    -0.078 NA
BRANCH   8  12
HETATM   12  C1  UNL     1      90.359  54.276   3.571  1.00  0.00     0.291 C 
HETATM   13  N2  UNL     1      91.488  54.963   4.112  1.00  0.00    -0.271 N 
ATOM     14  H2  UNL     1      91.368  55.732   4.771  1.00  0.00     0.189 HD
HETATM   15  O1  UNL     1      90.513  53.346   2.762  1.00  0.00    -0.264 OA
BRANCH  13  16
HETATM   16  N1  UNL     1      92.767  54.549   3.710  1.00  0.00    -0.342 N 
ATOM     17  H12 UNL     1      93.525  54.499   4.391  1.00  0.00     0.176 HD
ATOM     18  H11 UNL     1      92.906  54.305   2.730  1.00  0.00     0.176 HD
ENDBRANCH  13  16
ENDBRANCH   8  12
ENDBRANCH   3   4
ENDBRANCH   2   3
ENDBRANCH   1   2
BRANCH   1  19
HETATM   19  C5  UNL     1      83.747  57.687   7.177  1.00  0.00     0.688 A 
HETATM   20  N7  UNL     1      82.569  57.044   7.309  1.00  0.00    -0.172 N 
HETATM   21  C6  UNL     1      81.617  57.911   7.678  1.00  0.00     0.167 A 
ATOM     22  H7  UNL     1      82.424  56.047   7.152  1.00  0.00     0.186 HD
HETATM   23  N8  UNL     1      80.311  57.837   7.945  1.00  0.00    -0.269 N 
HETATM   24  C8  UNL     1      82.230  59.150   7.780  1.00  0.00     0.137 A 
HETATM   25  N9  UNL     1      79.561  58.881   8.305  1.00  0.00    -0.240 N 
ATOM     26  H8  UNL     1      79.859  56.927   7.870  1.00  0.00     0.190 HD
HETATM   27  N10 UNL     1      80.111  60.075   8.417  1.00  0.00    -0.271 N 
ATOM     28  H9  UNL     1      78.566  58.755   8.493  1.00  0.00     0.208 HD
HETATM   29  C7  UNL     1      81.429  60.207   8.158  1.00  0.00     0.163 A 
ATOM     30  H10 UNL     1      79.551  60.883   8.693  1.00  0.00     0.190 HD
HETATM   31  N11 UNL     1      82.092  61.480   8.272  1.00  0.00    -0.079 NA
HETATM   32  N12 UNL     1      83.528  58.974   7.467  1.00  0.00    -0.184 N 
ATOM     33  H12 UNL     1      84.236  59.709   7.453  1.00  0.00     0.184 HD
ENDBRANCH   1  19
BRANCH   1  34
HETATM   34  C9  UNL     1      86.042  57.319   7.786  1.00  0.00     0.154 A 
HETATM   35  N13 UNL     1      87.022  58.247   7.741  1.00  0.00    -0.336 N 
HETATM   36  C10 UNL     1      87.965  58.330   8.691  1.00  0.00     0.185 A 
ATOM     37  H13 UNL     1      87.046  58.904   6.962  1.00  0.00     0.168 HD
HETATM   38  N14 UNL     1      88.002  57.501   9.747  1.00  0.00    -0.318 N 
HETATM   39  C11 UNL     1      87.055  56.554   9.855  1.00  0.00     0.274 A 
ATOM     40  H14 UNL     1      88.732  57.589  10.453  1.00  0.00     0.169 HD
HETATM   41  O2  UNL     1      87.083  55.775  10.844  1.00  0.00    -0.266 OA
HETATM   42  C12 UNL     1      86.067  56.465   8.864  1.00  0.00     0.158 A 
HETATM   43  N15 UNL     1      85.066  55.470   8.992  1.00  0.00    -0.092 NA
ENDBRANCH   1  34
TORSDOF 7
ENDMDL
MODEL 4
REMARK VINA RESULT: -9.673769703      7.049     10.133
REMARK  7 active torsions:
REMARK  status: ('A' for Active; 'I' for Inactive)
REMARK    1  A    between atoms: N1_1  and  N2_4 
REMARK       I    between atoms: N2_4  and  C1_6 
REMARK    2  A    between atoms: C1_6  and  C2_8 
REMARK    3  A    between atoms: N5_13  and  C3_14 
REMARK    4  A    between atoms: C3_14  and  C4_15 
REMARK    5  A    between atoms: C4_15  and  N6_16 
REMARK    6  A    between atoms: N6_16  and  C5_17 
REMARK    7  A    between atoms: N6_16  and  C9_32 
ROOT
HETATM    1  N6  UNL     1      86.621  57.465   5.052  1.00  0.00    -0.164 N 
ENDROOT
BRANCH   1   2
HETATM    2  C4  UNL     1      85.465  57.908   4.329  1.00  0.00     0.171 C 
BRANCH   2   3
HETATM    3  C3  UNL     1      84.700  59.025   4.978  1.00  0.00     0.173 C 
BRANCH   3   4
HETATM    4  N5  UNL     1      83.985  58.410   6.106  1.00  0.00    -0.261 N 
HETATM    5  N4  UNL     1      83.355  57.272   6.117  1.00  0.00    -0.238 N 
HETATM    6  N3  UNL     1      82.820  57.036   7.311  1.00  0.00    -0.278 N 
ATOM      7  H4  UNL     1      83.280  56.645   5.316  1.00  0.00     0.208 HD
HETATM    8  C2  UNL     1      83.108  58.058   8.129  1.00  0.00     0.161 A 
ATOM      9  H3  UNL     1      82.278  56.210   7.564  1.00  0.00     0.189 HD
HETATM   10  C13 UNL     1      83.851  58.937   7.363  1.00  0.00     0.168 A 
HETATM   11  N16 UNL     1      84.373  60.161   7.788  1.00  0.00    -0.078 NA
BRANCH   8  12
HETATM   12  C1  UNL     1      82.752  58.222   9.553  1.00  0.00     0.291 C 
HETATM   13  N2  UNL     1      82.677  59.531  10.119  1.00  0.00    -0.271 N 
ATOM     14  H2  UNL     1      82.875  60.358   9.556  1.00  0.00     0.189 HD
HETATM   15  O1  UNL     1      82.517  57.219  10.247  1.00  0.00    -0.264 OA
BRANCH  13  16
HETATM   16  N1  UNL     1      82.325  59.646  11.472  1.00  0.00    -0.342 N 
ATOM     17  H12 UNL     1      81.622  59.024  11.871  1.00  0.00     0.176 HD
ATOM     18  H11 UNL     1      82.790  60.362  12.030  1.00  0.00     0.176 HD
ENDBRANCH  13  16
ENDBRANCH   8  12
ENDBRANCH   3   4
ENDBRANCH   2   3
ENDBRANCH   1   2
BRANCH   1  19
HETATM   19  C5  UNL     1      87.321  56.304   4.595  1.00  0.00     0.688 A 
HETATM   20  N7  UNL     1      88.580  56.205   4.121  1.00  0.00    -0.172 N 
HETATM   21  C6  UNL     1      88.855  54.930   3.821  1.00  0.00     0.167 A 
ATOM     22  H7  UNL     1      89.226  56.985   4.008  1.00  0.00     0.186 HD
HETATM   23  N8  UNL     1      89.908  54.270   3.334  1.00  0.00    -0.269 N 
HETATM   24  C8  UNL     1      87.716  54.200   4.122  1.00  0.00     0.137 A 
HETATM   25  N9  UNL     1      89.933  52.952   3.120  1.00  0.00    -0.240 N 
ATOM     26  H8  UNL     1      90.746  54.805   3.112  1.00  0.00     0.190 HD
HETATM   27  N10 UNL     1      88.867  52.224   3.399  1.00  0.00    -0.271 N 
ATOM     28  H9  UNL     1      90.771  52.511   2.743  1.00  0.00     0.208 HD
HETATM   29  C7  UNL     1      87.773  52.840   3.894  1.00  0.00     0.163 A 
ATOM     30  H10 UNL     1      88.871  51.216   3.243  1.00  0.00     0.190 HD
HETATM   31  N11 UNL     1      86.584  52.102   4.229  1.00  0.00    -0.079 NA
HETATM   32  N12 UNL     1      86.802  55.071   4.591  1.00  0.00    -0.184 N 
ATOM     33  H12 UNL     1      85.859  54.828   4.896  1.00  0.00     0.184 HD
ENDBRANCH   1  19
BRANCH   1  34
HETATM   34  C9  UNL     1      87.143  58.067   6.217  1.00  0.00     0.154 A 
HETATM   35  N13 UNL     1      87.866  59.208   6.253  1.00  0.00    -0.336 N 
HETATM   36  C10 UNL     1      88.344  59.710   7.400  1.00  0.00     0.185 A 
ATOM     37  H13 UNL     1      88.054  59.702   5.380  1.00  0.00     0.168 HD
HETATM   38  N14 UNL     1      88.139  59.119   8.588  1.00  0.00    -0.318 N 
HETATM   39  C11 UNL     1      87.427  57.980   8.626  1.00  0.00     0.274 A 
ATOM     40  H14 UNL     1      88.517  59.525   9.444  1.00  0.00     0.169 HD
HETATM   41  O2  UNL     1      87.231  57.422   9.737  1.00  0.00    -0.266 OA
HETATM   42  C12 UNL     1      86.925  57.452   7.428  1.00  0.00     0.158 A 
HETATM   43  N15 UNL     1      86.165  56.258   7.479  1.00  0.00    -0.092 NA
ENDBRANCH   1  34
TORSDOF 7
ENDMDL
MODEL 5
REMARK VINA RESULT: -9.657216386      4.878      8.483
REMARK  7 active torsions:
REMARK  status: ('A' for Active; 'I' for Inactive)
REMARK    1  A    between atoms: N1_1  and  N2_4 
REMARK       I    between atoms: N2_4  and  C1_6 
REMARK    2  A    between atoms: C1_6  and  C2_8 
REMARK    3  A    between atoms: N5_13  and  C3_14 
REMARK    4  A    between atoms: C3_14  and  C4_15 
REMARK    5  A    between atoms: C4_15  and  N6_16 
REMARK    6  A    between atoms: N6_16  and  C5_17 
REMARK    7  A    between atoms: N6_16  and  C9_32 
ROOT
HETATM    1  N6  UNL     1      87.324  56.510   3.368  1.00  0.00    -0.164 N 
ENDROOT
BRANCH   1   2
HETATM    2  C4  UNL     1      88.682  56.112   3.604  1.00  0.00     0.171 C 
BRANCH   2   3
HETATM    3  C3  UNL     1      89.175  54.991   2.736  1.00  0.00     0.173 C 
BRANCH   3   4
HETATM    4  N5  UNL     1      88.494  53.784   3.226  1.00  0.00    -0.261 N 
HETATM    5  N4  UNL     1      88.639  53.209   4.384  1.00  0.00    -0.238 N 
HETATM    6  N3  UNL     1      87.865  52.132   4.481  1.00  0.00    -0.278 N 
ATOM      7  H4  UNL     1      89.262  53.541   5.120  1.00  0.00     0.208 HD
HETATM    8  C2  UNL     1      87.176  51.985   3.341  1.00  0.00     0.161 A 
ATOM      9  H3  UNL     1      87.806  51.517   5.293  1.00  0.00     0.189 HD
HETATM   10  C13 UNL     1      87.576  53.037   2.538  1.00  0.00     0.168 A 
HETATM   11  N16 UNL     1      87.130  53.297   1.239  1.00  0.00    -0.078 NA
BRANCH   8  12
HETATM   12  C1  UNL     1      86.176  50.952   3.000  1.00  0.00     0.291 C 
HETATM   13  N2  UNL     1      86.499  49.939   2.046  1.00  0.00    -0.271 N 
ATOM     14  H2  UNL     1      87.410  49.921   1.589  1.00  0.00     0.189 HD
HETATM   15  O1  UNL     1      85.062  50.973   3.547  1.00  0.00    -0.264 OA
BRANCH  13  16
HETATM   16  N1  UNL     1      85.527  48.971   1.758  1.00  0.00    -0.342 N 
ATOM     17  H12 UNL     1      84.656  49.241   1.300  1.00  0.00     0.176 HD
ATOM     18  H11 UNL     1      85.721  48.003   2.018  1.00  0.00     0.176 HD
ENDBRANCH  13  16
ENDBRANCH   8  12
ENDBRANCH   3   4
ENDBRANCH   2   3
ENDBRANCH   1   2
BRANCH   1  19
HETATM   19  C5  UNL     1      86.416  56.564   4.472  1.00  0.00     0.688 A 
HETATM   20  N7  UNL     1      85.098  56.852   4.471  1.00  0.00    -0.172 N 
HETATM   21  C6  UNL     1      84.614  56.772   5.717  1.00  0.00     0.167 A 
ATOM     22  H7  UNL     1      84.552  57.094   3.645  1.00  0.00     0.186 HD
HETATM   23  N8  UNL     1      83.422  56.947   6.290  1.00  0.00    -0.269 N 
HETATM   24  C8  UNL     1      85.679  56.418   6.531  1.00  0.00     0.137 A 
HETATM   25  N9  UNL     1      83.191  56.802   7.597  1.00  0.00    -0.240 N 
ATOM     26  H8  UNL     1      82.638  57.208   5.693  1.00  0.00     0.190 HD
HETATM   27  N10 UNL     1      84.180  56.461   8.403  1.00  0.00    -0.271 N 
ATOM     28  H9  UNL     1      82.254  56.954   7.971  1.00  0.00     0.208 HD
HETATM   29  C7  UNL     1      85.407  56.272   7.876  1.00  0.00     0.163 A 
ATOM     30  H10 UNL     1      84.019  56.344   9.404  1.00  0.00     0.190 HD
HETATM   31  N11 UNL     1      86.525  55.888   8.698  1.00  0.00    -0.079 NA
HETATM   32  N12 UNL     1      86.760  56.300   5.737  1.00  0.00    -0.184 N 
ATOM     33  H12 UNL     1      87.698  56.049   6.052  1.00  0.00     0.184 HD
ENDBRANCH   1  19
BRANCH   1  34
HETATM   34  C9  UNL     1      86.773  56.847   2.113  1.00  0.00     0.154 A 
HETATM   35  N13 UNL     1      86.031  56.028   1.337  1.00  0.00    -0.336 N 
HETATM   36  C10 UNL     1      85.555  56.416   0.145  1.00  0.00     0.185 A 
ATOM     37  H13 UNL     1      85.825  55.085   1.669  1.00  0.00     0.168 HD
HETATM   38  N14 UNL     1      85.783  57.639  -0.360  1.00  0.00    -0.318 N 
HETATM   39  C11 UNL     1      86.514  58.507   0.360  1.00  0.00     0.274 A 
ATOM     40  H14 UNL     1      85.408  57.905  -1.270  1.00  0.00     0.169 HD
HETATM   41  O2  UNL     1      86.729  59.656  -0.107  1.00  0.00    -0.266 OA
HETATM   42  C12 UNL     1      87.012  58.105   1.607  1.00  0.00     0.158 A 
HETATM   43  N15 UNL     1      87.772  59.030   2.365  1.00  0.00    -0.092 NA
ENDBRANCH   1  34
TORSDOF 7
ENDMDL
