MODEL 1
REMARK VINA RESULT: -9.133723318      0.000      0.000
REMARK  13 active torsions:
REMARK  status: ('A' for Active; 'I' for Inactive)
REMARK    1  A    between atoms: N1_1  and  C1_4 
REMARK    2  A    between atoms: N5_11  and  C2_12 
REMARK    3  A    between atoms: C2_12  and  C3_13 
REMARK    4  A    between atoms: C5_23  and  N10_24 
REMARK    5  A    between atoms: N10_24  and  C6_26 
REMARK    6  A    between atoms: C6_26  and  N11_27 
REMARK    7  A    between atoms: C6_26  and  C7_31 
REMARK    8  A    between atoms: C7_31  and  C8_32 
REMARK    9  A    between atoms: C8_32  and  N12_33 
REMARK   10  A    between atoms: N13_35  and  C9_37 
REMARK   11  A    between atoms: C9_37  and  N14_39 
REMARK   12  A    between atoms: N14_39  and  N15_41 
REMARK   13  A    between atoms: C10_44  and  O2_45 
ROOT
HETATM    1  C3  UNL     1      85.632  49.599   3.011  1.00  0.00     0.144 A 
HETATM    2  N6  UNL     1      86.432  49.259   1.964  1.00  0.00    -0.270 N 
ATOM      3  H6  UNL     1      87.320  49.744   1.838  1.00  0.00     0.190 HD
HETATM    4  N7  UNL     1      86.085  48.318   1.112  1.00  0.00    -0.225 N 
ATOM      5  H7  UNL     1      86.701  48.081   0.334  1.00  0.00     0.210 HD
HETATM    6  N8  UNL     1      84.941  47.684   1.266  1.00  0.00    -0.203 N 
ATOM      7  H8  UNL     1      84.676  46.956   0.603  1.00  0.00     0.212 HD
HETATM    8  N9  UNL     1      84.132  47.979   2.267  1.00  0.00    -0.129 N 
HETATM    9  C4  UNL     1      82.947  47.469   2.627  1.00  0.00     0.314 A 
HETATM   10  O1  UNL     1      82.276  46.559   2.076  1.00  0.00    -0.262 OA
HETATM   11  C5  UNL     1      82.534  48.126   3.763  1.00  0.00     0.155 A 
HETATM   12  C10 UNL     1      83.509  49.036   4.062  1.00  0.00     0.198 A 
HETATM   13  N16 UNL     1      84.476  48.941   3.148  1.00  0.00    -0.190 N 
ENDROOT
BRANCH  11  14
HETATM   14  N10 UNL     1      81.323  47.887   4.507  1.00  0.00    -0.355 N 
ATOM     15  H10 UNL     1      80.577  48.582   4.520  1.00  0.00     0.162 HD
BRANCH  14  16
HETATM   16  C6  UNL     1      81.187  46.650   5.231  1.00  0.00     0.283 C 
BRANCH  16  17
HETATM   17  N11 UNL     1      81.390  45.463   4.465  1.00  0.00    -0.058 N 
ATOM     18 3H11 UNL     1      80.740  44.737   4.768  1.00  0.00     0.276 HD
ATOM     19 2H11 UNL     1      81.068  45.607   3.508  1.00  0.00     0.276 HD
ATOM     20 1H11 UNL     1      82.343  45.100   4.461  1.00  0.00     0.276 HD
ENDBRANCH  16  17
BRANCH  16  21
HETATM   21  C7  UNL     1      79.807  46.652   5.893  1.00  0.00     0.075 C 
BRANCH  21  22
HETATM   22  C8  UNL     1      78.765  47.147   4.911  1.00  0.00     0.143 C 
BRANCH  22  23
HETATM   23  N12 UNL     1      77.883  46.067   4.531  1.00  0.00    -0.334 N 
HETATM   24  N13 UNL     1      77.488  45.875   3.338  1.00  0.00    -0.279 N 
ATOM     25  H13 UNL     1      76.866  45.097   3.121  1.00  0.00     0.189 HD
ATOM     26  H12 UNL     1      77.560  45.427   5.257  1.00  0.00     0.180 HD
BRANCH  24  27
HETATM   27  C9  UNL     1      77.924  46.754   2.308  1.00  0.00     0.204 C 
HETATM   28  S1  UNL     1      76.800  47.652   1.566  1.00  0.00    -0.038 SA
BRANCH  27  29
HETATM   29  N14 UNL     1      79.274  46.856   1.933  1.00  0.00    -0.282 N 
ATOM     30  H14 UNL     1      79.991  46.395   2.493  1.00  0.00     0.189 HD
BRANCH  29  31
HETATM   31  N15 UNL     1      79.641  47.580   0.803  1.00  0.00    -0.343 N 
ATOM     32 2H15 UNL     1      79.590  47.126  -0.109  1.00  0.00     0.176 HD
ATOM     33 1H15 UNL     1      79.954  48.547   0.888  1.00  0.00     0.176 HD
ENDBRANCH  29  31
ENDBRANCH  27  29
ENDBRANCH  24  27
ENDBRANCH  22  23
ENDBRANCH  21  22
ENDBRANCH  16  21
ENDBRANCH  14  16
ENDBRANCH  11  14
BRANCH  12  34
HETATM   34  O2  UNL     1      83.455  49.883   5.142  1.00  0.00    -0.343 OA
ATOM     35  H2  UNL     1      82.697  50.414   5.357  1.00  0.00     0.219 HD
ENDBRANCH  12  34
BRANCH   1  36
HETATM   36  C2  UNL     1      86.105  50.635   3.897  1.00  0.00     0.249 C 
BRANCH  36  37
HETATM   37  N5  UNL     1      86.721  51.671   3.045  1.00  0.00    -0.100 N 
HETATM   38  C1  UNL     1      87.792  52.433   3.265  1.00  0.00     0.710 A 
HETATM   39  N2  UNL     1      88.010  53.263   2.210  1.00  0.00    -0.115 N 
HETATM   40  N3  UNL     1      87.044  52.978   1.358  1.00  0.00    -0.213 N 
ATOM     41  H2  UNL     1      88.755  53.952   2.102  1.00  0.00     0.207 HD
HETATM   42  N4  UNL     1      86.267  52.032   1.838  1.00  0.00    -0.211 N 
ATOM     43  H3  UNL     1      86.918  53.430   0.452  1.00  0.00     0.210 HD
ATOM     44  H4  UNL     1      85.452  51.638   1.368  1.00  0.00     0.210 HD
BRANCH  38  45
HETATM   45  N1  UNL     1      88.518  52.377   4.344  1.00  0.00    -0.232 N 
ATOM     46  H12 UNL     1      88.403  52.999   5.144  1.00  0.00     0.174 HD
ATOM     47  H11 UNL     1      89.273  51.713   4.515  1.00  0.00     0.174 HD
ENDBRANCH  38  45
ENDBRANCH  36  37
ENDBRANCH   1  36
TORSDOF 13
ENDMDL
MODEL 2
REMARK VINA RESULT: -8.373011851      3.360      8.721
REMARK  13 active torsions:
REMARK  status: ('A' for Active; 'I' for Inactive)
REMARK    1  A    between atoms: N1_1  and  C1_4 
REMARK    2  A    between atoms: N5_11  and  C2_12 
REMARK    3  A    between atoms: C2_12  and  C3_13 
REMARK    4  A    between atoms: C5_23  and  N10_24 
REMARK    5  A    between atoms: N10_24  and  C6_26 
REMARK    6  A    between atoms: C6_26  and  N11_27 
REMARK    7  A    between atoms: C6_26  and  C7_31 
REMARK    8  A    between atoms: C7_31  and  C8_32 
REMARK    9  A    between atoms: C8_32  and  N12_33 
REMARK   10  A    between atoms: N13_35  and  C9_37 
REMARK   11  A    between atoms: C9_37  and  N14_39 
REMARK   12  A    between atoms: N14_39  and  N15_41 
REMARK   13  A    between atoms: C10_44  and  O2_45 
ROOT
HETATM    1  C3  UNL     1      82.017  47.190   4.187  1.00  0.00     0.144 A 
HETATM    2  N6  UNL     1      82.041  45.901   3.755  1.00  0.00    -0.270 N 
ATOM      3  H6  UNL     1      81.289  45.269   4.029  1.00  0.00     0.190 HD
HETATM    4  N7  UNL     1      83.013  45.451   2.990  1.00  0.00    -0.225 N 
ATOM      5  H7  UNL     1      83.009  44.479   2.678  1.00  0.00     0.210 HD
HETATM    6  N8  UNL     1      83.989  46.258   2.628  1.00  0.00    -0.203 N 
ATOM      7  H8  UNL     1      84.739  45.904   2.035  1.00  0.00     0.212 HD
HETATM    8  N9  UNL     1      84.009  47.517   3.023  1.00  0.00    -0.129 N 
HETATM    9  C4  UNL     1      84.874  48.509   2.774  1.00  0.00     0.314 A 
HETATM   10  O1  UNL     1      85.929  48.487   2.091  1.00  0.00    -0.262 OA
HETATM   11  C5  UNL     1      84.417  49.636   3.418  1.00  0.00     0.155 A 
HETATM   12  C10 UNL     1      83.259  49.280   4.050  1.00  0.00     0.198 A 
HETATM   13  N16 UNL     1      83.018  47.991   3.807  1.00  0.00    -0.190 N 
ENDROOT
BRANCH  11  14
HETATM   14  N10 UNL     1      85.026  50.942   3.409  1.00  0.00    -0.355 N 
ATOM     15  H10 UNL     1      84.489  51.767   3.675  1.00  0.00     0.162 HD
BRANCH  14  16
HETATM   16  C6  UNL     1      86.406  51.060   3.016  1.00  0.00     0.283 C 
BRANCH  16  17
HETATM   17  N11 UNL     1      87.305  51.480   4.041  1.00  0.00    -0.058 N 
ATOM     18 3H11 UNL     1      87.150  52.465   4.259  1.00  0.00     0.276 HD
ATOM     19 2H11 UNL     1      87.043  51.054   4.930  1.00  0.00     0.276 HD
ATOM     20 1H11 UNL     1      88.294  51.315   3.854  1.00  0.00     0.276 HD
ENDBRANCH  16  17
BRANCH  16  21
HETATM   21  C7  UNL     1      86.464  52.001   1.809  1.00  0.00     0.075 C 
BRANCH  21  22
HETATM   22  C8  UNL     1      87.530  53.055   2.028  1.00  0.00     0.143 C 
BRANCH  22  23
HETATM   23  N12 UNL     1      87.035  54.356   1.640  1.00  0.00    -0.334 N 
HETATM   24  N13 UNL     1      87.144  55.391   2.370  1.00  0.00    -0.279 N 
ATOM     25  H13 UNL     1      86.778  56.287   2.049  1.00  0.00     0.189 HD
ATOM     26  H12 UNL     1      86.574  54.448   0.735  1.00  0.00     0.180 HD
BRANCH  24  27
HETATM   27  C9  UNL     1      87.782  55.288   3.637  1.00  0.00     0.204 C 
HETATM   28  S1  UNL     1      89.344  55.702   3.725  1.00  0.00    -0.038 SA
BRANCH  27  29
HETATM   29  N14 UNL     1      87.100  54.843   4.783  1.00  0.00    -0.282 N 
ATOM     30  H14 UNL     1      87.338  53.942   5.196  1.00  0.00     0.189 HD
BRANCH  29  31
HETATM   31  N15 UNL     1      86.102  55.624   5.358  1.00  0.00    -0.343 N 
ATOM     32 2H15 UNL     1      85.893  56.534   4.946  1.00  0.00     0.176 HD
ATOM     33 1H15 UNL     1      85.591  55.292   6.175  1.00  0.00     0.176 HD
ENDBRANCH  29  31
ENDBRANCH  27  29
ENDBRANCH  24  27
ENDBRANCH  22  23
ENDBRANCH  21  22
ENDBRANCH  16  21
ENDBRANCH  14  16
ENDBRANCH  11  14
BRANCH  12  34
HETATM   34  O2  UNL     1      82.503  50.149   4.800  1.00  0.00    -0.343 OA
ATOM     35  H2  UNL     1      82.542  51.094   4.710  1.00  0.00     0.219 HD
ENDBRANCH  12  34
BRANCH   1  36
HETATM   36  C2  UNL     1      80.904  47.593   5.013  1.00  0.00     0.249 C 
BRANCH  36  37
HETATM   37  N5  UNL     1      79.691  47.019   4.396  1.00  0.00    -0.100 N 
HETATM   38  C1  UNL     1      78.626  46.456   4.967  1.00  0.00     0.710 A 
HETATM   39  N2  UNL     1      77.735  46.058   4.020  1.00  0.00    -0.115 N 
HETATM   40  N3  UNL     1      78.294  46.395   2.873  1.00  0.00    -0.213 N 
ATOM     41  H2  UNL     1      76.835  45.600   4.164  1.00  0.00     0.207 HD
HETATM   42  N4  UNL     1      79.459  46.969   3.078  1.00  0.00    -0.211 N 
ATOM     43  H3  UNL     1      77.880  46.233   1.956  1.00  0.00     0.210 HD
ATOM     44  H4  UNL     1      80.084  47.320   2.352  1.00  0.00     0.210 HD
BRANCH  38  45
HETATM   45  N1  UNL     1      78.476  46.318   6.251  1.00  0.00    -0.232 N 
ATOM     46  H12 UNL     1      77.580  46.139   6.707  1.00  0.00     0.174 HD
ATOM     47  H11 UNL     1      79.223  46.369   6.943  1.00  0.00     0.174 HD
ENDBRANCH  38  45
ENDBRANCH  36  37
ENDBRANCH   1  36
TORSDOF 13
ENDMDL
MODEL 3
REMARK VINA RESULT: -8.256868348      3.276      8.914
REMARK  13 active torsions:
REMARK  status: ('A' for Active; 'I' for Inactive)
REMARK    1  A    between atoms: N1_1  and  C1_4 
REMARK    2  A    between atoms: N5_11  and  C2_12 
REMARK    3  A    between atoms: C2_12  and  C3_13 
REMARK    4  A    between atoms: C5_23  and  N10_24 
REMARK    5  A    between atoms: N10_24  and  C6_26 
REMARK    6  A    between atoms: C6_26  and  N11_27 
REMARK    7  A    between atoms: C6_26  and  C7_31 
REMARK    8  A    between atoms: C7_31  and  C8_32 
REMARK    9  A    between atoms: C8_32  and  N12_33 
REMARK   10  A    between atoms: N13_35  and  C9_37 
REMARK   11  A    between atoms: C9_37  and  N14_39 
REMARK   12  A    between atoms: N14_39  and  N15_41 
REMARK   13  A    between atoms: C10_44  and  O2_45 
ROOT
HETATM    1  C3  UNL     1      81.880  46.760   4.101  1.00  0.00     0.144 A 
HETATM    2  N6  UNL     1      81.742  45.407   4.138  1.00  0.00    -0.270 N 
ATOM      3  H6  UNL     1      80.924  45.002   4.595  1.00  0.00     0.190 HD
HETATM    4  N7  UNL     1      82.638  44.609   3.598  1.00  0.00    -0.225 N 
ATOM      5  H7  UNL     1      82.513  43.598   3.639  1.00  0.00     0.210 HD
HETATM    6  N8  UNL     1      83.697  45.121   3.005  1.00  0.00    -0.203 N 
ATOM      7  H8  UNL     1      84.389  44.499   2.588  1.00  0.00     0.212 HD
HETATM    8  N9  UNL     1      83.875  46.427   2.944  1.00  0.00    -0.129 N 
HETATM    9  C4  UNL     1      84.848  47.164   2.391  1.00  0.00     0.314 A 
HETATM   10  O1  UNL     1      85.881  46.783   1.782  1.00  0.00    -0.262 OA
HETATM   11  C5  UNL     1      84.541  48.489   2.598  1.00  0.00     0.155 A 
HETATM   12  C10 UNL     1      83.361  48.512   3.285  1.00  0.00     0.198 A 
HETATM   13  N16 UNL     1      82.963  47.256   3.493  1.00  0.00    -0.190 N 
ENDROOT
BRANCH  11  14
HETATM   14  N10 UNL     1      85.302  49.630   2.155  1.00  0.00    -0.355 N 
ATOM     15  H10 UNL     1      85.210  49.976   1.200  1.00  0.00     0.162 HD
BRANCH  14  16
HETATM   16  C6  UNL     1      86.195  50.271   3.085  1.00  0.00     0.283 C 
BRANCH  16  17
HETATM   17  N11 UNL     1      85.802  50.212   4.456  1.00  0.00    -0.058 N 
ATOM     18 3H11 UNL     1      85.165  49.428   4.602  1.00  0.00     0.276 HD
ATOM     19 2H11 UNL     1      86.590  49.915   5.031  1.00  0.00     0.276 HD
ATOM     20 1H11 UNL     1      85.397  51.067   4.835  1.00  0.00     0.276 HD
ENDBRANCH  16  17
BRANCH  16  21
HETATM   21  C7  UNL     1      86.379  51.720   2.624  1.00  0.00     0.075 C 
BRANCH  21  22
HETATM   22  C8  UNL     1      87.671  52.278   3.185  1.00  0.00     0.143 C 
BRANCH  22  23
HETATM   23  N12 UNL     1      87.392  53.360   4.102  1.00  0.00    -0.334 N 
HETATM   24  N13 UNL     1      88.124  54.394   4.207  1.00  0.00    -0.279 N 
ATOM     25  H13 UNL     1      87.883  55.130   4.870  1.00  0.00     0.189 HD
ATOM     26  H12 UNL     1      86.565  53.290   4.696  1.00  0.00     0.180 HD
BRANCH  24  27
HETATM   27  C9  UNL     1      89.283  54.514   3.391  1.00  0.00     0.204 C 
HETATM   28  S1  UNL     1      89.178  55.452   2.077  1.00  0.00    -0.038 SA
BRANCH  27  29
HETATM   29  N14 UNL     1      90.484  53.850   3.695  1.00  0.00    -0.282 N 
ATOM     30  H14 UNL     1      90.553  52.842   3.557  1.00  0.00     0.189 HD
BRANCH  29  31
HETATM   31  N15 UNL     1      91.577  54.557   4.183  1.00  0.00    -0.343 N 
ATOM     32 2H15 UNL     1      92.231  54.082   4.805  1.00  0.00     0.176 HD
ATOM     33 1H15 UNL     1      91.721  55.533   3.922  1.00  0.00     0.176 HD
ENDBRANCH  29  31
ENDBRANCH  27  29
ENDBRANCH  24  27
ENDBRANCH  22  23
ENDBRANCH  21  22
ENDBRANCH  16  21
ENDBRANCH  14  16
ENDBRANCH  11  14
BRANCH  12  34
HETATM   34  O2  UNL     1      82.728  49.669   3.672  1.00  0.00    -0.343 OA
ATOM     35  H2  UNL     1      81.890  49.686   4.120  1.00  0.00     0.219 HD
ENDBRANCH  12  34
BRANCH   1  36
HETATM   36  C2  UNL     1      80.838  47.550   4.711  1.00  0.00     0.249 C 
BRANCH  36  37
HETATM   37  N5  UNL     1      79.554  46.966   4.274  1.00  0.00    -0.100 N 
HETATM   38  C1  UNL     1      78.556  46.459   4.998  1.00  0.00     0.710 A 
HETATM   39  N2  UNL     1      77.555  46.024   4.187  1.00  0.00    -0.115 N 
HETATM   40  N3  UNL     1      77.980  46.284   2.965  1.00  0.00    -0.213 N 
ATOM     41  H2  UNL     1      76.672  45.593   4.461  1.00  0.00     0.207 HD
HETATM   42  N4  UNL     1      79.169  46.846   2.998  1.00  0.00    -0.211 N 
ATOM     43  H3  UNL     1      77.459  46.078   2.113  1.00  0.00     0.210 HD
ATOM     44  H4  UNL     1      79.709  47.141   2.184  1.00  0.00     0.210 HD
BRANCH  38  45
HETATM   45  N1  UNL     1      78.556  46.397   6.297  1.00  0.00    -0.232 N 
ATOM     46  H12 UNL     1      78.284  45.571   6.830  1.00  0.00     0.174 HD
ATOM     47  H11 UNL     1      78.824  47.154   6.926  1.00  0.00     0.174 HD
ENDBRANCH  38  45
ENDBRANCH  36  37
ENDBRANCH   1  36
TORSDOF 13
ENDMDL
MODEL 4
REMARK VINA RESULT: -8.229093454      3.227      8.550
REMARK  13 active torsions:
REMARK  status: ('A' for Active; 'I' for Inactive)
REMARK    1  A    between atoms: N1_1  and  C1_4 
REMARK    2  A    between atoms: N5_11  and  C2_12 
REMARK    3  A    between atoms: C2_12  and  C3_13 
REMARK    4  A    between atoms: C5_23  and  N10_24 
REMARK    5  A    between atoms: N10_24  and  C6_26 
REMARK    6  A    between atoms: C6_26  and  N11_27 
REMARK    7  A    between atoms: C6_26  and  C7_31 
REMARK    8  A    between atoms: C7_31  and  C8_32 
REMARK    9  A    between atoms: C8_32  and  N12_33 
REMARK   10  A    between atoms: N13_35  and  C9_37 
REMARK   11  A    between atoms: C9_37  and  N14_39 
REMARK   12  A    between atoms: N14_39  and  N15_41 
REMARK   13  A    between atoms: C10_44  and  O2_45 
ROOT
HETATM    1  C3  UNL     1      81.783  46.691   4.104  1.00  0.00     0.144 A 
HETATM    2  N6  UNL     1      81.615  45.342   4.155  1.00  0.00    -0.270 N 
ATOM      3  H6  UNL     1      80.785  44.961   4.609  1.00  0.00     0.190 HD
HETATM    4  N7  UNL     1      82.499  44.519   3.633  1.00  0.00    -0.225 N 
ATOM      5  H7  UNL     1      82.352  43.511   3.684  1.00  0.00     0.210 HD
HETATM    6  N8  UNL     1      83.574  45.001   3.045  1.00  0.00    -0.203 N 
ATOM      7  H8  UNL     1      84.257  44.359   2.641  1.00  0.00     0.212 HD
HETATM    8  N9  UNL     1      83.781  46.302   2.970  1.00  0.00    -0.129 N 
HETATM    9  C4  UNL     1      84.775  47.011   2.418  1.00  0.00     0.314 A 
HETATM   10  O1  UNL     1      85.805  46.601   1.824  1.00  0.00    -0.262 OA
HETATM   11  C5  UNL     1      84.495  48.345   2.606  1.00  0.00     0.155 A 
HETATM   12  C10 UNL     1      83.309  48.402   3.283  1.00  0.00     0.198 A 
HETATM   13  N16 UNL     1      82.882  47.157   3.501  1.00  0.00    -0.190 N 
ENDROOT
BRANCH  11  14
HETATM   14  N10 UNL     1      85.285  49.464   2.158  1.00  0.00    -0.355 N 
ATOM     15  H10 UNL     1      85.242  49.773   1.187  1.00  0.00     0.162 HD
BRANCH  14  16
HETATM   16  C6  UNL     1      86.135  50.137   3.106  1.00  0.00     0.283 C 
BRANCH  16  17
HETATM   17  N11 UNL     1      85.712  50.070   4.467  1.00  0.00    -0.058 N 
ATOM     18 3H11 UNL     1      85.171  50.902   4.705  1.00  0.00     0.276 HD
ATOM     19 2H11 UNL     1      84.997  49.352   4.575  1.00  0.00     0.276 HD
ATOM     20 1H11 UNL     1      86.455  49.929   5.152  1.00  0.00     0.276 HD
ENDBRANCH  16  17
BRANCH  16  21
HETATM   21  C7  UNL     1      86.284  51.588   2.642  1.00  0.00     0.075 C 
BRANCH  21  22
HETATM   22  C8  UNL     1      87.504  52.212   3.289  1.00  0.00     0.143 C 
BRANCH  22  23
HETATM   23  N12 UNL     1      87.111  53.030   4.414  1.00  0.00    -0.334 N 
HETATM   24  N13 UNL     1      87.258  54.293   4.445  1.00  0.00    -0.279 N 
ATOM     25  H13 UNL     1      86.963  54.825   5.264  1.00  0.00     0.189 HD
ATOM     26  H12 UNL     1      86.696  52.571   5.224  1.00  0.00     0.180 HD
BRANCH  24  27
HETATM   27  C9  UNL     1      87.836  54.956   3.327  1.00  0.00     0.204 C 
HETATM   28  S1  UNL     1      89.451  54.986   3.229  1.00  0.00    -0.038 SA
BRANCH  27  29
HETATM   29  N14 UNL     1      87.052  55.568   2.334  1.00  0.00    -0.282 N 
ATOM     30  H14 UNL     1      86.739  56.531   2.458  1.00  0.00     0.189 HD
BRANCH  29  31
HETATM   31  N15 UNL     1      86.701  54.871   1.182  1.00  0.00    -0.343 N 
ATOM     32 2H15 UNL     1      87.321  54.913   0.374  1.00  0.00     0.176 HD
ATOM     33 1H15 UNL     1      85.838  54.328   1.149  1.00  0.00     0.176 HD
ENDBRANCH  29  31
ENDBRANCH  27  29
ENDBRANCH  24  27
ENDBRANCH  22  23
ENDBRANCH  21  22
ENDBRANCH  16  21
ENDBRANCH  14  16
ENDBRANCH  11  14
BRANCH  12  34
HETATM   34  O2  UNL     1      82.698  49.576   3.650  1.00  0.00    -0.343 OA
ATOM     35  H2  UNL     1      82.541  49.828   4.553  1.00  0.00     0.219 HD
ENDBRANCH  12  34
BRANCH   1  36
HETATM   36  C2  UNL     1      80.753  47.511   4.695  1.00  0.00     0.249 C 
BRANCH  36  37
HETATM   37  N5  UNL     1      79.461  46.948   4.256  1.00  0.00    -0.100 N 
HETATM   38  C1  UNL     1      78.469  46.423   4.976  1.00  0.00     0.710 A 
HETATM   39  N2  UNL     1      77.456  46.019   4.164  1.00  0.00    -0.115 N 
HETATM   40  N3  UNL     1      77.867  46.313   2.946  1.00  0.00    -0.213 N 
ATOM     41  H2  UNL     1      76.573  45.585   4.436  1.00  0.00     0.207 HD
HETATM   42  N4  UNL     1      79.060  46.868   2.981  1.00  0.00    -0.211 N 
ATOM     43  H3  UNL     1      77.335  46.136   2.094  1.00  0.00     0.210 HD
ATOM     44  H4  UNL     1      79.592  47.185   2.171  1.00  0.00     0.210 HD
BRANCH  38  45
HETATM   45  N1  UNL     1      78.483  46.323   6.273  1.00  0.00    -0.232 N 
ATOM     46  H12 UNL     1      77.659  46.123   6.841  1.00  0.00     0.174 HD
ATOM     47  H11 UNL     1      79.307  46.428   6.865  1.00  0.00     0.174 HD
ENDBRANCH  38  45
ENDBRANCH  36  37
ENDBRANCH   1  36
TORSDOF 13
ENDMDL
MODEL 5
REMARK VINA RESULT: -8.132888215      3.270      8.628
REMARK  13 active torsions:
REMARK  status: ('A' for Active; 'I' for Inactive)
REMARK    1  A    between atoms: N1_1  and  C1_4 
REMARK    2  A    between atoms: N5_11  and  C2_12 
REMARK    3  A    between atoms: C2_12  and  C3_13 
REMARK    4  A    between atoms: C5_23  and  N10_24 
REMARK    5  A    between atoms: N10_24  and  C6_26 
REMARK    6  A    between atoms: C6_26  and  N11_27 
REMARK    7  A    between atoms: C6_26  and  C7_31 
REMARK    8  A    between atoms: C7_31  and  C8_32 
REMARK    9  A    between atoms: C8_32  and  N12_33 
REMARK   10  A    between atoms: N13_35  and  C9_37 
REMARK   11  A    between atoms: C9_37  and  N14_39 
REMARK   12  A    between atoms: N14_39  and  N15_41 
REMARK   13  A    between atoms: C10_44  and  O2_45 
ROOT
HETATM    1  C3  UNL     1      81.773  46.559   4.072  1.00  0.00     0.144 A 
HETATM    2  N6  UNL     1      81.558  45.225   4.224  1.00  0.00    -0.270 N 
ATOM      3  H6  UNL     1      80.722  44.908   4.716  1.00  0.00     0.190 HD
HETATM    4  N7  UNL     1      82.403  44.334   3.751  1.00  0.00    -0.225 N 
ATOM      5  H7  UNL     1      82.220  43.338   3.878  1.00  0.00     0.210 HD
HETATM    6  N8  UNL     1      83.484  44.731   3.113  1.00  0.00    -0.203 N 
ATOM      7  H8  UNL     1      84.136  44.037   2.748  1.00  0.00     0.212 HD
HETATM    8  N9  UNL     1      83.736  46.015   2.940  1.00  0.00    -0.129 N 
HETATM    9  C4  UNL     1      84.745  46.645   2.324  1.00  0.00     0.314 A 
HETATM   10  O1  UNL     1      85.750  46.155   1.746  1.00  0.00    -0.262 OA
HETATM   11  C5  UNL     1      84.517  47.999   2.418  1.00  0.00     0.155 A 
HETATM   12  C10 UNL     1      83.345  48.148   3.105  1.00  0.00     0.198 A 
HETATM   13  N16 UNL     1      82.877  46.939   3.421  1.00  0.00    -0.190 N 
ENDROOT
BRANCH  11  14
HETATM   14  N10 UNL     1      85.338  49.052   1.878  1.00  0.00    -0.355 N 
ATOM     15  H10 UNL     1      85.407  49.191   0.870  1.00  0.00     0.162 HD
BRANCH  14  16
HETATM   16  C6  UNL     1      86.059  49.904   2.787  1.00  0.00     0.283 C 
BRANCH  16  17
HETATM   17  N11 UNL     1      85.701  49.780   4.163  1.00  0.00    -0.058 N 
ATOM     18 3H11 UNL     1      85.390  50.681   4.525  1.00  0.00     0.276 HD
ATOM     19 2H11 UNL     1      84.840  49.241   4.251  1.00  0.00     0.276 HD
ATOM     20 1H11 UNL     1      86.420  49.388   4.771  1.00  0.00     0.276 HD
ENDBRANCH  16  17
BRANCH  16  21
HETATM   21  C7  UNL     1      85.890  51.346   2.300  1.00  0.00     0.075 C 
BRANCH  21  22
HETATM   22  C8  UNL     1      87.187  52.108   2.488  1.00  0.00     0.143 C 
BRANCH  22  23
HETATM   23  N12 UNL     1      87.169  53.324   1.707  1.00  0.00    -0.334 N 
HETATM   24  N13 UNL     1      87.557  54.449   2.156  1.00  0.00    -0.279 N 
ATOM     25  H13 UNL     1      87.525  55.278   1.563  1.00  0.00     0.189 HD
ATOM     26  H12 UNL     1      86.829  53.278   0.746  1.00  0.00     0.180 HD
BRANCH  24  27
HETATM   27  C9  UNL     1      88.035  54.539   3.492  1.00  0.00     0.204 C 
HETATM   28  S1  UNL     1      89.614  54.822   3.705  1.00  0.00    -0.038 SA
BRANCH  27  29
HETATM   29  N14 UNL     1      87.185  54.390   4.602  1.00  0.00    -0.282 N 
ATOM     30  H14 UNL     1      87.098  53.480   5.055  1.00  0.00     0.189 HD
BRANCH  29  31
HETATM   31  N15 UNL     1      86.460  55.474   5.087  1.00  0.00    -0.343 N 
ATOM     32 2H15 UNL     1      85.915  56.033   4.431  1.00  0.00     0.176 HD
ATOM     33 1H15 UNL     1      86.475  55.703   6.081  1.00  0.00     0.176 HD
ENDBRANCH  29  31
ENDBRANCH  27  29
ENDBRANCH  24  27
ENDBRANCH  22  23
ENDBRANCH  21  22
ENDBRANCH  16  21
ENDBRANCH  14  16
ENDBRANCH  11  14
BRANCH  12  34
HETATM   34  O2  UNL     1      82.782  49.367   3.395  1.00  0.00    -0.343 OA
ATOM     35  H2  UNL     1      82.975  49.863   4.182  1.00  0.00     0.219 HD
ENDBRANCH  12  34
BRANCH   1  36
HETATM   36  C2  UNL     1      80.783  47.457   4.616  1.00  0.00     0.249 C 
BRANCH  36  37
HETATM   37  N5  UNL     1      79.464  46.915   4.233  1.00  0.00    -0.100 N 
HETATM   38  C1  UNL     1      78.481  46.439   4.997  1.00  0.00     0.710 A 
HETATM   39  N2  UNL     1      77.434  46.037   4.228  1.00  0.00    -0.115 N 
HETATM   40  N3  UNL     1      77.817  46.283   2.990  1.00  0.00    -0.213 N 
ATOM     41  H2  UNL     1      76.550  45.634   4.540  1.00  0.00     0.207 HD
HETATM   42  N4  UNL     1      79.023  46.806   2.973  1.00  0.00    -0.211 N 
ATOM     43  H3  UNL     1      77.255  46.093   2.160  1.00  0.00     0.210 HD
ATOM     44  H4  UNL     1      79.539  47.084   2.138  1.00  0.00     0.210 HD
BRANCH  38  45
HETATM   45  N1  UNL     1      78.532  46.378   6.296  1.00  0.00    -0.232 N 
ATOM     46  H12 UNL     1      79.368  46.127   6.824  1.00  0.00     0.174 HD
ATOM     47  H11 UNL     1      77.755  46.570   6.928  1.00  0.00     0.174 HD
ENDBRANCH  38  45
ENDBRANCH  36  37
ENDBRANCH   1  36
TORSDOF 13
ENDMDL
