MODEL 1
REMARK VINA RESULT: -8.819517910      0.000      0.000
REMARK  12 active torsions:
REMARK  status: ('A' for Active; 'I' for Inactive)
REMARK    1  A    between atoms: C2_2  and  C4_4 
REMARK    2  A    between atoms: C4_4  and  C5_5 
REMARK    3  A    between atoms: C5_5  and  N1_6 
REMARK    4  A    between atoms: C5_5  and  C22_29 
REMARK       I    between atoms: N1_6  and  C6_8 
REMARK    5  A    between atoms: C6_8  and  C7_10 
REMARK    6  A    between atoms: C7_10  and  N2_11 
REMARK    7  A    between atoms: C7_10  and  C19_26 
REMARK    8  A    between atoms: N2_11  and  C8_14 
REMARK    9  A    between atoms: C8_14  and  C9_15 
REMARK   10  A    between atoms: C8_14  and  C16_22 
REMARK   11  A    between atoms: C9_15  and  C10_16 
REMARK   12  A    between atoms: C16_22  and  N3_23 
ROOT
HETATM    1  C7  UNL     1      16.966  44.411  68.057  1.00  0.00     0.280 C 
ENDROOT
BRANCH   1   2
HETATM    2  C6  UNL     1      16.255  44.044  66.827  1.00  0.00     0.249 C 
HETATM    3  N1  UNL     1      15.282  43.059  66.671  1.00  0.00    -0.346 N 
ATOM      4  H1  UNL     1      15.013  42.514  67.490  1.00  0.00     0.163 HD
HETATM    5  O1  UNL     1      16.556  44.699  65.769  1.00  0.00    -0.271 OA
BRANCH   3   6
HETATM    6  C5  UNL     1      14.614  42.758  65.378  1.00  0.00     0.174 C 
BRANCH   6   7
HETATM    7  C4  UNL     1      13.360  42.041  65.632  1.00  0.00     0.038 C 
BRANCH   7   8
HETATM    8  C2  UNL     1      12.128  42.825  65.808  1.00  0.00    -0.020 C 
HETATM    9  C1  UNL     1      11.556  43.438  64.591  1.00  0.00     0.009 C 
HETATM   10  C3  UNL     1      11.097  41.906  66.477  1.00  0.00     0.009 C 
ENDBRANCH   7   8
ENDBRANCH   6   7
BRANCH   6  11
HETATM   11  C22 UNL     1      15.646  42.060  64.606  1.00  0.00     0.254 C 
HETATM   12  N4  UNL     1      16.551  41.124  65.189  1.00  0.00    -0.060 NA
HETATM   13  O2  UNL     1      15.789  42.248  63.344  1.00  0.00    -0.275 OA
ENDBRANCH   6  11
ENDBRANCH   3   6
ENDBRANCH   1   2
BRANCH   1  14
HETATM   14  N2  UNL     1      18.417  44.324  67.957  1.00  0.00    -0.056 N 
ATOM     15  H22 UNL     1      18.714  44.314  66.981  1.00  0.00     0.278 HD
ATOM     16  H21 UNL     1      18.855  45.196  68.257  1.00  0.00     0.278 HD
BRANCH  14  17
HETATM   17  C8  UNL     1      18.961  43.219  68.660  1.00  0.00     0.215 C 
BRANCH  17  18
HETATM   18  C9  UNL     1      18.059  42.458  69.553  1.00  0.00     0.039 C 
BRANCH  18  19
HETATM   19  C10 UNL     1      17.906  42.843  70.961  1.00  0.00    -0.013 C 
HETATM   20  C11 UNL     1      18.844  43.813  71.563  1.00  0.00     0.005 C 
HETATM   21  C12 UNL     1      20.028  43.188  72.280  1.00  0.00     0.000 C 
HETATM   22  C13 UNL     1      20.502  41.910  71.667  1.00  0.00     0.000 C 
HETATM   23  C14 UNL     1      19.364  40.924  71.656  1.00  0.00     0.000 C 
HETATM   24  C15 UNL     1      18.006  41.568  71.851  1.00  0.00     0.005 C 
ENDBRANCH  18  19
ENDBRANCH  17  18
BRANCH  17  25
HETATM   25  C16 UNL     1      19.590  42.287  67.607  1.00  0.00     0.304 C 
BRANCH  25  26
HETATM   26  N3  UNL     1      21.019  42.125  67.904  1.00  0.00     0.082 N 
HETATM   27  C17 UNL     1      21.215  40.709  68.186  1.00  0.00     0.309 C 
HETATM   28  C18 UNL     1      21.778  42.407  66.683  1.00  0.00     0.309 C 
ENDBRANCH  25  26
ENDBRANCH  17  25
ENDBRANCH  14  17
ENDBRANCH   1  14
BRANCH   1  29
HETATM   29  C19 UNL     1      16.568  45.782  68.598  1.00  0.00     0.017 C 
HETATM   30  C20 UNL     1      15.497  45.702  69.648  1.00  0.00     0.012 C 
HETATM   31  C21 UNL     1      17.695  46.607  69.089  1.00  0.00     0.012 C 
ENDBRANCH   1  29
TORSDOF 12
ENDMDL
MODEL 2
REMARK VINA RESULT: -8.667907670      0.961      1.587
REMARK  12 active torsions:
REMARK  status: ('A' for Active; 'I' for Inactive)
REMARK    1  A    between atoms: C2_2  and  C4_4 
REMARK    2  A    between atoms: C4_4  and  C5_5 
REMARK    3  A    between atoms: C5_5  and  N1_6 
REMARK    4  A    between atoms: C5_5  and  C22_29 
REMARK       I    between atoms: N1_6  and  C6_8 
REMARK    5  A    between atoms: C6_8  and  C7_10 
REMARK    6  A    between atoms: C7_10  and  N2_11 
REMARK    7  A    between atoms: C7_10  and  C19_26 
REMARK    8  A    between atoms: N2_11  and  C8_14 
REMARK    9  A    between atoms: C8_14  and  C9_15 
REMARK   10  A    between atoms: C8_14  and  C16_22 
REMARK   11  A    between atoms: C9_15  and  C10_16 
REMARK   12  A    between atoms: C16_22  and  N3_23 
ROOT
HETATM    1  C7  UNL     1      17.125  44.624  68.206  1.00  0.00     0.280 C 
ENDROOT
BRANCH   1   2
HETATM    2  C6  UNL     1      16.445  44.192  66.980  1.00  0.00     0.249 C 
HETATM    3  N1  UNL     1      15.495  43.183  66.846  1.00  0.00    -0.346 N 
ATOM      4  H1  UNL     1      15.220  42.668  67.682  1.00  0.00     0.163 HD
HETATM    5  O1  UNL     1      16.754  44.808  65.901  1.00  0.00    -0.271 OA
BRANCH   3   6
HETATM    6  C5  UNL     1      14.858  42.815  65.555  1.00  0.00     0.174 C 
BRANCH   6   7
HETATM    7  C4  UNL     1      13.610  42.090  65.816  1.00  0.00     0.038 C 
BRANCH   7   8
HETATM    8  C2  UNL     1      12.348  42.846  65.819  1.00  0.00    -0.020 C 
HETATM    9  C1  UNL     1      11.936  43.446  64.533  1.00  0.00     0.009 C 
HETATM   10  C3  UNL     1      11.255  41.904  66.342  1.00  0.00     0.009 C 
ENDBRANCH   7   8
ENDBRANCH   6   7
BRANCH   6  11
HETATM   11  C22 UNL     1      15.916  42.100  64.835  1.00  0.00     0.254 C 
HETATM   12  N4  UNL     1      16.836  41.221  65.481  1.00  0.00    -0.060 NA
HETATM   13  O2  UNL     1      16.070  42.220  63.567  1.00  0.00    -0.275 OA
ENDBRANCH   6  11
ENDBRANCH   3   6
ENDBRANCH   1   2
BRANCH   1  14
HETATM   14  N2  UNL     1      18.429  45.235  67.983  1.00  0.00    -0.056 N 
ATOM     15  H22 UNL     1      18.610  45.352  66.985  1.00  0.00     0.278 HD
ATOM     16  H21 UNL     1      18.425  46.215  68.269  1.00  0.00     0.278 HD
BRANCH  14  17
HETATM   17  C8  UNL     1      19.490  44.533  68.608  1.00  0.00     0.215 C 
BRANCH  17  18
HETATM   18  C9  UNL     1      19.164  43.268  69.306  1.00  0.00     0.039 C 
BRANCH  18  19
HETATM   19  C10 UNL     1      20.061  42.733  70.337  1.00  0.00    -0.013 C 
HETATM   20  C11 UNL     1      20.099  41.279  70.595  1.00  0.00     0.005 C 
HETATM   21  C12 UNL     1      19.187  40.811  71.716  1.00  0.00     0.000 C 
HETATM   22  C13 UNL     1      17.925  41.601  71.840  1.00  0.00     0.000 C 
HETATM   23  C14 UNL     1      18.277  43.048  72.071  1.00  0.00     0.000 C 
HETATM   24  C15 UNL     1      19.709  43.385  71.707  1.00  0.00     0.005 C 
ENDBRANCH  18  19
ENDBRANCH  17  18
BRANCH  17  25
HETATM   25  C16 UNL     1      20.563  44.292  67.530  1.00  0.00     0.304 C 
BRANCH  25  26
HETATM   26  N3  UNL     1      20.357  42.965  66.937  1.00  0.00     0.082 N 
HETATM   27  C17 UNL     1      19.912  43.199  65.569  1.00  0.00     0.309 C 
HETATM   28  C18 UNL     1      21.658  42.300  66.834  1.00  0.00     0.309 C 
ENDBRANCH  25  26
ENDBRANCH  17  25
ENDBRANCH  14  17
ENDBRANCH   1  14
BRANCH   1  29
HETATM   29  C19 UNL     1      16.270  45.539  69.079  1.00  0.00     0.017 C 
HETATM   30  C20 UNL     1      16.168  45.057  70.498  1.00  0.00     0.012 C 
HETATM   31  C21 UNL     1      16.668  46.965  69.060  1.00  0.00     0.012 C 
ENDBRANCH   1  29
TORSDOF 12
ENDMDL
MODEL 3
REMARK VINA RESULT: -8.564286621      1.221      3.001
REMARK  12 active torsions:
REMARK  status: ('A' for Active; 'I' for Inactive)
REMARK    1  A    between atoms: C2_2  and  C4_4 
REMARK    2  A    between atoms: C4_4  and  C5_5 
REMARK    3  A    between atoms: C5_5  and  N1_6 
REMARK    4  A    between atoms: C5_5  and  C22_29 
REMARK       I    between atoms: N1_6  and  C6_8 
REMARK    5  A    between atoms: C6_8  and  C7_10 
REMARK    6  A    between atoms: C7_10  and  N2_11 
REMARK    7  A    between atoms: C7_10  and  C19_26 
REMARK    8  A    between atoms: N2_11  and  C8_14 
REMARK    9  A    between atoms: C8_14  and  C9_15 
REMARK   10  A    between atoms: C8_14  and  C16_22 
REMARK   11  A    between atoms: C9_15  and  C10_16 
REMARK   12  A    between atoms: C16_22  and  N3_23 
ROOT
HETATM    1  C7  UNL     1      16.407  44.517  68.475  1.00  0.00     0.280 C 
ENDROOT
BRANCH   1   2
HETATM    2  C6  UNL     1      16.170  44.173  67.069  1.00  0.00     0.249 C 
HETATM    3  N1  UNL     1      15.299  43.210  66.565  1.00  0.00    -0.346 N 
ATOM      4  H1  UNL     1      14.748  42.666  67.229  1.00  0.00     0.163 HD
HETATM    5  O1  UNL     1      16.837  44.828  66.195  1.00  0.00    -0.271 OA
BRANCH   3   6
HETATM    6  C5  UNL     1      15.126  42.931  65.116  1.00  0.00     0.174 C 
BRANCH   6   7
HETATM    7  C4  UNL     1      13.697  42.825  64.806  1.00  0.00     0.038 C 
BRANCH   7   8
HETATM    8  C2  UNL     1      12.783  42.357  65.859  1.00  0.00    -0.020 C 
HETATM    9  C1  UNL     1      11.398  42.870  65.807  1.00  0.00     0.009 C 
HETATM   10  C3  UNL     1      12.786  40.824  65.815  1.00  0.00     0.009 C 
ENDBRANCH   7   8
ENDBRANCH   6   7
BRANCH   6  11
HETATM   11  C22 UNL     1      15.956  41.744  64.888  1.00  0.00     0.254 C 
HETATM   12  N4  UNL     1      17.083  41.418  65.699  1.00  0.00    -0.060 NA
HETATM   13  O2  UNL     1      15.706  40.918  63.938  1.00  0.00    -0.275 OA
ENDBRANCH   6  11
ENDBRANCH   3   6
ENDBRANCH   1   2
BRANCH   1  14
HETATM   14  N2  UNL     1      17.746  44.198  68.952  1.00  0.00    -0.056 N 
ATOM     15  H22 UNL     1      18.452  44.702  68.415  1.00  0.00     0.278 HD
ATOM     16  H21 UNL     1      17.911  44.607  69.873  1.00  0.00     0.278 HD
BRANCH  14  17
HETATM   17  C8  UNL     1      18.019  42.807  68.963  1.00  0.00     0.215 C 
BRANCH  17  18
HETATM   18  C9  UNL     1      19.310  42.352  68.398  1.00  0.00     0.039 C 
BRANCH  18  19
HETATM   19  C10 UNL     1      20.144  43.270  67.613  1.00  0.00    -0.013 C 
HETATM   20  C11 UNL     1      20.784  42.798  66.369  1.00  0.00     0.005 C 
HETATM   21  C12 UNL     1      22.206  42.292  66.540  1.00  0.00     0.000 C 
HETATM   22  C13 UNL     1      22.460  41.631  67.856  1.00  0.00     0.000 C 
HETATM   23  C14 UNL     1      22.155  42.611  68.959  1.00  0.00     0.000 C 
HETATM   24  C15 UNL     1      21.311  43.786  68.506  1.00  0.00     0.005 C 
ENDBRANCH  18  19
ENDBRANCH  17  18
BRANCH  17  25
HETATM   25  C16 UNL     1      17.872  42.335  70.421  1.00  0.00     0.304 C 
BRANCH  25  26
HETATM   26  N3  UNL     1      19.207  42.180  71.012  1.00  0.00     0.082 N 
HETATM   27  C17 UNL     1      19.360  43.278  71.957  1.00  0.00     0.309 C 
HETATM   28  C18 UNL     1      19.219  40.951  71.809  1.00  0.00     0.309 C 
ENDBRANCH  25  26
ENDBRANCH  17  25
ENDBRANCH  14  17
ENDBRANCH   1  14
BRANCH   1  29
HETATM   29  C19 UNL     1      16.075  45.971  68.804  1.00  0.00     0.017 C 
HETATM   30  C20 UNL     1      15.061  46.100  69.904  1.00  0.00     0.012 C 
HETATM   31  C21 UNL     1      17.249  46.823  69.100  1.00  0.00     0.012 C 
ENDBRANCH   1  29
TORSDOF 12
ENDMDL
MODEL 4
REMARK VINA RESULT: -8.505034165      1.435      3.158
REMARK  12 active torsions:
REMARK  status: ('A' for Active; 'I' for Inactive)
REMARK    1  A    between atoms: C2_2  and  C4_4 
REMARK    2  A    between atoms: C4_4  and  C5_5 
REMARK    3  A    between atoms: C5_5  and  N1_6 
REMARK    4  A    between atoms: C5_5  and  C22_29 
REMARK       I    between atoms: N1_6  and  C6_8 
REMARK    5  A    between atoms: C6_8  and  C7_10 
REMARK    6  A    between atoms: C7_10  and  N2_11 
REMARK    7  A    between atoms: C7_10  and  C19_26 
REMARK    8  A    between atoms: N2_11  and  C8_14 
REMARK    9  A    between atoms: C8_14  and  C9_15 
REMARK   10  A    between atoms: C8_14  and  C16_22 
REMARK   11  A    between atoms: C9_15  and  C10_16 
REMARK   12  A    between atoms: C16_22  and  N3_23 
ROOT
HETATM    1  C7  UNL     1      16.507  44.506  68.456  1.00  0.00     0.280 C 
ENDROOT
BRANCH   1   2
HETATM    2  C6  UNL     1      16.296  44.156  67.047  1.00  0.00     0.249 C 
HETATM    3  N1  UNL     1      15.444  43.182  66.532  1.00  0.00    -0.346 N 
ATOM      4  H1  UNL     1      14.889  42.632  67.188  1.00  0.00     0.163 HD
HETATM    5  O1  UNL     1      16.969  44.817  66.182  1.00  0.00    -0.271 OA
BRANCH   3   6
HETATM    6  C5  UNL     1      15.297  42.898  65.081  1.00  0.00     0.174 C 
BRANCH   6   7
HETATM    7  C4  UNL     1      13.877  42.728  64.758  1.00  0.00     0.038 C 
BRANCH   7   8
HETATM    8  C2  UNL     1      12.968  42.262  65.816  1.00  0.00    -0.020 C 
HETATM    9  C1  UNL     1      11.602  42.828  65.809  1.00  0.00     0.009 C 
HETATM   10  C3  UNL     1      12.911  40.731  65.726  1.00  0.00     0.009 C 
ENDBRANCH   7   8
ENDBRANCH   6   7
BRANCH   6  11
HETATM   11  C22 UNL     1      16.182  41.750  64.858  1.00  0.00     0.254 C 
HETATM   12  N4  UNL     1      17.219  41.383  65.766  1.00  0.00    -0.060 NA
HETATM   13  O2  UNL     1      16.065  40.997  63.825  1.00  0.00    -0.275 OA
ENDBRANCH   6  11
ENDBRANCH   3   6
ENDBRANCH   1   2
BRANCH   1  14
HETATM   14  N2  UNL     1      17.815  44.129  68.977  1.00  0.00    -0.056 N 
ATOM     15  H22 UNL     1      18.459  43.909  68.217  1.00  0.00     0.278 HD
ATOM     16  H21 UNL     1      18.294  44.937  69.375  1.00  0.00     0.278 HD
BRANCH  14  17
HETATM   17  C8  UNL     1      17.758  43.065  69.912  1.00  0.00     0.215 C 
BRANCH  17  18
HETATM   18  C9  UNL     1      18.754  41.977  69.782  1.00  0.00     0.039 C 
BRANCH  18  19
HETATM   19  C10 UNL     1      19.986  42.184  69.011  1.00  0.00    -0.013 C 
HETATM   20  C11 UNL     1      20.421  41.164  68.035  1.00  0.00     0.005 C 
HETATM   21  C12 UNL     1      21.409  40.147  68.579  1.00  0.00     0.000 C 
HETATM   22  C13 UNL     1      21.208  39.820  70.023  1.00  0.00     0.000 C 
HETATM   23  C14 UNL     1      21.322  41.087  70.829  1.00  0.00     0.000 C 
HETATM   24  C15 UNL     1      21.181  42.346  69.996  1.00  0.00     0.005 C 
ENDBRANCH  18  19
ENDBRANCH  17  18
BRANCH  17  25
HETATM   25  C16 UNL     1      17.832  43.699  71.314  1.00  0.00     0.304 C 
BRANCH  25  26
HETATM   26  N3  UNL     1      16.477  43.795  71.868  1.00  0.00     0.082 N 
HETATM   27  C17 UNL     1      16.167  42.478  72.410  1.00  0.00     0.309 C 
HETATM   28  C18 UNL     1      16.511  44.709  73.013  1.00  0.00     0.309 C 
ENDBRANCH  25  26
ENDBRANCH  17  25
ENDBRANCH  14  17
ENDBRANCH   1  14
BRANCH   1  29
HETATM   29  C19 UNL     1      16.237  45.978  68.759  1.00  0.00     0.017 C 
HETATM   30  C20 UNL     1      15.140  46.170  69.766  1.00  0.00     0.012 C 
HETATM   31  C21 UNL     1      17.429  46.759  69.158  1.00  0.00     0.012 C 
ENDBRANCH   1  29
TORSDOF 12
ENDMDL
MODEL 5
REMARK VINA RESULT: -8.475485934      1.631      2.604
REMARK  12 active torsions:
REMARK  status: ('A' for Active; 'I' for Inactive)
REMARK    1  A    between atoms: C2_2  and  C4_4 
REMARK    2  A    between atoms: C4_4  and  C5_5 
REMARK    3  A    between atoms: C5_5  and  N1_6 
REMARK    4  A    between atoms: C5_5  and  C22_29 
REMARK       I    between atoms: N1_6  and  C6_8 
REMARK    5  A    between atoms: C6_8  and  C7_10 
REMARK    6  A    between atoms: C7_10  and  N2_11 
REMARK    7  A    between atoms: C7_10  and  C19_26 
REMARK    8  A    between atoms: N2_11  and  C8_14 
REMARK    9  A    between atoms: C8_14  and  C9_15 
REMARK   10  A    between atoms: C8_14  and  C16_22 
REMARK   11  A    between atoms: C9_15  and  C10_16 
REMARK   12  A    between atoms: C16_22  and  N3_23 
ROOT
HETATM    1  C7  UNL     1      18.062  43.426  69.071  1.00  0.00     0.280 C 
ENDROOT
BRANCH   1   2
HETATM    2  C6  UNL     1      17.342  43.672  67.816  1.00  0.00     0.249 C 
HETATM    3  N1  UNL     1      16.473  42.809  67.153  1.00  0.00    -0.346 N 
ATOM      4  H1  UNL     1      16.298  41.892  67.564  1.00  0.00     0.163 HD
HETATM    5  O1  UNL     1      17.526  44.809  67.258  1.00  0.00    -0.271 OA
BRANCH   3   6
HETATM    6  C5  UNL     1      15.786  43.148  65.880  1.00  0.00     0.174 C 
BRANCH   6   7
HETATM    7  C4  UNL     1      14.355  43.341  66.133  1.00  0.00     0.038 C 
BRANCH   7   8
HETATM    8  C2  UNL     1      13.393  42.503  65.400  1.00  0.00    -0.020 C 
HETATM    9  C1  UNL     1      12.436  41.729  66.217  1.00  0.00     0.009 C 
HETATM   10  C3  UNL     1      12.643  43.419  64.424  1.00  0.00     0.009 C 
ENDBRANCH   7   8
ENDBRANCH   6   7
BRANCH   6  11
HETATM   11  C22 UNL     1      16.171  42.060  64.975  1.00  0.00     0.254 C 
HETATM   12  N4  UNL     1      16.041  42.149  63.557  1.00  0.00    -0.060 NA
HETATM   13  O2  UNL     1      16.658  40.957  65.413  1.00  0.00    -0.275 OA
ENDBRANCH   6  11
ENDBRANCH   3   6
ENDBRANCH   1   2
BRANCH   1  14
HETATM   14  N2  UNL     1      19.254  44.244  69.246  1.00  0.00    -0.056 N 
ATOM     15  H22 UNL     1      19.257  45.027  68.592  1.00  0.00     0.278 HD
ATOM     16  H21 UNL     1      19.215  44.760  70.126  1.00  0.00     0.278 HD
BRANCH  14  17
HETATM   17  C8  UNL     1      20.459  43.504  69.151  1.00  0.00     0.215 C 
BRANCH  17  18
HETATM   18  C9  UNL     1      20.383  42.035  69.325  1.00  0.00     0.039 C 
BRANCH  18  19
HETATM   19  C10 UNL     1      20.797  41.413  70.588  1.00  0.00    -0.013 C 
HETATM   20  C11 UNL     1      22.001  41.905  71.289  1.00  0.00     0.005 C 
HETATM   21  C12 UNL     1      23.277  41.149  70.963  1.00  0.00     0.000 C 
HETATM   22  C13 UNL     1      23.337  40.637  69.560  1.00  0.00     0.000 C 
HETATM   23  C14 UNL     1      22.159  39.728  69.323  1.00  0.00     0.000 C 
HETATM   24  C15 UNL     1      21.053  39.895  70.346  1.00  0.00     0.005 C 
ENDBRANCH  18  19
ENDBRANCH  17  18
BRANCH  17  25
HETATM   25  C16 UNL     1      21.091  43.853  67.790  1.00  0.00     0.304 C 
BRANCH  25  26
HETATM   26  N3  UNL     1      20.986  42.691  66.901  1.00  0.00     0.082 N 
HETATM   27  C17 UNL     1      20.265  43.148  65.720  1.00  0.00     0.309 C 
HETATM   28  C18 UNL     1      22.332  42.337  66.444  1.00  0.00     0.309 C 
ENDBRANCH  25  26
ENDBRANCH  17  25
ENDBRANCH  14  17
ENDBRANCH   1  14
BRANCH   1  29
HETATM   29  C19 UNL     1      17.174  43.538  70.308  1.00  0.00     0.017 C 
HETATM   30  C20 UNL     1      17.245  42.321  71.185  1.00  0.00     0.012 C 
HETATM   31  C21 UNL     1      17.390  44.756  71.119  1.00  0.00     0.012 C 
ENDBRANCH   1  29
TORSDOF 12
ENDMDL
