MODEL 1
REMARK VINA RESULT: -7.770170449      0.000      0.000
REMARK  12 active torsions:
REMARK  status: ('A' for Active; 'I' for Inactive)
REMARK       I    between atoms: C2_2  and  N1_4 
REMARK    1  A    between atoms: N1_4  and  C3_6 
REMARK    2  A    between atoms: C3_6  and  C4_7 
REMARK    3  A    between atoms: C3_6  and  C8_11 
REMARK    4  A    between atoms: C4_7  and  C5_8 
REMARK       I    between atoms: C8_11  and  N2_13 
REMARK    5  A    between atoms: N2_13  and  C9_15 
REMARK    6  A    between atoms: C9_15  and  C10_16 
REMARK    7  A    between atoms: C9_15  and  C14_20 
REMARK    8  A    between atoms: C10_16  and  C11_17 
REMARK       I    between atoms: C14_20  and  N3_22 
REMARK    9  A    between atoms: N3_22  and  C15_24 
REMARK   10  A    between atoms: C15_24  and  C16_25 
REMARK   11  A    between atoms: C15_24  and  C17_27 
REMARK   12  A    between atoms: C17_27  and  C18_28 
ROOT
HETATM    1  C9  UNL     1      19.448  44.219  70.283  1.00  0.00     0.177 C 
ENDROOT
BRANCH   1   2
HETATM    2  N2  UNL     1      18.197  44.177  69.465  1.00  0.00    -0.346 N 
HETATM    3  C8  UNL     1      17.766  45.269  68.707  1.00  0.00     0.241 C 
HETATM    4  O2  UNL     1      18.450  46.345  68.699  1.00  0.00    -0.271 OA
ATOM      5  H2  UNL     1      17.640  43.323  69.462  1.00  0.00     0.163 HD
BRANCH   3   6
HETATM    6  C3  UNL     1      16.501  45.146  67.915  1.00  0.00     0.177 C 
BRANCH   6   7
HETATM    7  N1  UNL     1      16.467  43.804  67.337  1.00  0.00    -0.348 N 
HETATM    8  C2  UNL     1      16.865  43.567  66.001  1.00  0.00     0.214 C 
HETATM    9  C1  UNL     1      16.810  42.187  65.465  1.00  0.00     0.117 C 
HETATM   10  O1  UNL     1      17.254  44.540  65.313  1.00  0.00    -0.274 OA
ATOM     11  H1  UNL     1      16.150  43.021  67.909  1.00  0.00     0.163 HD
ENDBRANCH   6   7
BRANCH   6  12
HETATM   12  C4  UNL     1      15.375  45.287  68.906  1.00  0.00     0.038 C 
BRANCH  12  13
HETATM   13  C5  UNL     1      15.744  46.264  69.977  1.00  0.00    -0.020 C 
HETATM   14  C6  UNL     1      15.531  45.659  71.329  1.00  0.00     0.009 C 
HETATM   15  C7  UNL     1      14.863  47.492  69.810  1.00  0.00     0.009 C 
ENDBRANCH  12  13
ENDBRANCH   6  12
ENDBRANCH   3   6
ENDBRANCH   1   2
BRANCH   1  16
HETATM   16  C10 UNL     1      19.168  43.315  71.418  1.00  0.00     0.038 C 
BRANCH  16  17
HETATM   17  C11 UNL     1      18.349  42.108  71.231  1.00  0.00    -0.020 C 
HETATM   18  C12 UNL     1      16.997  42.085  71.869  1.00  0.00     0.009 C 
HETATM   19  C13 UNL     1      19.146  40.944  71.856  1.00  0.00     0.009 C 
ENDBRANCH  16  17
ENDBRANCH   1  16
BRANCH   1  20
HETATM   20  C14 UNL     1      20.600  43.949  69.442  1.00  0.00     0.241 C 
HETATM   21  O3  UNL     1      21.437  44.866  69.248  1.00  0.00    -0.271 OA
HETATM   22  N3  UNL     1      20.838  42.699  68.828  1.00  0.00    -0.351 N 
ATOM     23  H3  UNL     1      20.179  41.933  68.962  1.00  0.00     0.163 HD
BRANCH  22  24
HETATM   24  C15 UNL     1      22.048  42.498  67.986  1.00  0.00     0.118 C 
BRANCH  24  25
HETATM   25  C16 UNL     1      21.604  42.293  66.597  1.00  0.00     0.079 C 
HETATM   26  S1  UNL     1      20.598  43.119  65.975  1.00  0.00    -0.095 SA
ENDBRANCH  24  25
BRANCH  24  27
HETATM   27  C17 UNL     1      22.824  41.384  68.601  1.00  0.00     0.034 C 
BRANCH  27  28
HETATM   28  C18 UNL     1      22.249  40.894  69.873  1.00  0.00    -0.021 C 
HETATM   29  C19 UNL     1      22.051  39.350  69.804  1.00  0.00     0.009 C 
HETATM   30  C20 UNL     1      23.110  41.072  71.104  1.00  0.00     0.009 C 
ENDBRANCH  27  28
ENDBRANCH  24  27
ENDBRANCH  22  24
ENDBRANCH   1  20
TORSDOF 12
ENDMDL
MODEL 2
REMARK VINA RESULT: -7.434602122      2.219      3.095
REMARK  12 active torsions:
REMARK  status: ('A' for Active; 'I' for Inactive)
REMARK       I    between atoms: C2_2  and  N1_4 
REMARK    1  A    between atoms: N1_4  and  C3_6 
REMARK    2  A    between atoms: C3_6  and  C4_7 
REMARK    3  A    between atoms: C3_6  and  C8_11 
REMARK    4  A    between atoms: C4_7  and  C5_8 
REMARK       I    between atoms: C8_11  and  N2_13 
REMARK    5  A    between atoms: N2_13  and  C9_15 
REMARK    6  A    between atoms: C9_15  and  C10_16 
REMARK    7  A    between atoms: C9_15  and  C14_20 
REMARK    8  A    between atoms: C10_16  and  C11_17 
REMARK       I    between atoms: C14_20  and  N3_22 
REMARK    9  A    between atoms: N3_22  and  C15_24 
REMARK   10  A    between atoms: C15_24  and  C16_25 
REMARK   11  A    between atoms: C15_24  and  C17_27 
REMARK   12  A    between atoms: C17_27  and  C18_28 
ROOT
HETATM    1  C9  UNL     1      19.488  43.417  71.751  1.00  0.00     0.177 C 
ENDROOT
BRANCH   1   2
HETATM    2  N2  UNL     1      19.018  44.274  70.620  1.00  0.00    -0.346 N 
HETATM    3  C8  UNL     1      18.089  43.822  69.678  1.00  0.00     0.241 C 
HETATM    4  O2  UNL     1      17.615  42.641  69.772  1.00  0.00    -0.271 OA
ATOM      5  H2  UNL     1      19.387  45.220  70.532  1.00  0.00     0.163 HD
BRANCH   3   6
HETATM    6  C3  UNL     1      17.669  44.742  68.575  1.00  0.00     0.177 C 
BRANCH   6   7
HETATM    7  N1  UNL     1      16.481  44.169  67.945  1.00  0.00    -0.348 N 
HETATM    8  C2  UNL     1      16.364  44.077  66.540  1.00  0.00     0.214 C 
HETATM    9  C1  UNL     1      15.138  43.488  65.954  1.00  0.00     0.117 C 
HETATM   10  O1  UNL     1      17.310  44.500  65.833  1.00  0.00    -0.274 OA
ATOM     11  H1  UNL     1      15.720  43.827  68.533  1.00  0.00     0.163 HD
ENDBRANCH   6   7
BRANCH   6  12
HETATM   12  C4  UNL     1      17.300  46.044  69.238  1.00  0.00     0.038 C 
BRANCH  12  13
HETATM   13  C5  UNL     1      15.841  46.062  69.571  1.00  0.00    -0.020 C 
HETATM   14  C6  UNL     1      15.282  47.437  69.386  1.00  0.00     0.009 C 
HETATM   15  C7  UNL     1      15.691  45.627  71.020  1.00  0.00     0.009 C 
ENDBRANCH  12  13
ENDBRANCH   6  12
ENDBRANCH   3   6
ENDBRANCH   1   2
BRANCH   1  16
HETATM   16  C10 UNL     1      18.377  43.463  72.725  1.00  0.00     0.038 C 
BRANCH  16  17
HETATM   17  C11 UNL     1      18.243  44.593  73.656  1.00  0.00    -0.020 C 
HETATM   18  C12 UNL     1      19.147  44.617  74.847  1.00  0.00     0.009 C 
HETATM   19  C13 UNL     1      16.802  44.532  74.205  1.00  0.00     0.009 C 
ENDBRANCH  16  17
ENDBRANCH   1  16
BRANCH   1  20
HETATM   20  C14 UNL     1      19.923  42.126  71.249  1.00  0.00     0.241 C 
HETATM   21  O3  UNL     1      19.421  41.084  71.741  1.00  0.00    -0.271 OA
HETATM   22  N3  UNL     1      20.885  41.974  70.226  1.00  0.00    -0.351 N 
ATOM     23  H3  UNL     1      21.315  42.799  69.806  1.00  0.00     0.163 HD
BRANCH  22  24
HETATM   24  C15 UNL     1      21.273  40.617  69.758  1.00  0.00     0.118 C 
BRANCH  24  25
HETATM   25  C16 UNL     1      22.655  40.363  70.202  1.00  0.00     0.079 C 
HETATM   26  S1  UNL     1      23.635  41.415  70.325  1.00  0.00    -0.095 SA
ENDBRANCH  24  25
BRANCH  24  27
HETATM   27  C17 UNL     1      21.036  40.579  68.288  1.00  0.00     0.034 C 
BRANCH  27  28
HETATM   28  C18 UNL     1      20.856  41.918  67.683  1.00  0.00    -0.021 C 
HETATM   29  C19 UNL     1      22.035  42.221  66.711  1.00  0.00     0.009 C 
HETATM   30  C20 UNL     1      19.637  42.092  66.805  1.00  0.00     0.009 C 
ENDBRANCH  27  28
ENDBRANCH  24  27
ENDBRANCH  22  24
ENDBRANCH   1  20
TORSDOF 12
ENDMDL
MODEL 3
REMARK VINA RESULT: -7.430258916      2.786      5.031
REMARK  12 active torsions:
REMARK  status: ('A' for Active; 'I' for Inactive)
REMARK       I    between atoms: C2_2  and  N1_4 
REMARK    1  A    between atoms: N1_4  and  C3_6 
REMARK    2  A    between atoms: C3_6  and  C4_7 
REMARK    3  A    between atoms: C3_6  and  C8_11 
REMARK    4  A    between atoms: C4_7  and  C5_8 
REMARK       I    between atoms: C8_11  and  N2_13 
REMARK    5  A    between atoms: N2_13  and  C9_15 
REMARK    6  A    between atoms: C9_15  and  C10_16 
REMARK    7  A    between atoms: C9_15  and  C14_20 
REMARK    8  A    between atoms: C10_16  and  C11_17 
REMARK       I    between atoms: C14_20  and  N3_22 
REMARK    9  A    between atoms: N3_22  and  C15_24 
REMARK   10  A    between atoms: C15_24  and  C16_25 
REMARK   11  A    between atoms: C15_24  and  C17_27 
REMARK   12  A    between atoms: C17_27  and  C18_28 
ROOT
HETATM    1  C9  UNL     1      17.264  44.721  70.929  1.00  0.00     0.177 C 
ENDROOT
BRANCH   1   2
HETATM    2  N2  UNL     1      17.186  43.796  69.757  1.00  0.00    -0.346 N 
HETATM    3  C8  UNL     1      18.013  43.936  68.639  1.00  0.00     0.241 C 
HETATM    4  O2  UNL     1      18.871  44.879  68.600  1.00  0.00    -0.271 OA
ATOM      5  H2  UNL     1      16.505  43.037  69.773  1.00  0.00     0.163 HD
BRANCH   3   6
HETATM    6  C3  UNL     1      17.872  42.968  67.507  1.00  0.00     0.177 C 
BRANCH   6   7
HETATM    7  N1  UNL     1      16.591  43.233  66.853  1.00  0.00    -0.348 N 
HETATM    8  C2  UNL     1      16.082  42.373  65.854  1.00  0.00     0.214 C 
HETATM    9  C1  UNL     1      14.780  42.688  65.223  1.00  0.00     0.117 C 
HETATM   10  O1  UNL     1      16.756  41.365  65.535  1.00  0.00    -0.274 OA
ATOM     11  H1  UNL     1      16.053  44.056  67.124  1.00  0.00     0.163 HD
ENDBRANCH   6   7
BRANCH   6  12
HETATM   12  C4  UNL     1      18.991  43.283  66.548  1.00  0.00     0.038 C 
BRANCH  12  13
HETATM   13  C5  UNL     1      20.040  42.217  66.606  1.00  0.00    -0.020 C 
HETATM   14  C6  UNL     1      19.947  41.464  67.894  1.00  0.00     0.009 C 
HETATM   15  C7  UNL     1      21.397  42.895  66.494  1.00  0.00     0.009 C 
ENDBRANCH  12  13
ENDBRANCH   6  12
ENDBRANCH   3   6
ENDBRANCH   1   2
BRANCH   1  16
HETATM   16  C10 UNL     1      15.898  45.272  71.046  1.00  0.00     0.038 C 
BRANCH  16  17
HETATM   17  C11 UNL     1      15.329  46.099  69.973  1.00  0.00    -0.020 C 
HETATM   18  C12 UNL     1      16.201  47.159  69.381  1.00  0.00     0.009 C 
HETATM   19  C13 UNL     1      14.115  46.827  70.587  1.00  0.00     0.009 C 
ENDBRANCH  16  17
ENDBRANCH   1  16
BRANCH   1  20
HETATM   20  C14 UNL     1      17.840  44.030  72.069  1.00  0.00     0.241 C 
HETATM   21  O3  UNL     1      17.084  43.362  72.818  1.00  0.00    -0.271 OA
HETATM   22  N3  UNL     1      19.217  44.063  72.383  1.00  0.00    -0.351 N 
ATOM     23  H3  UNL     1      19.860  44.597  71.798  1.00  0.00     0.163 HD
BRANCH  22  24
HETATM   24  C15 UNL     1      19.732  43.321  73.565  1.00  0.00     0.118 C 
BRANCH  24  25
HETATM   25  C16 UNL     1      20.027  44.303  74.623  1.00  0.00     0.079 C 
HETATM   26  S1  UNL     1      19.000  44.867  75.464  1.00  0.00    -0.095 SA
ENDBRANCH  24  25
BRANCH  24  27
HETATM   27  C17 UNL     1      20.881  42.496  73.093  1.00  0.00     0.034 C 
BRANCH  27  28
HETATM   28  C18 UNL     1      20.552  41.631  71.938  1.00  0.00    -0.021 C 
HETATM   29  C19 UNL     1      21.864  41.121  71.270  1.00  0.00     0.009 C 
HETATM   30  C20 UNL     1      19.812  40.352  72.255  1.00  0.00     0.009 C 
ENDBRANCH  27  28
ENDBRANCH  24  27
ENDBRANCH  22  24
ENDBRANCH   1  20
TORSDOF 12
ENDMDL
MODEL 4
REMARK VINA RESULT: -7.406860718      2.548      3.863
REMARK  12 active torsions:
REMARK  status: ('A' for Active; 'I' for Inactive)
REMARK       I    between atoms: C2_2  and  N1_4 
REMARK    1  A    between atoms: N1_4  and  C3_6 
REMARK    2  A    between atoms: C3_6  and  C4_7 
REMARK    3  A    between atoms: C3_6  and  C8_11 
REMARK    4  A    between atoms: C4_7  and  C5_8 
REMARK       I    between atoms: C8_11  and  N2_13 
REMARK    5  A    between atoms: N2_13  and  C9_15 
REMARK    6  A    between atoms: C9_15  and  C10_16 
REMARK    7  A    between atoms: C9_15  and  C14_20 
REMARK    8  A    between atoms: C10_16  and  C11_17 
REMARK       I    between atoms: C14_20  and  N3_22 
REMARK    9  A    between atoms: N3_22  and  C15_24 
REMARK   10  A    between atoms: C15_24  and  C16_25 
REMARK   11  A    between atoms: C15_24  and  C17_27 
REMARK   12  A    between atoms: C17_27  and  C18_28 
ROOT
HETATM    1  C9  UNL     1      20.723  43.336  69.051  1.00  0.00     0.177 C 
ENDROOT
BRANCH   1   2
HETATM    2  N2  UNL     1      19.567  44.270  68.886  1.00  0.00    -0.346 N 
HETATM    3  C8  UNL     1      18.302  43.827  68.489  1.00  0.00     0.241 C 
HETATM    4  O2  UNL     1      18.109  42.589  68.254  1.00  0.00    -0.271 OA
ATOM      5  H2  UNL     1      19.706  45.263  69.070  1.00  0.00     0.163 HD
BRANCH   3   6
HETATM    6  C3  UNL     1      17.197  44.827  68.347  1.00  0.00     0.177 C 
BRANCH   6   7
HETATM    7  N1  UNL     1      16.064  44.150  67.718  1.00  0.00    -0.348 N 
HETATM    8  C2  UNL     1      15.962  44.035  66.313  1.00  0.00     0.214 C 
HETATM    9  C1  UNL     1      14.793  43.340  65.727  1.00  0.00     0.117 C 
HETATM   10  O1  UNL     1      16.873  44.529  65.607  1.00  0.00    -0.274 OA
ATOM     11  H1  UNL     1      15.331  43.752  68.306  1.00  0.00     0.163 HD
ENDBRANCH   6   7
BRANCH   6  12
HETATM   12  C4  UNL     1      16.817  45.228  69.750  1.00  0.00     0.038 C 
BRANCH  12  13
HETATM   13  C5  UNL     1      15.558  46.036  69.737  1.00  0.00    -0.020 C 
HETATM   14  C6  UNL     1      15.840  47.433  69.286  1.00  0.00     0.009 C 
HETATM   15  C7  UNL     1      14.998  46.046  71.151  1.00  0.00     0.009 C 
ENDBRANCH  12  13
ENDBRANCH   6  12
ENDBRANCH   3   6
ENDBRANCH   1   2
BRANCH   1  16
HETATM   16  C10 UNL     1      21.683  43.764  68.012  1.00  0.00     0.038 C 
BRANCH  16  17
HETATM   17  C11 UNL     1      21.876  42.964  66.794  1.00  0.00    -0.020 C 
HETATM   18  C12 UNL     1      20.795  43.007  65.761  1.00  0.00     0.009 C 
HETATM   19  C13 UNL     1      21.979  41.495  67.254  1.00  0.00     0.009 C 
ENDBRANCH  16  17
ENDBRANCH   1  16
BRANCH   1  20
HETATM   20  C14 UNL     1      21.155  43.319  70.437  1.00  0.00     0.241 C 
HETATM   21  O3  UNL     1      20.392  43.798  71.314  1.00  0.00    -0.271 OA
HETATM   22  N3  UNL     1      22.392  42.786  70.859  1.00  0.00    -0.351 N 
ATOM     23  H3  UNL     1      23.037  42.392  70.174  1.00  0.00     0.163 HD
BRANCH  22  24
HETATM   24  C15 UNL     1      22.759  42.797  72.301  1.00  0.00     0.118 C 
BRANCH  24  25
HETATM   25  C16 UNL     1      24.076  43.445  72.428  1.00  0.00     0.079 C 
HETATM   26  S1  UNL     1      24.780  43.532  73.684  1.00  0.00    -0.095 SA
ENDBRANCH  24  25
BRANCH  24  27
HETATM   27  C17 UNL     1      22.668  41.390  72.784  1.00  0.00     0.034 C 
BRANCH  27  28
HETATM   28  C18 UNL     1      21.426  41.103  73.536  1.00  0.00    -0.021 C 
HETATM   29  C19 UNL     1      20.843  42.425  74.117  1.00  0.00     0.009 C 
HETATM   30  C20 UNL     1      20.274  40.547  72.729  1.00  0.00     0.009 C 
ENDBRANCH  27  28
ENDBRANCH  24  27
ENDBRANCH  22  24
ENDBRANCH   1  20
TORSDOF 12
ENDMDL
MODEL 5
REMARK VINA RESULT: -7.389445751      3.017      5.342
REMARK  12 active torsions:
REMARK  status: ('A' for Active; 'I' for Inactive)
REMARK       I    between atoms: C2_2  and  N1_4 
REMARK    1  A    between atoms: N1_4  and  C3_6 
REMARK    2  A    between atoms: C3_6  and  C4_7 
REMARK    3  A    between atoms: C3_6  and  C8_11 
REMARK    4  A    between atoms: C4_7  and  C5_8 
REMARK       I    between atoms: C8_11  and  N2_13 
REMARK    5  A    between atoms: N2_13  and  C9_15 
REMARK    6  A    between atoms: C9_15  and  C10_16 
REMARK    7  A    between atoms: C9_15  and  C14_20 
REMARK    8  A    between atoms: C10_16  and  C11_17 
REMARK       I    between atoms: C14_20  and  N3_22 
REMARK    9  A    between atoms: N3_22  and  C15_24 
REMARK   10  A    between atoms: C15_24  and  C16_25 
REMARK   11  A    between atoms: C15_24  and  C17_27 
REMARK   12  A    between atoms: C17_27  and  C18_28 
ROOT
HETATM    1  C9  UNL     1      17.610  44.680  71.052  1.00  0.00     0.177 C 
ENDROOT
BRANCH   1   2
HETATM    2  N2  UNL     1      17.999  43.745  69.952  1.00  0.00    -0.346 N 
HETATM    3  C8  UNL     1      19.239  43.823  69.310  1.00  0.00     0.241 C 
HETATM    4  O2  UNL     1      20.079  44.715  69.662  1.00  0.00    -0.271 OA
ATOM      5  H2  UNL     1      17.338  43.026  69.659  1.00  0.00     0.163 HD
BRANCH   3   6
HETATM    6  C3  UNL     1      19.551  42.849  68.217  1.00  0.00     0.177 C 
BRANCH   6   7
HETATM    7  N1  UNL     1      20.067  41.632  68.841  1.00  0.00    -0.348 N 
HETATM    8  C2  UNL     1      21.117  40.891  68.253  1.00  0.00     0.214 C 
HETATM    9  C1  UNL     1      21.602  39.664  68.927  1.00  0.00     0.117 C 
HETATM   10  O1  UNL     1      21.607  41.303  67.174  1.00  0.00    -0.274 OA
ATOM     11  H1  UNL     1      19.660  41.310  69.720  1.00  0.00     0.163 HD
ENDBRANCH   6   7
BRANCH   6  12
HETATM   12  C4  UNL     1      18.238  42.543  67.545  1.00  0.00     0.038 C 
BRANCH  12  13
HETATM   13  C5  UNL     1      18.226  43.092  66.153  1.00  0.00    -0.020 C 
HETATM   14  C6  UNL     1      19.507  43.806  65.864  1.00  0.00     0.009 C 
HETATM   15  C7  UNL     1      17.054  44.054  66.043  1.00  0.00     0.009 C 
ENDBRANCH  12  13
ENDBRANCH   6  12
ENDBRANCH   3   6
ENDBRANCH   1   2
BRANCH   1  16
HETATM   16  C10 UNL     1      16.176  44.943  70.812  1.00  0.00     0.038 C 
BRANCH  16  17
HETATM   17  C11 UNL     1      15.751  45.852  69.737  1.00  0.00    -0.020 C 
HETATM   18  C12 UNL     1      16.774  46.788  69.179  1.00  0.00     0.009 C 
HETATM   19  C13 UNL     1      14.633  46.733  70.333  1.00  0.00     0.009 C 
ENDBRANCH  16  17
ENDBRANCH   1  16
BRANCH   1  20
HETATM   20  C14 UNL     1      18.015  44.133  72.335  1.00  0.00     0.241 C 
HETATM   21  O3  UNL     1      17.134  43.661  73.097  1.00  0.00    -0.271 OA
HETATM   22  N3  UNL     1      19.357  44.096  72.775  1.00  0.00    -0.351 N 
ATOM     23  H3  UNL     1      20.097  44.473  72.183  1.00  0.00     0.163 HD
BRANCH  22  24
HETATM   24  C15 UNL     1      19.693  43.511  74.101  1.00  0.00     0.118 C 
BRANCH  24  25
HETATM   25  C16 UNL     1      19.824  44.618  75.064  1.00  0.00     0.079 C 
HETATM   26  S1  UNL     1      18.790  44.944  76.015  1.00  0.00    -0.095 SA
ENDBRANCH  24  25
BRANCH  24  27
HETATM   27  C17 UNL     1      20.901  42.660  73.906  1.00  0.00     0.034 C 
BRANCH  27  28
HETATM   28  C18 UNL     1      20.902  41.919  72.626  1.00  0.00    -0.021 C 
HETATM   29  C19 UNL     1      22.363  41.552  72.229  1.00  0.00     0.009 C 
HETATM   30  C20 UNL     1      20.204  40.577  72.634  1.00  0.00     0.009 C 
ENDBRANCH  27  28
ENDBRANCH  24  27
ENDBRANCH  22  24
ENDBRANCH   1  20
TORSDOF 12
ENDMDL
