MODEL 1
REMARK VINA RESULT: -5.477485117      0.000      0.000
REMARK  3 active torsions:
REMARK  status: ('A' for Active; 'I' for Inactive)
REMARK    1  A    between atoms: C1_2  and  C2_4 
REMARK       I    between atoms: C2_4  and  N2_6 
REMARK    2  A    between atoms: N2_6  and  N3_8 
REMARK    3  A    between atoms: N3_8  and  C3_10 
ROOT
HETATM    1  C2  UNL     1      29.473  47.539  -0.897  1.00  0.00     0.325 C 
HETATM    2  O2  UNL     1      30.266  48.502  -0.819  1.00  0.00    -0.261 OA
HETATM    3  N2  UNL     1      29.390  46.750  -2.074  1.00  0.00    -0.260 N 
ATOM      4  H2  UNL     1      28.736  45.969  -2.117  1.00  0.00     0.190 HD
ENDROOT
BRANCH   3   5
HETATM    5  N3  UNL     1      30.208  47.042  -3.180  1.00  0.00    -0.276 N 
ATOM      6  H3  UNL     1      31.123  47.465  -3.029  1.00  0.00     0.189 HD
BRANCH   5   7
HETATM    7  C3  UNL     1      29.781  46.760  -4.496  1.00  0.00     0.199 C 
HETATM    8  N4  UNL     1      28.531  46.105  -4.701  1.00  0.00    -0.068 NA
HETATM    9  S1  UNL     1      30.745  47.196  -5.739  1.00  0.00    -0.043 SA
ENDBRANCH   5   7
ENDBRANCH   3   5
BRANCH   1  10
HETATM   10  C1  UNL     1      28.627  47.224   0.224  1.00  0.00     0.324 C 
HETATM   11  N1  UNL     1      28.222  45.888   0.473  1.00  0.00    -0.053 NA
HETATM   12  O1  UNL     1      28.241  48.133   0.989  1.00  0.00    -0.266 OA
ENDBRANCH   1  10
TORSDOF 3
ENDMDL
MODEL 2
REMARK VINA RESULT: -5.449156283      3.246      4.356
REMARK  3 active torsions:
REMARK  status: ('A' for Active; 'I' for Inactive)
REMARK    1  A    between atoms: C1_2  and  C2_4 
REMARK       I    between atoms: C2_4  and  N2_6 
REMARK    2  A    between atoms: N2_6  and  N3_8 
REMARK    3  A    between atoms: N3_8  and  C3_10 
ROOT
HETATM    1  C2  UNL     1      30.759  48.471  -1.884  1.00  0.00     0.325 C 
HETATM    2  O2  UNL     1      31.094  48.863  -0.745  1.00  0.00    -0.261 OA
HETATM    3  N2  UNL     1      29.404  48.502  -2.301  1.00  0.00    -0.260 N 
ATOM      4  H2  UNL     1      29.152  48.177  -3.234  1.00  0.00     0.190 HD
ENDROOT
BRANCH   3   5
HETATM    5  N3  UNL     1      28.406  48.979  -1.432  1.00  0.00    -0.276 N 
ATOM      6  H3  UNL     1      28.663  49.608  -0.671  1.00  0.00     0.189 HD
BRANCH   5   7
HETATM    7  C3  UNL     1      27.056  48.602  -1.595  1.00  0.00     0.199 C 
HETATM    8  N4  UNL     1      26.072  49.608  -1.828  1.00  0.00    -0.068 NA
HETATM    9  S1  UNL     1      26.672  47.018  -1.507  1.00  0.00    -0.043 SA
ENDBRANCH   5   7
ENDBRANCH   3   5
BRANCH   1  10
HETATM   10  C1  UNL     1      31.765  47.979  -2.788  1.00  0.00     0.324 C 
HETATM   11  N1  UNL     1      33.141  48.211  -2.537  1.00  0.00    -0.053 NA
HETATM   12  O1  UNL     1      31.429  47.340  -3.807  1.00  0.00    -0.266 OA
ENDBRANCH   1  10
TORSDOF 3
ENDMDL
MODEL 3
REMARK VINA RESULT: -5.445577200      1.893      2.051
REMARK  3 active torsions:
REMARK  status: ('A' for Active; 'I' for Inactive)
REMARK    1  A    between atoms: C1_2  and  C2_4 
REMARK       I    between atoms: C2_4  and  N2_6 
REMARK    2  A    between atoms: N2_6  and  N3_8 
REMARK    3  A    between atoms: N3_8  and  C3_10 
ROOT
HETATM    1  C2  UNL     1      27.712  46.719  -1.484  1.00  0.00     0.325 C 
HETATM    2  O2  UNL     1      26.598  47.127  -1.878  1.00  0.00    -0.261 OA
HETATM    3  N2  UNL     1      28.662  46.187  -2.395  1.00  0.00    -0.260 N 
ATOM      4  H2  UNL     1      29.565  45.859  -2.053  1.00  0.00     0.190 HD
ENDROOT
BRANCH   3   5
HETATM    5  N3  UNL     1      28.362  46.113  -3.766  1.00  0.00    -0.276 N 
ATOM      6  H3  UNL     1      27.396  45.975  -4.061  1.00  0.00     0.189 HD
BRANCH   5   7
HETATM    7  C3  UNL     1      29.377  46.224  -4.742  1.00  0.00     0.199 C 
HETATM    8  N4  UNL     1      29.597  45.146  -5.649  1.00  0.00    -0.068 NA
HETATM    9  S1  UNL     1      30.265  47.593  -4.791  1.00  0.00    -0.043 SA
ENDBRANCH   5   7
ENDBRANCH   3   5
BRANCH   1  10
HETATM   10  C1  UNL     1      28.038  46.786  -0.084  1.00  0.00     0.324 C 
HETATM   11  N1  UNL     1      28.207  48.037   0.561  1.00  0.00    -0.053 NA
HETATM   12  O1  UNL     1      28.176  45.734   0.576  1.00  0.00    -0.266 OA
ENDBRANCH   1  10
TORSDOF 3
ENDMDL
MODEL 4
REMARK VINA RESULT: -5.431195472      1.950      2.156
REMARK  3 active torsions:
REMARK  status: ('A' for Active; 'I' for Inactive)
REMARK    1  A    between atoms: C1_2  and  C2_4 
REMARK       I    between atoms: C2_4  and  N2_6 
REMARK    2  A    between atoms: N2_6  and  N3_8 
REMARK    3  A    between atoms: N3_8  and  C3_10 
ROOT
HETATM    1  C2  UNL     1      27.719  46.739  -1.480  1.00  0.00     0.325 C 
HETATM    2  O2  UNL     1      26.622  47.185  -1.880  1.00  0.00    -0.261 OA
HETATM    3  N2  UNL     1      28.659  46.183  -2.385  1.00  0.00    -0.260 N 
ATOM      4  H2  UNL     1      29.548  45.824  -2.038  1.00  0.00     0.190 HD
ENDROOT
BRANCH   3   5
HETATM    5  N3  UNL     1      28.368  46.124  -3.760  1.00  0.00    -0.276 N 
ATOM      6  H3  UNL     1      27.437  45.839  -4.063  1.00  0.00     0.189 HD
BRANCH   5   7
HETATM    7  C3  UNL     1      29.344  46.453  -4.726  1.00  0.00     0.199 C 
HETATM    8  N4  UNL     1      29.998  47.719  -4.657  1.00  0.00    -0.068 NA
HETATM    9  S1  UNL     1      29.685  45.364  -5.892  1.00  0.00    -0.043 SA
ENDBRANCH   5   7
ENDBRANCH   3   5
BRANCH   1  10
HETATM   10  C1  UNL     1      28.035  46.789  -0.077  1.00  0.00     0.324 C 
HETATM   11  N1  UNL     1      28.226  48.032   0.579  1.00  0.00    -0.053 NA
HETATM   12  O1  UNL     1      28.146  45.730   0.577  1.00  0.00    -0.266 OA
ENDBRANCH   1  10
TORSDOF 3
ENDMDL
MODEL 5
REMARK VINA RESULT: -5.371564491      1.211      1.293
REMARK  3 active torsions:
REMARK  status: ('A' for Active; 'I' for Inactive)
REMARK    1  A    between atoms: C1_2  and  C2_4 
REMARK       I    between atoms: C2_4  and  N2_6 
REMARK    2  A    between atoms: N2_6  and  N3_8 
REMARK    3  A    between atoms: N3_8  and  C3_10 
ROOT
HETATM    1  C2  UNL     1      29.789  47.619  -0.900  1.00  0.00     0.325 C 
HETATM    2  O2  UNL     1      30.588  48.554  -0.676  1.00  0.00    -0.261 OA
HETATM    3  N2  UNL     1      29.816  46.911  -2.129  1.00  0.00    -0.260 N 
ATOM      4  H2  UNL     1      29.155  46.152  -2.293  1.00  0.00     0.190 HD
ENDROOT
BRANCH   3   5
HETATM    5  N3  UNL     1      30.750  47.253  -3.123  1.00  0.00    -0.276 N 
ATOM      6  H3  UNL     1      31.604  47.744  -2.860  1.00  0.00     0.189 HD
BRANCH   5   7
HETATM    7  C3  UNL     1      30.525  46.927  -4.478  1.00  0.00     0.199 C 
HETATM    8  N4  UNL     1      31.517  47.254  -5.450  1.00  0.00    -0.068 NA
HETATM    9  S1  UNL     1      29.129  46.185  -4.881  1.00  0.00    -0.043 SA
ENDBRANCH   5   7
ENDBRANCH   3   5
BRANCH   1  10
HETATM   10  C1  UNL     1      28.825  47.254   0.104  1.00  0.00     0.324 C 
HETATM   11  N1  UNL     1      28.490  45.895   0.326  1.00  0.00    -0.053 NA
HETATM   12  O1  UNL     1      28.272  48.140   0.790  1.00  0.00    -0.266 OA
ENDBRANCH   1  10
TORSDOF 3
ENDMDL
