MODEL 1
REMARK VINA RESULT: -6.517043744      0.000      0.000
REMARK  3 active torsions:
REMARK  status: ('A' for Active; 'I' for Inactive)
REMARK    1  A    between atoms: N1_2  and  C2_4 
REMARK    2  A    between atoms: C3_9  and  N4_10 
REMARK       I    between atoms: N4_10  and  C4_12 
REMARK    3  A    between atoms: N7_17  and  N8_18 
ROOT
HETATM    1  C2  UNL     1      27.644  47.871  -2.523  1.00  0.00     0.728 A 
HETATM    2  N2  UNL     1      27.228  46.574  -2.367  1.00  0.00    -0.116 N 
ATOM      3  H2  UNL     1      26.493  46.267  -1.730  1.00  0.00     0.206 HD
HETATM    4  N3  UNL     1      27.920  45.782  -3.162  1.00  0.00    -0.115 N 
ATOM      5  H3  UNL     1      27.804  44.771  -3.237  1.00  0.00     0.206 HD
HETATM    6  C3  UNL     1      28.804  46.516  -3.861  1.00  0.00     0.735 A 
HETATM    7  N7  UNL     1      28.618  47.785  -3.457  1.00  0.00     0.086 N 
ENDROOT
BRANCH   6   8
HETATM    8  N4  UNL     1      29.643  46.080  -4.731  1.00  0.00    -0.160 N 
HETATM    9  C4  UNL     1      29.391  45.236  -5.812  1.00  0.00     0.200 C 
HETATM   10  N5  UNL     1      29.405  43.943  -5.778  1.00  0.00    -0.373 N 
HETATM   11  N6  UNL     1      29.088  45.837  -7.086  1.00  0.00    -0.063 NA
ATOM     12  H52 UNL     1      29.620  43.518  -4.876  1.00  0.00     0.158 HD
ATOM     13  H51 UNL     1      29.221  43.325  -6.569  1.00  0.00     0.158 HD
ATOM     14  H4  UNL     1      30.609  46.388  -4.618  1.00  0.00     0.187 HD
ENDBRANCH   6   8
BRANCH   7  15
HETATM   15  N8  UNL     1      29.359  48.857  -3.961  1.00  0.00    -0.309 N 
ATOM     16  H82 UNL     1      29.160  49.828  -3.720  1.00  0.00     0.178 HD
ATOM     17  H81 UNL     1      30.149  48.783  -4.602  1.00  0.00     0.178 HD
ENDBRANCH   7  15
BRANCH   1  18
HETATM   18  N1  UNL     1      27.177  48.895  -1.897  1.00  0.00    -0.227 N 
HETATM   19  C1  UNL     1      25.898  49.454  -2.263  1.00  0.00     0.165 C 
ATOM     20  H1  UNL     1      27.715  49.315  -1.139  1.00  0.00     0.177 HD
ENDBRANCH   1  18
TORSDOF 3
ENDMDL
MODEL 2
REMARK VINA RESULT: -6.503578478      1.489      4.731
REMARK  3 active torsions:
REMARK  status: ('A' for Active; 'I' for Inactive)
REMARK    1  A    between atoms: N1_2  and  C2_4 
REMARK    2  A    between atoms: C3_9  and  N4_10 
REMARK       I    between atoms: N4_10  and  C4_12 
REMARK    3  A    between atoms: N7_17  and  N8_18 
ROOT
HETATM    1  C2  UNL     1      28.951  46.693  -4.710  1.00  0.00     0.728 A 
HETATM    2  N2  UNL     1      28.375  45.755  -3.893  1.00  0.00    -0.116 N 
ATOM      3  H2  UNL     1      28.063  44.831  -4.191  1.00  0.00     0.206 HD
HETATM    4  N3  UNL     1      28.285  46.226  -2.664  1.00  0.00    -0.115 N 
ATOM      5  H3  UNL     1      27.895  45.724  -1.866  1.00  0.00     0.206 HD
HETATM    6  C3  UNL     1      28.790  47.471  -2.627  1.00  0.00     0.735 A 
HETATM    7  N7  UNL     1      29.191  47.736  -3.884  1.00  0.00     0.086 N 
ENDROOT
BRANCH   6   8
HETATM    8  N4  UNL     1      28.868  48.236  -1.597  1.00  0.00    -0.160 N 
HETATM    9  C4  UNL     1      27.961  48.342  -0.544  1.00  0.00     0.200 C 
HETATM   10  N5  UNL     1      26.929  49.121  -0.513  1.00  0.00    -0.373 N 
HETATM   11  N6  UNL     1      28.176  47.524   0.623  1.00  0.00    -0.063 NA
ATOM     12  H52 UNL     1      26.777  49.700  -1.339  1.00  0.00     0.158 HD
ATOM     13  H51 UNL     1      26.265  49.199   0.258  1.00  0.00     0.158 HD
ATOM     14  H4  UNL     1      29.691  48.836  -1.544  1.00  0.00     0.187 HD
ENDBRANCH   6   8
BRANCH   7  15
HETATM   15  N8  UNL     1      29.777  48.949  -4.252  1.00  0.00    -0.309 N 
ATOM     16  H82 UNL     1      30.115  49.135  -5.197  1.00  0.00     0.178 HD
ATOM     17  H81 UNL     1      29.924  49.749  -3.637  1.00  0.00     0.178 HD
ENDBRANCH   7  15
BRANCH   1  18
HETATM   18  N1  UNL     1      29.185  46.557  -5.970  1.00  0.00    -0.227 N 
HETATM   19  C1  UNL     1      29.407  45.248  -6.534  1.00  0.00     0.165 C 
ATOM     20  H1  UNL     1      29.214  47.380  -6.572  1.00  0.00     0.177 HD
ENDBRANCH   1  18
TORSDOF 3
ENDMDL
MODEL 3
REMARK VINA RESULT: -6.412118867      2.085      4.019
REMARK  3 active torsions:
REMARK  status: ('A' for Active; 'I' for Inactive)
REMARK    1  A    between atoms: N1_2  and  C2_4 
REMARK    2  A    between atoms: C3_9  and  N4_10 
REMARK       I    between atoms: N4_10  and  C4_12 
REMARK    3  A    between atoms: N7_17  and  N8_18 
ROOT
HETATM    1  C2  UNL     1      30.050  48.629  -4.318  1.00  0.00     0.728 A 
HETATM    2  N2  UNL     1      30.772  47.476  -4.493  1.00  0.00    -0.116 N 
ATOM      3  H2  UNL     1      31.700  47.425  -4.913  1.00  0.00     0.206 HD
HETATM    4  N3  UNL     1      30.088  46.445  -4.037  1.00  0.00    -0.115 N 
ATOM      5  H3  UNL     1      30.404  45.475  -4.049  1.00  0.00     0.206 HD
HETATM    6  C3  UNL     1      28.909  46.873  -3.553  1.00  0.00     0.735 A 
HETATM    7  N7  UNL     1      28.907  48.206  -3.733  1.00  0.00     0.086 N 
ENDROOT
BRANCH   6   8
HETATM    8  N4  UNL     1      27.987  46.147  -3.029  1.00  0.00    -0.160 N 
HETATM    9  C4  UNL     1      27.559  46.138  -1.702  1.00  0.00     0.200 C 
HETATM   10  N5  UNL     1      28.069  45.426  -0.750  1.00  0.00    -0.373 N 
HETATM   11  N6  UNL     1      26.453  46.987  -1.340  1.00  0.00    -0.063 NA
ATOM     12  H52 UNL     1      28.852  44.825  -1.007  1.00  0.00     0.158 HD
ATOM     13  H51 UNL     1      27.756  45.419   0.221  1.00  0.00     0.158 HD
ATOM     14  H4  UNL     1      27.512  45.500  -3.658  1.00  0.00     0.187 HD
ENDBRANCH   6   8
BRANCH   7  15
HETATM   15  N8  UNL     1      27.838  49.021  -3.352  1.00  0.00    -0.309 N 
ATOM     16  H82 UNL     1      26.899  48.915  -3.735  1.00  0.00     0.178 HD
ATOM     17  H81 UNL     1      27.884  49.782  -2.674  1.00  0.00     0.178 HD
ENDBRANCH   7  15
BRANCH   1  18
HETATM   18  N1  UNL     1      30.426  49.815  -4.654  1.00  0.00    -0.227 N 
HETATM   19  C1  UNL     1      31.124  50.035  -5.897  1.00  0.00     0.165 C 
ATOM     20  H1  UNL     1      30.230  50.603  -4.036  1.00  0.00     0.177 HD
ENDBRANCH   1  18
TORSDOF 3
ENDMDL
MODEL 4
REMARK VINA RESULT: -6.263015263      1.988      4.481
REMARK  3 active torsions:
REMARK  status: ('A' for Active; 'I' for Inactive)
REMARK    1  A    between atoms: N1_2  and  C2_4 
REMARK    2  A    between atoms: C3_9  and  N4_10 
REMARK       I    between atoms: N4_10  and  C4_12 
REMARK    3  A    between atoms: N7_17  and  N8_18 
ROOT
HETATM    1  C2  UNL     1      29.907  46.914  -4.564  1.00  0.00     0.728 A 
HETATM    2  N2  UNL     1      28.967  45.915  -4.560  1.00  0.00    -0.116 N 
ATOM      3  H2  UNL     1      28.845  45.224  -5.300  1.00  0.00     0.206 HD
HETATM    4  N3  UNL     1      28.246  45.983  -3.458  1.00  0.00    -0.115 N 
ATOM      5  H3  UNL     1      27.481  45.353  -3.213  1.00  0.00     0.206 HD
HETATM    6  C3  UNL     1      28.677  47.012  -2.707  1.00  0.00     0.735 A 
HETATM    7  N7  UNL     1      29.689  47.564  -3.399  1.00  0.00     0.086 N 
ENDROOT
BRANCH   6   8
HETATM    8  N4  UNL     1      28.208  47.377  -1.567  1.00  0.00    -0.160 N 
HETATM    9  C4  UNL     1      28.155  46.632  -0.390  1.00  0.00     0.200 C 
HETATM   10  N5  UNL     1      27.198  45.832  -0.047  1.00  0.00    -0.373 N 
HETATM   11  N6  UNL     1      29.248  46.754   0.541  1.00  0.00    -0.063 NA
ATOM     12  H52 UNL     1      26.425  45.746  -0.706  1.00  0.00     0.158 HD
ATOM     13  H51 UNL     1      27.158  45.287   0.815  1.00  0.00     0.158 HD
ATOM     14  H4  UNL     1      27.831  48.323  -1.518  1.00  0.00     0.187 HD
ENDBRANCH   6   8
BRANCH   7  15
HETATM   15  N8  UNL     1      30.404  48.673  -2.939  1.00  0.00    -0.309 N 
ATOM     16  H82 UNL     1      31.038  49.207  -3.534  1.00  0.00     0.178 HD
ATOM     17  H81 UNL     1      30.370  49.051  -1.993  1.00  0.00     0.178 HD
ENDBRANCH   7  15
BRANCH   1  18
HETATM   18  N1  UNL     1      30.774  47.133  -5.492  1.00  0.00    -0.227 N 
HETATM   19  C1  UNL     1      30.487  48.069  -6.552  1.00  0.00     0.165 C 
ATOM     20  H1  UNL     1      31.668  46.641  -5.478  1.00  0.00     0.177 HD
ENDBRANCH   1  18
TORSDOF 3
ENDMDL
MODEL 5
REMARK VINA RESULT: -6.230396262      1.750      4.193
REMARK  3 active torsions:
REMARK  status: ('A' for Active; 'I' for Inactive)
REMARK    1  A    between atoms: N1_2  and  C2_4 
REMARK    2  A    between atoms: C3_9  and  N4_10 
REMARK       I    between atoms: N4_10  and  C4_12 
REMARK    3  A    between atoms: N7_17  and  N8_18 
ROOT
HETATM    1  C2  UNL     1      29.734  47.530  -5.124  1.00  0.00     0.728 A 
HETATM    2  N2  UNL     1      29.743  46.187  -5.401  1.00  0.00    -0.116 N 
ATOM      3  H2  UNL     1      30.313  45.742  -6.120  1.00  0.00     0.206 HD
HETATM    4  N3  UNL     1      28.906  45.558  -4.599  1.00  0.00    -0.115 N 
ATOM      5  H3  UNL     1      28.729  44.554  -4.601  1.00  0.00     0.206 HD
HETATM    6  C3  UNL     1      28.324  46.449  -3.777  1.00  0.00     0.735 A 
HETATM    7  N7  UNL     1      28.843  47.643  -4.114  1.00  0.00     0.086 N 
ENDROOT
BRANCH   6   8
HETATM    8  N4  UNL     1      27.455  46.195  -2.865  1.00  0.00    -0.160 N 
HETATM    9  C4  UNL     1      27.617  46.291  -1.484  1.00  0.00     0.200 C 
HETATM   10  N5  UNL     1      28.071  45.358  -0.711  1.00  0.00    -0.373 N 
HETATM   11  N6  UNL     1      27.248  47.527  -0.841  1.00  0.00    -0.063 NA
ATOM     12  H52 UNL     1      28.332  44.483  -1.167  1.00  0.00     0.158 HD
ATOM     13  H51 UNL     1      28.189  45.427   0.300  1.00  0.00     0.158 HD
ATOM     14  H4  UNL     1      26.539  45.887  -3.190  1.00  0.00     0.187 HD
ENDBRANCH   6   8
BRANCH   7  15
HETATM   15  N8  UNL     1      28.482  48.833  -3.477  1.00  0.00    -0.309 N 
ATOM     16  H82 UNL     1      28.101  49.635  -3.979  1.00  0.00     0.178 HD
ATOM     17  H81 UNL     1      28.559  49.018  -2.476  1.00  0.00     0.178 HD
ENDBRANCH   7  15
BRANCH   1  18
HETATM   18  N1  UNL     1      30.435  48.430  -5.723  1.00  0.00    -0.227 N 
HETATM   19  C1  UNL     1      30.667  48.350  -7.144  1.00  0.00     0.165 C 
ATOM     20  H1  UNL     1      30.830  49.204  -5.188  1.00  0.00     0.177 HD
ENDBRANCH   1  18
TORSDOF 3
ENDMDL
