MODEL 1
REMARK VINA RESULT: -7.212961896      0.000      0.000
REMARK  3 active torsions:
REMARK  status: ('A' for Active; 'I' for Inactive)
REMARK    1  A    between atoms: N1_1  and  N2_4 
REMARK    2  A    between atoms: N3_6  and  C1_8 
REMARK    3  A    between atoms: C2_9  and  O1_10 
ROOT
HETATM    1  C1  UNL     1      29.913  47.702  -2.749  1.00  0.00     0.156 C 
HETATM    2  C2  UNL     1      29.848  47.789  -1.379  1.00  0.00     0.177 C 
HETATM    3  N4  UNL     1      29.162  47.008  -0.498  1.00  0.00    -0.287 N 
ATOM      4  H4  UNL     1      29.092  47.352   0.460  1.00  0.00     0.172 HD
HETATM    5  C3  UNL     1      28.564  45.824  -0.766  1.00  0.00     0.329 C 
HETATM    6  O2  UNL     1      28.440  45.032   0.205  1.00  0.00    -0.247 OA
HETATM    7  N5  UNL     1      28.072  45.353  -1.926  1.00  0.00    -0.272 N 
ATOM      8  H5  UNL     1      27.407  44.582  -1.862  1.00  0.00     0.174 HD
HETATM    9  C4  UNL     1      28.370  45.796  -3.164  1.00  0.00     0.302 C 
HETATM   10  O3  UNL     1      27.871  45.123  -4.102  1.00  0.00    -0.264 OA
HETATM   11  C5  UNL     1      29.146  46.883  -3.552  1.00  0.00     0.271 C 
HETATM   12  O4  UNL     1      29.176  47.185  -4.771  1.00  0.00    -0.280 OA
ENDROOT
BRANCH   1  13
HETATM   13  N3  UNL     1      30.871  48.549  -3.385  1.00  0.00    -0.279 N 
HETATM   14  N2  UNL     1      30.538  49.617  -3.981  1.00  0.00    -0.249 N 
ATOM     15  H2  UNL     1      29.568  49.926  -4.038  1.00  0.00     0.207 HD
ATOM     16  H3  UNL     1      31.856  48.285  -3.358  1.00  0.00     0.189 HD
BRANCH  14  17
HETATM   17  N1  UNL     1      31.586  50.345  -4.557  1.00  0.00    -0.331 N 
ATOM     18  H12 UNL     1      32.497  50.410  -4.103  1.00  0.00     0.178 HD
ATOM     19  H11 UNL     1      31.376  50.799  -5.446  1.00  0.00     0.178 HD
ENDBRANCH  14  17
ENDBRANCH   1  13
BRANCH   2  20
HETATM   20  O1  UNL     1      30.585  48.814  -0.823  1.00  0.00    -0.344 OA
ATOM     21  H1  UNL     1      30.145  49.655  -0.794  1.00  0.00     0.219 HD
ENDBRANCH   2  20
TORSDOF 3
ENDMDL
MODEL 2
REMARK VINA RESULT: -7.167940872      1.973      1.988
REMARK  3 active torsions:
REMARK  status: ('A' for Active; 'I' for Inactive)
REMARK    1  A    between atoms: N1_1  and  N2_4 
REMARK    2  A    between atoms: N3_6  and  C1_8 
REMARK    3  A    between atoms: C2_9  and  O1_10 
ROOT
HETATM    1  C1  UNL     1      29.017  47.579  -2.943  1.00  0.00     0.156 C 
HETATM    2  C2  UNL     1      29.833  46.800  -2.156  1.00  0.00     0.177 C 
HETATM    3  N4  UNL     1      29.517  46.058  -1.059  1.00  0.00    -0.287 N 
ATOM      4  H4  UNL     1      30.297  45.704  -0.505  1.00  0.00     0.172 HD
HETATM    5  C3  UNL     1      28.272  45.743  -0.629  1.00  0.00     0.329 C 
HETATM    6  O2  UNL     1      28.169  44.685   0.046  1.00  0.00    -0.247 OA
HETATM    7  N5  UNL     1      27.110  46.395  -0.811  1.00  0.00    -0.272 N 
ATOM      8  H5  UNL     1      26.350  46.165  -0.171  1.00  0.00     0.174 HD
HETATM    9  C4  UNL     1      26.848  47.322  -1.755  1.00  0.00     0.302 C 
HETATM   10  O3  UNL     1      25.652  47.710  -1.799  1.00  0.00    -0.264 OA
HETATM   11  C5  UNL     1      27.703  47.908  -2.681  1.00  0.00     0.271 C 
HETATM   12  O4  UNL     1      27.262  48.854  -3.381  1.00  0.00    -0.280 OA
ENDROOT
BRANCH   1  13
HETATM   13  N3  UNL     1      29.604  48.086  -4.142  1.00  0.00    -0.279 N 
HETATM   14  N2  UNL     1      30.284  49.156  -4.161  1.00  0.00    -0.249 N 
ATOM     15  H2  UNL     1      30.446  49.710  -3.320  1.00  0.00     0.207 HD
ATOM     16  H3  UNL     1      29.472  47.570  -5.012  1.00  0.00     0.189 HD
BRANCH  14  17
HETATM   17  N1  UNL     1      30.798  49.530  -5.408  1.00  0.00    -0.331 N 
ATOM     18  H12 UNL     1      30.560  49.013  -6.255  1.00  0.00     0.178 HD
ATOM     19  H11 UNL     1      31.417  50.341  -5.409  1.00  0.00     0.178 HD
ENDBRANCH  14  17
ENDBRANCH   1  13
BRANCH   2  20
HETATM   20  O1  UNL     1      31.158  46.770  -2.539  1.00  0.00    -0.344 OA
ATOM     21  H1  UNL     1      31.319  46.406  -3.402  1.00  0.00     0.219 HD
ENDBRANCH   2  20
TORSDOF 3
ENDMDL
MODEL 3
REMARK VINA RESULT: -7.125460550      2.727      3.567
REMARK  3 active torsions:
REMARK  status: ('A' for Active; 'I' for Inactive)
REMARK    1  A    between atoms: N1_1  and  N2_4 
REMARK    2  A    between atoms: N3_6  and  C1_8 
REMARK    3  A    between atoms: C2_9  and  O1_10 
ROOT
HETATM    1  C1  UNL     1      28.062  46.538  -2.580  1.00  0.00     0.156 C 
HETATM    2  C2  UNL     1      28.830  46.635  -1.444  1.00  0.00     0.177 C 
HETATM    3  N4  UNL     1      28.710  47.496  -0.395  1.00  0.00    -0.287 N 
ATOM      4  H4  UNL     1      29.492  47.532   0.260  1.00  0.00     0.172 HD
HETATM    5  C3  UNL     1      27.659  48.308  -0.134  1.00  0.00     0.329 C 
HETATM    6  O2  UNL     1      27.487  48.624   1.072  1.00  0.00    -0.247 OA
HETATM    7  N5  UNL     1      26.755  48.840  -0.976  1.00  0.00    -0.272 N 
ATOM      8  H5  UNL     1      26.233  49.648  -0.636  1.00  0.00     0.174 HD
HETATM    9  C4  UNL     1      26.469  48.413  -2.223  1.00  0.00     0.302 C 
HETATM   10  O3  UNL     1      25.505  49.002  -2.776  1.00  0.00    -0.264 OA
HETATM   11  C5  UNL     1      27.082  47.422  -2.981  1.00  0.00     0.271 C 
HETATM   12  O4  UNL     1      26.727  47.287  -4.179  1.00  0.00    -0.280 OA
ENDROOT
BRANCH   1  13
HETATM   13  N3  UNL     1      28.319  45.406  -3.413  1.00  0.00    -0.279 N 
HETATM   14  N2  UNL     1      29.181  45.433  -4.341  1.00  0.00    -0.249 N 
ATOM     15  H2  UNL     1      29.736  46.265  -4.541  1.00  0.00     0.207 HD
ATOM     16  H3  UNL     1      27.790  44.548  -3.255  1.00  0.00     0.189 HD
BRANCH  14  17
HETATM   17  N1  UNL     1      29.324  44.249  -5.075  1.00  0.00    -0.331 N 
ATOM     18  H12 UNL     1      28.791  43.413  -4.839  1.00  0.00     0.178 HD
ATOM     19  H11 UNL     1      29.989  44.283  -5.848  1.00  0.00     0.178 HD
ENDBRANCH  14  17
ENDBRANCH   1  13
BRANCH   2  20
HETATM   20  O1  UNL     1      29.867  45.729  -1.361  1.00  0.00    -0.344 OA
ATOM     21  H1  UNL     1      29.878  45.067  -2.042  1.00  0.00     0.219 HD
ENDBRANCH   2  20
TORSDOF 3
ENDMDL
MODEL 4
REMARK VINA RESULT: -6.905318488      2.266      3.829
REMARK  3 active torsions:
REMARK  status: ('A' for Active; 'I' for Inactive)
REMARK    1  A    between atoms: N1_1  and  N2_4 
REMARK    2  A    between atoms: N3_6  and  C1_8 
REMARK    3  A    between atoms: C2_9  and  O1_10 
ROOT
HETATM    1  C1  UNL     1      29.325  46.272  -3.566  1.00  0.00     0.156 C 
HETATM    2  C2  UNL     1      28.345  46.008  -2.639  1.00  0.00     0.177 C 
HETATM    3  N4  UNL     1      28.148  46.565  -1.412  1.00  0.00    -0.287 N 
ATOM      4  H4  UNL     1      27.478  46.100  -0.800  1.00  0.00     0.172 HD
HETATM    5  C3  UNL     1      28.752  47.673  -0.923  1.00  0.00     0.329 C 
HETATM    6  O2  UNL     1      28.115  48.313  -0.046  1.00  0.00    -0.247 OA
HETATM    7  N5  UNL     1      29.948  48.207  -1.231  1.00  0.00    -0.272 N 
ATOM      8  H5  UNL     1      30.347  48.858  -0.555  1.00  0.00     0.174 HD
HETATM    9  C4  UNL     1      30.672  47.968  -2.344  1.00  0.00     0.302 C 
HETATM   10  O3  UNL     1      31.708  48.671  -2.463  1.00  0.00    -0.264 OA
HETATM   11  C5  UNL     1      30.439  47.063  -3.373  1.00  0.00     0.271 C 
HETATM   12  O4  UNL     1      31.328  46.921  -4.250  1.00  0.00    -0.280 OA
ENDROOT
BRANCH   1  13
HETATM   13  N3  UNL     1      29.157  45.659  -4.846  1.00  0.00    -0.279 N 
HETATM   14  N2  UNL     1      29.580  44.491  -5.095  1.00  0.00    -0.249 N 
ATOM     15  H2  UNL     1      30.063  43.928  -4.395  1.00  0.00     0.207 HD
ATOM     16  H3  UNL     1      28.681  46.180  -5.582  1.00  0.00     0.189 HD
BRANCH  14  17
HETATM   17  N1  UNL     1      29.343  44.021  -6.393  1.00  0.00    -0.331 N 
ATOM     18  H12 UNL     1      28.395  43.929  -6.757  1.00  0.00     0.178 HD
ATOM     19  H11 UNL     1      30.172  43.782  -6.937  1.00  0.00     0.178 HD
ENDBRANCH  14  17
ENDBRANCH   1  13
BRANCH   2  20
HETATM   20  O1  UNL     1      27.434  45.041  -3.012  1.00  0.00    -0.344 OA
ATOM     21  H1  UNL     1      27.372  44.299  -2.422  1.00  0.00     0.219 HD
ENDBRANCH   2  20
TORSDOF 3
ENDMDL
MODEL 5
REMARK VINA RESULT: -6.697553224      2.470      3.748
REMARK  3 active torsions:
REMARK  status: ('A' for Active; 'I' for Inactive)
REMARK    1  A    between atoms: N1_1  and  N2_4 
REMARK    2  A    between atoms: N3_6  and  C1_8 
REMARK    3  A    between atoms: C2_9  and  O1_10 
ROOT
HETATM    1  C1  UNL     1      29.280  46.208  -2.906  1.00  0.00     0.156 C 
HETATM    2  C2  UNL     1      27.972  46.033  -2.520  1.00  0.00     0.177 C 
HETATM    3  N4  UNL     1      27.249  46.718  -1.591  1.00  0.00    -0.287 N 
ATOM      4  H4  UNL     1      26.355  46.312  -1.316  1.00  0.00     0.172 HD
HETATM    5  C3  UNL     1      27.599  47.883  -0.996  1.00  0.00     0.329 C 
HETATM    6  O2  UNL     1      26.651  48.605  -0.589  1.00  0.00    -0.247 OA
HETATM    7  N5  UNL     1      28.820  48.398  -0.767  1.00  0.00    -0.272 N 
ATOM      8  H5  UNL     1      28.884  49.126  -0.055  1.00  0.00     0.174 HD
HETATM    9  C4  UNL     1      29.968  48.050  -1.383  1.00  0.00     0.302 C 
HETATM   10  O3  UNL     1      30.966  48.752  -1.080  1.00  0.00    -0.264 OA
HETATM   11  C5  UNL     1      30.206  47.033  -2.301  1.00  0.00     0.271 C 
HETATM   12  O4  UNL     1      31.394  46.809  -2.644  1.00  0.00    -0.280 OA
ENDROOT
BRANCH   1  13
HETATM   13  N3  UNL     1      29.702  45.456  -4.044  1.00  0.00    -0.279 N 
HETATM   14  N2  UNL     1      29.466  45.837  -5.230  1.00  0.00    -0.249 N 
ATOM     15  H2  UNL     1      28.961  46.699  -5.432  1.00  0.00     0.207 HD
ATOM     16  H3  UNL     1      30.211  44.584  -3.898  1.00  0.00     0.189 HD
BRANCH  14  17
HETATM   17  N1  UNL     1      29.941  44.998  -6.246  1.00  0.00    -0.331 N 
ATOM     18  H12 UNL     1      30.331  44.079  -6.034  1.00  0.00     0.178 HD
ATOM     19  H11 UNL     1      29.870  45.365  -7.195  1.00  0.00     0.178 HD
ENDBRANCH  14  17
ENDBRANCH   1  13
BRANCH   2  20
HETATM   20  O1  UNL     1      27.303  45.016  -3.169  1.00  0.00    -0.344 OA
ATOM     21  H1  UNL     1      26.453  45.254  -3.520  1.00  0.00     0.219 HD
ENDBRANCH   2  20
TORSDOF 3
ENDMDL
