MODEL 1
REMARK VINA RESULT: -7.723163540      0.000      0.000
REMARK  2 active torsions:
REMARK  status: ('A' for Active; 'I' for Inactive)
REMARK    1  A    between atoms: N1_1  and  C1_4 
REMARK    2  A    between atoms: C5_17  and  N6_18 
ROOT
HETATM    1  C1  UNL     1      27.397  46.201  -1.599  1.00  0.00     0.152 A 
HETATM    2  N2  UNL     1      27.999  45.384  -2.524  1.00  0.00    -0.323 N 
ATOM      3  H2  UNL     1      27.828  44.379  -2.499  1.00  0.00     0.169 HD
HETATM    4  C2  UNL     1      28.797  45.892  -3.444  1.00  0.00     0.154 A 
HETATM    5  N3  UNL     1      29.502  45.312  -4.456  1.00  0.00    -0.281 N 
ATOM      6  H3  UNL     1      29.511  44.312  -4.660  1.00  0.00     0.188 HD
HETATM    7  N4  UNL     1      30.159  46.207  -5.122  1.00  0.00    -0.263 N 
ATOM      8  H4  UNL     1      30.762  46.031  -5.926  1.00  0.00     0.190 HD
HETATM    9  C3  UNL     1      29.913  47.404  -4.576  1.00  0.00     0.290 A 
HETATM   10  O1  UNL     1      30.358  48.526  -4.926  1.00  0.00    -0.264 OA
HETATM   11  C4  UNL     1      29.055  47.242  -3.511  1.00  0.00     0.150 A 
HETATM   12  N5  UNL     1      28.464  48.021  -2.608  1.00  0.00    -0.327 N 
ATOM     13  H5  UNL     1      28.642  49.025  -2.643  1.00  0.00     0.168 HD
HETATM   14  C5  UNL     1      27.628  47.542  -1.634  1.00  0.00     0.218 A 
ENDROOT
BRANCH   1  15
HETATM   15  N1  UNL     1      26.631  45.651  -0.745  1.00  0.00    -0.382 N 
ATOM     16  H12 UNL     1      25.618  45.771  -0.749  1.00  0.00     0.157 HD
ATOM     17  H11 UNL     1      27.066  45.061  -0.037  1.00  0.00     0.157 HD
ENDBRANCH   1  15
BRANCH  14  18
HETATM   18  N6  UNL     1      27.050  48.482  -0.721  1.00  0.00    -0.094 N 
HETATM   19  O2  UNL     1      27.540  48.546   0.451  1.00  0.00    -0.530 OA
HETATM   20  O3  UNL     1      26.029  49.288  -1.015  1.00  0.00    -0.530 OA
ENDBRANCH  14  18
TORSDOF 2
ENDMDL
MODEL 2
REMARK VINA RESULT: -7.149412328      1.534      4.371
REMARK  2 active torsions:
REMARK  status: ('A' for Active; 'I' for Inactive)
REMARK    1  A    between atoms: N1_1  and  C1_4 
REMARK    2  A    between atoms: C5_17  and  N6_18 
ROOT
HETATM    1  C1  UNL     1      29.773  46.676  -3.746  1.00  0.00     0.152 A 
HETATM    2  N2  UNL     1      28.963  45.707  -3.211  1.00  0.00    -0.323 N 
ATOM      3  H2  UNL     1      28.757  44.865  -3.749  1.00  0.00     0.169 HD
HETATM    4  C2  UNL     1      28.448  45.857  -2.005  1.00  0.00     0.154 A 
HETATM    5  N3  UNL     1      27.632  45.060  -1.259  1.00  0.00    -0.281 N 
ATOM      6  H3  UNL     1      27.272  44.154  -1.558  1.00  0.00     0.188 HD
HETATM    7  N4  UNL     1      27.377  45.615  -0.117  1.00  0.00    -0.263 N 
ATOM      8  H4  UNL     1      26.792  45.222   0.621  1.00  0.00     0.190 HD
HETATM    9  C3  UNL     1      28.013  46.792  -0.069  1.00  0.00     0.290 A 
HETATM   10  O1  UNL     1      28.022  47.634   0.864  1.00  0.00    -0.264 OA
HETATM   11  C4  UNL     1      28.701  46.978  -1.247  1.00  0.00     0.150 A 
HETATM   12  N5  UNL     1      29.489  47.909  -1.780  1.00  0.00    -0.327 N 
ATOM     13  H5  UNL     1      29.687  48.746  -1.232  1.00  0.00     0.168 HD
HETATM   14  C5  UNL     1      30.046  47.799  -3.027  1.00  0.00     0.218 A 
ENDROOT
BRANCH   1  15
HETATM   15  N1  UNL     1      30.246  46.466  -4.910  1.00  0.00    -0.382 N 
ATOM     16  H12 UNL     1      30.250  45.546  -5.349  1.00  0.00     0.157 HD
ATOM     17  H11 UNL     1      30.625  47.268  -5.413  1.00  0.00     0.157 HD
ENDBRANCH   1  15
BRANCH  14  18
HETATM   18  N6  UNL     1      30.879  48.868  -3.488  1.00  0.00    -0.094 N 
HETATM   19  O2  UNL     1      30.575  49.419  -4.595  1.00  0.00    -0.530 OA
HETATM   20  O3  UNL     1      31.954  49.320  -2.841  1.00  0.00    -0.530 OA
ENDBRANCH  14  18
TORSDOF 2
ENDMDL
MODEL 3
REMARK VINA RESULT: -7.145322212      2.467      4.748
REMARK  2 active torsions:
REMARK  status: ('A' for Active; 'I' for Inactive)
REMARK    1  A    between atoms: N1_1  and  C1_4 
REMARK    2  A    between atoms: C5_17  and  N6_18 
ROOT
HETATM    1  C1  UNL     1      29.577  48.249  -3.398  1.00  0.00     0.152 A 
HETATM    2  N2  UNL     1      28.243  48.115  -3.106  1.00  0.00    -0.323 N 
ATOM      3  H2  UNL     1      27.561  48.716  -3.568  1.00  0.00     0.169 HD
HETATM    4  C2  UNL     1      27.837  47.215  -2.232  1.00  0.00     0.154 A 
HETATM    5  N3  UNL     1      26.596  46.885  -1.775  1.00  0.00    -0.281 N 
ATOM      6  H3  UNL     1      25.729  47.332  -2.073  1.00  0.00     0.188 HD
HETATM    7  N4  UNL     1      26.671  45.925  -0.908  1.00  0.00    -0.263 N 
ATOM      8  H4  UNL     1      25.884  45.498  -0.420  1.00  0.00     0.190 HD
HETATM    9  C3  UNL     1      27.959  45.589  -0.763  1.00  0.00     0.290 A 
HETATM   10  O1  UNL     1      28.453  44.706  -0.018  1.00  0.00    -0.264 OA
HETATM   11  C4  UNL     1      28.725  46.385  -1.585  1.00  0.00     0.150 A 
HETATM   12  N5  UNL     1      30.016  46.526  -1.878  1.00  0.00    -0.327 N 
ATOM     13  H5  UNL     1      30.688  45.919  -1.410  1.00  0.00     0.168 HD
HETATM   14  C5  UNL     1      30.485  47.446  -2.778  1.00  0.00     0.218 A 
ENDROOT
BRANCH   1  15
HETATM   15  N1  UNL     1      29.903  49.129  -4.257  1.00  0.00    -0.382 N 
ATOM     16  H12 UNL     1      30.835  49.541  -4.306  1.00  0.00     0.157 HD
ATOM     17  H11 UNL     1      29.188  49.418  -4.925  1.00  0.00     0.157 HD
ENDBRANCH   1  15
BRANCH  14  18
HETATM   18  N6  UNL     1      31.898  47.500  -3.010  1.00  0.00    -0.094 N 
HETATM   19  O2  UNL     1      32.313  47.254  -4.187  1.00  0.00    -0.530 OA
HETATM   20  O3  UNL     1      32.805  47.783  -2.074  1.00  0.00    -0.530 OA
ENDBRANCH  14  18
TORSDOF 2
ENDMDL
MODEL 4
REMARK VINA RESULT: -7.035174984      0.965      1.063
REMARK  2 active torsions:
REMARK  status: ('A' for Active; 'I' for Inactive)
REMARK    1  A    between atoms: N1_1  and  C1_4 
REMARK    2  A    between atoms: C5_17  and  N6_18 
ROOT
HETATM    1  C1  UNL     1      28.248  46.117  -2.184  1.00  0.00     0.152 A 
HETATM    2  N2  UNL     1      28.966  45.648  -3.256  1.00  0.00    -0.323 N 
ATOM      3  H2  UNL     1      28.969  44.650  -3.466  1.00  0.00     0.169 HD
HETATM    4  C2  UNL     1      29.651  46.481  -4.016  1.00  0.00     0.154 A 
HETATM    5  N3  UNL     1      30.429  46.276  -5.117  1.00  0.00    -0.281 N 
ATOM      6  H3  UNL     1      30.605  45.367  -5.544  1.00  0.00     0.188 HD
HETATM    7  N4  UNL     1      30.913  47.399  -5.545  1.00  0.00    -0.263 N 
ATOM      8  H4  UNL     1      31.525  47.516  -6.353  1.00  0.00     0.190 HD
HETATM    9  C3  UNL     1      30.475  48.379  -4.745  1.00  0.00     0.290 A 
HETATM   10  O1  UNL     1      30.717  49.610  -4.819  1.00  0.00    -0.264 OA
HETATM   11  C4  UNL     1      29.673  47.834  -3.767  1.00  0.00     0.150 A 
HETATM   12  N5  UNL     1      28.973  48.274  -2.724  1.00  0.00    -0.327 N 
ATOM     13  H5  UNL     1      28.977  49.274  -2.525  1.00  0.00     0.168 HD
HETATM   14  C5  UNL     1      28.246  47.449  -1.906  1.00  0.00     0.218 A 
ENDROOT
BRANCH   1  15
HETATM   15  N1  UNL     1      27.599  45.264  -1.497  1.00  0.00    -0.382 N 
ATOM     16  H12 UNL     1      26.581  45.237  -1.463  1.00  0.00     0.157 HD
ATOM     17  H11 UNL     1      28.140  44.579  -0.969  1.00  0.00     0.157 HD
ENDBRANCH   1  15
BRANCH  14  18
HETATM   18  N6  UNL     1      27.530  48.043  -0.817  1.00  0.00    -0.094 N 
HETATM   19  O2  UNL     1      27.970  47.840   0.360  1.00  0.00    -0.530 OA
HETATM   20  O3  UNL     1      26.432  48.787  -0.953  1.00  0.00    -0.530 OA
ENDBRANCH  14  18
TORSDOF 2
ENDMDL
MODEL 5
REMARK VINA RESULT: -6.981285130      1.991      4.492
REMARK  2 active torsions:
REMARK  status: ('A' for Active; 'I' for Inactive)
REMARK    1  A    between atoms: N1_1  and  C1_4 
REMARK    2  A    between atoms: C5_17  and  N6_18 
ROOT
HETATM    1  C1  UNL     1      30.376  46.724  -3.617  1.00  0.00     0.152 A 
HETATM    2  N2  UNL     1      29.240  45.971  -3.456  1.00  0.00    -0.323 N 
ATOM      3  H2  UNL     1      28.923  45.365  -4.212  1.00  0.00     0.169 HD
HETATM    4  C2  UNL     1      28.556  46.028  -2.330  1.00  0.00     0.154 A 
HETATM    5  N3  UNL     1      27.419  45.394  -1.923  1.00  0.00    -0.281 N 
ATOM      6  H3  UNL     1      26.892  44.728  -2.487  1.00  0.00     0.188 HD
HETATM    7  N4  UNL     1      27.103  45.757  -0.720  1.00  0.00    -0.263 N 
ATOM      8  H4  UNL     1      26.297  45.427  -0.190  1.00  0.00     0.190 HD
HETATM    9  C3  UNL     1      28.016  46.638  -0.293  1.00  0.00     0.290 A 
HETATM   10  O1  UNL     1      28.068  47.227   0.816  1.00  0.00    -0.264 OA
HETATM   11  C4  UNL     1      28.950  46.834  -1.285  1.00  0.00     0.150 A 
HETATM   12  N5  UNL     1      30.054  47.557  -1.457  1.00  0.00    -0.327 N 
ATOM     13  H5  UNL     1      30.361  48.160  -0.693  1.00  0.00     0.168 HD
HETATM   14  C5  UNL     1      30.797  47.533  -2.607  1.00  0.00     0.218 A 
ENDROOT
BRANCH   1  15
HETATM   15  N1  UNL     1      30.997  46.617  -4.724  1.00  0.00    -0.382 N 
ATOM     16  H12 UNL     1      31.778  45.977  -4.863  1.00  0.00     0.157 HD
ATOM     17  H11 UNL     1      30.678  47.199  -5.498  1.00  0.00     0.157 HD
ENDBRANCH   1  15
BRANCH  14  18
HETATM   18  N6  UNL     1      31.967  48.356  -2.669  1.00  0.00    -0.094 N 
HETATM   19  O2  UNL     1      33.100  47.781  -2.593  1.00  0.00    -0.530 OA
HETATM   20  O3  UNL     1      31.949  49.684  -2.793  1.00  0.00    -0.530 OA
ENDBRANCH  14  18
TORSDOF 2
ENDMDL
