MODEL 1
REMARK VINA RESULT: -4.757096822      0.000      0.000
REMARK  2 active torsions:
REMARK  status: ('A' for Active; 'I' for Inactive)
REMARK    1  A    between atoms: C6_8  and  C7_9 
REMARK    2  A    between atoms: N2_10  and  O1_12 
ROOT
HETATM    1  C1  UNL     1      30.443 -46.523  -4.965  1.00  0.00     0.064 C 
HETATM    2  C2  UNL     1      31.361 -46.537  -6.107  1.00  0.00    -0.008 C 
HETATM    3  N1  UNL     1      32.547 -46.053  -6.113  1.00  0.00    -0.391 N 
ATOM      4  H1  UNL     1      32.952 -45.606  -5.290  1.00  0.00     0.159 HD
HETATM    5  C3  UNL     1      33.273 -46.175  -7.345  1.00  0.00     0.081 C 
HETATM    6  C4  UNL     1      33.319 -47.587  -7.878  1.00  0.00     0.026 C 
HETATM    7  C5  UNL     1      31.993 -48.264  -7.636  1.00  0.00     0.023 C 
HETATM    8  C6  UNL     1      30.958 -47.160  -7.426  1.00  0.00     0.032 C 
HETATM    9  C8  UNL     1      31.110 -46.064  -8.458  1.00  0.00     0.023 C 
HETATM   10  C9  UNL     1      32.455 -45.383  -8.368  1.00  0.00     0.026 C 
ENDROOT
BRANCH   8  11
HETATM   11  C7  UNL     1      29.598 -47.683  -7.389  1.00  0.00     0.102 C 
HETATM   12  N2  UNL     1      29.299 -48.774  -7.986  1.00  0.00    -0.283 N 
ATOM     13  H2  UNL     1      30.052 -49.251  -8.481  1.00  0.00     0.192 HD
BRANCH  12  14
HETATM   14  O1  UNL     1      28.079 -49.355  -8.022  1.00  0.00    -0.291 OA
ATOM     15  H1  UNL     1      27.454 -49.304  -8.735  1.00  0.00     0.244 HD
ENDBRANCH  12  14
ENDBRANCH   8  11
TORSDOF 2
ENDMDL
MODEL 2
REMARK VINA RESULT: -4.723135356      2.235      3.458
REMARK  2 active torsions:
REMARK  status: ('A' for Active; 'I' for Inactive)
REMARK    1  A    between atoms: C6_8  and  C7_9 
REMARK    2  A    between atoms: N2_10  and  O1_12 
ROOT
HETATM    1  C1  UNL     1      32.079 -49.659  -7.633  1.00  0.00     0.064 C 
HETATM    2  C2  UNL     1      31.604 -48.948  -6.443  1.00  0.00    -0.008 C 
HETATM    3  N1  UNL     1      32.336 -48.268  -5.642  1.00  0.00    -0.391 N 
ATOM      4  H1  UNL     1      33.342 -48.170  -5.781  1.00  0.00     0.159 HD
HETATM    5  C3  UNL     1      31.660 -47.653  -4.535  1.00  0.00     0.081 C 
HETATM    6  C4  UNL     1      30.475 -46.813  -4.947  1.00  0.00     0.026 C 
HETATM    7  C5  UNL     1      29.747 -47.485  -6.084  1.00  0.00     0.023 C 
HETATM    8  C6  UNL     1      30.141 -48.961  -6.058  1.00  0.00     0.032 C 
HETATM    9  C8  UNL     1      30.094 -49.514  -4.650  1.00  0.00     0.023 C 
HETATM   10  C9  UNL     1      31.071 -48.817  -3.733  1.00  0.00     0.026 C 
ENDROOT
BRANCH   8  11
HETATM   11  C7  UNL     1      29.340 -49.758  -6.979  1.00  0.00     0.102 C 
HETATM   12  N2  UNL     1      28.464 -49.209  -7.731  1.00  0.00    -0.283 N 
ATOM     13  H2  UNL     1      28.357 -48.197  -7.653  1.00  0.00     0.192 HD
BRANCH  12  14
HETATM   14  O1  UNL     1      27.667 -49.841  -8.620  1.00  0.00    -0.291 OA
ATOM     15  H1  UNL     1      27.051 -50.538  -8.425  1.00  0.00     0.244 HD
ENDBRANCH  12  14
ENDBRANCH   8  11
TORSDOF 2
ENDMDL
MODEL 3
REMARK VINA RESULT: -4.710580667      2.345      3.014
REMARK  2 active torsions:
REMARK  status: ('A' for Active; 'I' for Inactive)
REMARK    1  A    between atoms: C6_8  and  C7_9 
REMARK    2  A    between atoms: N2_10  and  O1_12 
ROOT
HETATM    1  C1  UNL     1      29.289 -50.678  -4.240  1.00  0.00     0.064 C 
HETATM    2  C2  UNL     1      30.123 -49.548  -4.658  1.00  0.00    -0.008 C 
HETATM    3  N1  UNL     1      30.903 -48.878  -3.894  1.00  0.00    -0.391 N 
ATOM      4  H1  UNL     1      31.003 -49.093  -2.902  1.00  0.00     0.159 HD
HETATM    5  C3  UNL     1      31.629 -47.806  -4.515  1.00  0.00     0.081 C 
HETATM    6  C4  UNL     1      32.396 -48.233  -5.744  1.00  0.00     0.026 C 
HETATM    7  C5  UNL     1      31.584 -49.236  -6.525  1.00  0.00     0.023 C 
HETATM    8  C6  UNL     1      30.128 -49.069  -6.094  1.00  0.00     0.032 C 
HETATM    9  C8  UNL     1      29.740 -47.608  -6.038  1.00  0.00     0.023 C 
HETATM   10  C9  UNL     1      30.554 -46.841  -5.023  1.00  0.00     0.026 C 
ENDROOT
BRANCH   8  11
HETATM   11  C7  UNL     1      29.217 -49.840  -6.930  1.00  0.00     0.102 C 
HETATM   12  N2  UNL     1      28.439 -49.259  -7.761  1.00  0.00    -0.283 N 
ATOM     13  H2  UNL     1      28.490 -48.241  -7.807  1.00  0.00     0.192 HD
BRANCH  12  14
HETATM   14  O1  UNL     1      27.556 -49.865  -8.585  1.00  0.00    -0.291 OA
ATOM     15  H1  UNL     1      26.839 -49.445  -9.046  1.00  0.00     0.244 HD
ENDBRANCH  12  14
ENDBRANCH   8  11
TORSDOF 2
ENDMDL
MODEL 4
REMARK VINA RESULT: -4.619610113      3.716      4.825
REMARK  2 active torsions:
REMARK  status: ('A' for Active; 'I' for Inactive)
REMARK    1  A    between atoms: C6_8  and  C7_9 
REMARK    2  A    between atoms: N2_10  and  O1_12 
ROOT
HETATM    1  C1  UNL     1      34.567 -45.723 -12.284  1.00  0.00     0.064 C 
HETATM    2  C2  UNL     1      34.165 -46.114 -10.931  1.00  0.00    -0.008 C 
HETATM    3  N1  UNL     1      34.964 -46.395  -9.970  1.00  0.00    -0.391 N 
ATOM      4  H1  UNL     1      35.977 -46.365 -10.085  1.00  0.00     0.159 HD
HETATM    5  C3  UNL     1      34.352 -46.756  -8.723  1.00  0.00     0.081 C 
HETATM    6  C4  UNL     1      33.340 -45.746  -8.237  1.00  0.00     0.026 C 
HETATM    7  C5  UNL     1      32.560 -45.205  -9.409  1.00  0.00     0.023 C 
HETATM    8  C6  UNL     1      32.704 -46.214 -10.548  1.00  0.00     0.032 C 
HETATM    9  C8  UNL     1      32.508 -47.629 -10.052  1.00  0.00     0.023 C 
HETATM   10  C9  UNL     1      33.546 -48.022  -9.027  1.00  0.00     0.026 C 
ENDROOT
BRANCH   8  11
HETATM   11  C7  UNL     1      31.824 -45.906 -11.667  1.00  0.00     0.102 C 
HETATM   12  N2  UNL     1      31.053 -44.886 -11.635  1.00  0.00    -0.283 N 
ATOM     13  H2  UNL     1      31.088 -44.308 -10.795  1.00  0.00     0.192 HD
BRANCH  12  14
HETATM   14  O1  UNL     1      30.198 -44.501 -12.608  1.00  0.00    -0.291 OA
ATOM     15  H1  UNL     1      30.432 -44.083 -13.428  1.00  0.00     0.244 HD
ENDBRANCH  12  14
ENDBRANCH   8  11
TORSDOF 2
ENDMDL
MODEL 5
REMARK VINA RESULT: -4.617082174      3.867      4.865
REMARK  2 active torsions:
REMARK  status: ('A' for Active; 'I' for Inactive)
REMARK    1  A    between atoms: C6_8  and  C7_9 
REMARK    2  A    between atoms: N2_10  and  O1_12 
ROOT
HETATM    1  C1  UNL     1      30.748 -45.070 -11.553  1.00  0.00     0.064 C 
HETATM    2  C2  UNL     1      31.313 -45.686 -10.349  1.00  0.00    -0.008 C 
HETATM    3  N1  UNL     1      30.732 -45.761  -9.210  1.00  0.00    -0.391 N 
ATOM      4  H1  UNL     1      29.797 -45.382  -9.055  1.00  0.00     0.159 HD
HETATM    5  C3  UNL     1      31.472 -46.408  -8.164  1.00  0.00     0.081 C 
HETATM    6  C4  UNL     1      31.978 -47.778  -8.546  1.00  0.00     0.026 C 
HETATM    7  C5  UNL     1      32.427 -47.770  -9.986  1.00  0.00     0.023 C 
HETATM    8  C6  UNL     1      32.690 -46.314 -10.365  1.00  0.00     0.032 C 
HETATM    9  C8  UNL     1      33.476 -45.602  -9.287  1.00  0.00     0.023 C 
HETATM   10  C9  UNL     1      32.726 -45.551  -7.976  1.00  0.00     0.026 C 
ENDROOT
BRANCH   8  11
HETATM   11  C7  UNL     1      33.329 -46.195 -11.669  1.00  0.00     0.102 C 
HETATM   12  N2  UNL     1      34.167 -45.258 -11.906  1.00  0.00    -0.283 N 
ATOM     13  H2  UNL     1      34.360 -44.608 -11.144  1.00  0.00     0.192 HD
BRANCH  12  14
HETATM   14  O1  UNL     1      34.820 -45.047 -13.070  1.00  0.00    -0.291 OA
ATOM     15  H1  UNL     1      35.475 -44.378 -13.233  1.00  0.00     0.244 HD
ENDBRANCH  12  14
ENDBRANCH   8  11
TORSDOF 2
ENDMDL
