MODEL 1
REMARK VINA RESULT: -8.777029726      0.000      0.000
REMARK  7 active torsions:
REMARK  status: ('A' for Active; 'I' for Inactive)
REMARK    1  A    between atoms: C2_2  and  C8_13 
REMARK    2  A    between atoms: C3_3  and  C4_4 
REMARK    3  A    between atoms: C4_4  and  C5_6 
REMARK    4  A    between atoms: C5_6  and  O2_7 
REMARK    5  A    between atoms: C5_6  and  C6_9 
REMARK    6  A    between atoms: C6_9  and  O3_11 
REMARK    7  A    between atoms: C9_14  and  O4_15 
ROOT
HETATM    1  C8  UNL     1      29.962  47.238  -5.269  1.00  0.00     0.089 C 
HETATM    2  C9  UNL     1      29.781  45.876  -5.526  1.00  0.00     0.159 C 
HETATM    3  N1  UNL     1      30.431  45.076  -6.417  1.00  0.00    -0.301 N 
ATOM      4  H1  UNL     1      30.570  44.105  -6.137  1.00  0.00     0.171 HD
HETATM    5  C10 UNL     1      30.907  45.426  -7.618  1.00  0.00     0.285 C 
HETATM    6  O5  UNL     1      31.499  44.556  -8.314  1.00  0.00    -0.265 OA
HETATM    7  C11 UNL     1      30.825  46.681  -8.216  1.00  0.00     0.172 C 
HETATM    8  S1  UNL     1      31.028  46.669  -9.832  1.00  0.00    -0.054 SA
HETATM    9  N2  UNL     1      30.601  47.871  -7.603  1.00  0.00    -0.309 N 
ATOM     10  H2  UNL     1      30.508  48.689  -8.204  1.00  0.00     0.170 HD
HETATM   11  C12 UNL     1      30.487  48.078  -6.257  1.00  0.00     0.261 C 
HETATM   12  O6  UNL     1      30.928  49.181  -5.890  1.00  0.00    -0.267 OA
ENDROOT
BRANCH   1  13
HETATM   13  C2  UNL     1      29.697  47.747  -3.951  1.00  0.00    -0.038 C 
HETATM   14  C1  UNL     1      28.461  48.550  -3.706  1.00  0.00     0.049 C 
HETATM   15  C3  UNL     1      30.460  47.468  -2.913  1.00  0.00     0.060 C 
BRANCH  15  16
HETATM   16  C4  UNL     1      30.226  47.861  -1.546  1.00  0.00     0.180 C 
HETATM   17  O1  UNL     1      30.491  48.995  -1.055  1.00  0.00    -0.290 OA
BRANCH  16  18
HETATM   18  C5  UNL     1      29.617  46.851  -0.622  1.00  0.00     0.220 C 
BRANCH  18  19
HETATM   19  O2  UNL     1      29.113  47.512   0.469  1.00  0.00    -0.385 OA
ATOM     20  H2  UNL     1      29.608  47.245   1.235  1.00  0.00     0.210 HD
ENDBRANCH  18  19
BRANCH  18  21
HETATM   21  C6  UNL     1      28.547  46.044  -1.322  1.00  0.00     0.150 C 
HETATM   22  C7  UNL     1      27.209  46.582  -0.823  1.00  0.00     0.042 C 
BRANCH  21  23
HETATM   23  O3  UNL     1      28.608  44.715  -0.913  1.00  0.00    -0.393 OA
ATOM     24  H3  UNL     1      28.706  44.147  -1.669  1.00  0.00     0.210 HD
ENDBRANCH  21  23
ENDBRANCH  18  21
ENDBRANCH  16  18
ENDBRANCH  15  16
ENDBRANCH   1  13
BRANCH   2  25
HETATM   25  O4  UNL     1      28.803  45.261  -4.772  1.00  0.00    -0.345 OA
ATOM     26  H4  UNL     1      28.864  44.314  -4.725  1.00  0.00     0.219 HD
ENDBRANCH   2  25
TORSDOF 7
ENDMDL
MODEL 2
REMARK VINA RESULT: -8.179913104      1.581      2.220
REMARK  7 active torsions:
REMARK  status: ('A' for Active; 'I' for Inactive)
REMARK    1  A    between atoms: C2_2  and  C8_13 
REMARK    2  A    between atoms: C3_3  and  C4_4 
REMARK    3  A    between atoms: C4_4  and  C5_6 
REMARK    4  A    between atoms: C5_6  and  O2_7 
REMARK    5  A    between atoms: C5_6  and  C6_9 
REMARK    6  A    between atoms: C6_9  and  O3_11 
REMARK    7  A    between atoms: C9_14  and  O4_15 
ROOT
HETATM    1  C8  UNL     1      30.134  46.630  -6.415  1.00  0.00     0.089 C 
HETATM    2  C9  UNL     1      30.276  45.254  -6.621  1.00  0.00     0.159 C 
HETATM    3  N1  UNL     1      31.157  44.592  -7.421  1.00  0.00    -0.301 N 
ATOM      4  H1  UNL     1      31.480  43.684  -7.086  1.00  0.00     0.171 HD
HETATM    5  C10 UNL     1      31.645  45.003  -8.598  1.00  0.00     0.285 C 
HETATM    6  O5  UNL     1      32.469  44.265  -9.205  1.00  0.00    -0.265 OA
HETATM    7  C11 UNL     1      31.343  46.191  -9.259  1.00  0.00     0.172 C 
HETATM    8  S1  UNL     1      31.680  46.176 -10.853  1.00  0.00    -0.054 SA
HETATM    9  N2  UNL     1      30.814  47.319  -8.721  1.00  0.00    -0.309 N 
ATOM     10  H2  UNL     1      30.597  48.079  -9.366  1.00  0.00     0.170 HD
HETATM   11  C12 UNL     1      30.546  47.535  -7.400  1.00  0.00     0.261 C 
HETATM   12  O6  UNL     1      30.703  48.719  -7.053  1.00  0.00    -0.267 OA
ENDROOT
BRANCH   1  13
HETATM   13  C2  UNL     1      29.655  47.107  -5.147  1.00  0.00    -0.038 C 
HETATM   14  C1  UNL     1      30.635  47.478  -4.081  1.00  0.00     0.049 C 
HETATM   15  C3  UNL     1      28.377  47.314  -4.900  1.00  0.00     0.060 C 
BRANCH  15  16
HETATM   16  C4  UNL     1      27.815  47.868  -3.694  1.00  0.00     0.180 C 
HETATM   17  O1  UNL     1      27.588  49.095  -3.490  1.00  0.00    -0.290 OA
BRANCH  16  18
HETATM   18  C5  UNL     1      27.469  46.923  -2.584  1.00  0.00     0.220 C 
BRANCH  18  19
HETATM   19  O2  UNL     1      27.821  45.656  -2.972  1.00  0.00    -0.385 OA
ATOM     20  H2  UNL     1      27.062  45.092  -2.876  1.00  0.00     0.210 HD
ENDBRANCH  18  19
BRANCH  18  21
HETATM   21  C6  UNL     1      28.155  47.317  -1.296  1.00  0.00     0.150 C 
HETATM   22  C7  UNL     1      27.853  46.209  -0.292  1.00  0.00     0.042 C 
BRANCH  21  23
HETATM   23  O3  UNL     1      27.577  48.475  -0.783  1.00  0.00    -0.393 OA
ATOM     24  H3  UNL     1      28.199  48.931  -0.228  1.00  0.00     0.210 HD
ENDBRANCH  21  23
ENDBRANCH  18  21
ENDBRANCH  16  18
ENDBRANCH  15  16
ENDBRANCH   1  13
BRANCH   2  25
HETATM   25  O4  UNL     1      29.395  44.462  -5.915  1.00  0.00    -0.345 OA
ATOM     26  H4  UNL     1      29.310  43.570  -6.232  1.00  0.00     0.219 HD
ENDBRANCH   2  25
TORSDOF 7
ENDMDL
MODEL 3
REMARK VINA RESULT: -8.176746264      1.793      2.544
REMARK  7 active torsions:
REMARK  status: ('A' for Active; 'I' for Inactive)
REMARK    1  A    between atoms: C2_2  and  C8_13 
REMARK    2  A    between atoms: C3_3  and  C4_4 
REMARK    3  A    between atoms: C4_4  and  C5_6 
REMARK    4  A    between atoms: C5_6  and  O2_7 
REMARK    5  A    between atoms: C5_6  and  C6_9 
REMARK    6  A    between atoms: C6_9  and  O3_11 
REMARK    7  A    between atoms: C9_14  and  O4_15 
ROOT
HETATM    1  C8  UNL     1      30.342  46.420  -6.153  1.00  0.00     0.089 C 
HETATM    2  C9  UNL     1      30.621  45.128  -6.610  1.00  0.00     0.159 C 
HETATM    3  N1  UNL     1      31.446  44.734  -7.620  1.00  0.00    -0.301 N 
ATOM      4  H1  UNL     1      31.927  43.844  -7.492  1.00  0.00     0.171 HD
HETATM    5  C10 UNL     1      31.694  45.387  -8.762  1.00  0.00     0.285 C 
HETATM    6  O5  UNL     1      32.500  44.882  -9.589  1.00  0.00    -0.265 OA
HETATM    7  C11 UNL     1      31.148  46.604  -9.163  1.00  0.00     0.172 C 
HETATM    8  S1  UNL     1      31.236  46.884 -10.766  1.00  0.00    -0.054 SA
HETATM    9  N2  UNL     1      30.570  47.546  -8.375  1.00  0.00    -0.309 N 
ATOM     10  H2  UNL     1      30.163  48.354  -8.845  1.00  0.00     0.170 HD
HETATM   11  C12 UNL     1      30.482  47.516  -7.012  1.00  0.00     0.261 C 
HETATM   12  O6  UNL     1      30.541  48.642  -6.490  1.00  0.00    -0.267 OA
ENDROOT
BRANCH   1  13
HETATM   13  C2  UNL     1      30.006  46.620  -4.771  1.00  0.00    -0.038 C 
HETATM   14  C1  UNL     1      31.093  46.886  -3.780  1.00  0.00     0.049 C 
HETATM   15  C3  UNL     1      28.761  46.664  -4.339  1.00  0.00     0.060 C 
BRANCH  15  16
HETATM   16  C4  UNL     1      28.331  46.945  -2.992  1.00  0.00     0.180 C 
HETATM   17  O1  UNL     1      28.041  46.076  -2.121  1.00  0.00    -0.290 OA
BRANCH  16  18
HETATM   18  C5  UNL     1      28.214  48.381  -2.580  1.00  0.00     0.220 C 
BRANCH  18  19
HETATM   19  O2  UNL     1      28.338  49.162  -3.700  1.00  0.00    -0.385 OA
ATOM     20  H2  UNL     1      29.107  49.711  -3.597  1.00  0.00     0.210 HD
ENDBRANCH  18  19
BRANCH  18  21
HETATM   21  C6  UNL     1      26.906  48.640  -1.868  1.00  0.00     0.150 C 
HETATM   22  C7  UNL     1      26.060  49.485  -2.817  1.00  0.00     0.042 C 
BRANCH  21  23
HETATM   23  O3  UNL     1      27.125  49.426  -0.739  1.00  0.00    -0.393 OA
ATOM     24  H3  UNL     1      26.313  49.542  -0.261  1.00  0.00     0.210 HD
ENDBRANCH  21  23
ENDBRANCH  18  21
ENDBRANCH  16  18
ENDBRANCH  15  16
ENDBRANCH   1  13
BRANCH   2  25
HETATM   25  O4  UNL     1      29.965  44.115  -5.942  1.00  0.00    -0.345 OA
ATOM     26  H4  UNL     1      29.656  43.403  -6.491  1.00  0.00     0.219 HD
ENDBRANCH   2  25
TORSDOF 7
ENDMDL
MODEL 4
REMARK VINA RESULT: -8.036136403      1.294      1.311
REMARK  7 active torsions:
REMARK  status: ('A' for Active; 'I' for Inactive)
REMARK    1  A    between atoms: C2_2  and  C8_13 
REMARK    2  A    between atoms: C3_3  and  C4_4 
REMARK    3  A    between atoms: C4_4  and  C5_6 
REMARK    4  A    between atoms: C5_6  and  O2_7 
REMARK    5  A    between atoms: C5_6  and  C6_9 
REMARK    6  A    between atoms: C6_9  and  O3_11 
REMARK    7  A    between atoms: C9_14  and  O4_15 
ROOT
HETATM    1  C8  UNL     1      30.586  47.098  -5.195  1.00  0.00     0.089 C 
HETATM    2  C9  UNL     1      29.552  46.222  -5.541  1.00  0.00     0.159 C 
HETATM    3  N1  UNL     1      29.614  45.051  -6.234  1.00  0.00    -0.301 N 
ATOM      4  H1  UNL     1      28.951  44.326  -5.961  1.00  0.00     0.171 HD
HETATM    5  C10 UNL     1      30.450  44.749  -7.235  1.00  0.00     0.285 C 
HETATM    6  O5  UNL     1      30.380  43.604  -7.761  1.00  0.00    -0.265 OA
HETATM    7  C11 UNL     1      31.426  45.575  -7.788  1.00  0.00     0.172 C 
HETATM    8  S1  UNL     1      31.916  45.132  -9.276  1.00  0.00    -0.054 SA
HETATM    9  N2  UNL     1      31.987  46.675  -7.224  1.00  0.00    -0.309 N 
ATOM     10  H2  UNL     1      32.645  47.202  -7.798  1.00  0.00     0.170 HD
HETATM   11  C12 UNL     1      31.756  47.143  -5.961  1.00  0.00     0.261 C 
HETATM   12  O6  UNL     1      32.753  47.677  -5.445  1.00  0.00    -0.267 OA
ENDROOT
BRANCH   1  13
HETATM   13  C2  UNL     1      30.477  47.876  -3.993  1.00  0.00    -0.038 C 
HETATM   14  C1  UNL     1      30.149  49.332  -4.085  1.00  0.00     0.049 C 
HETATM   15  C3  UNL     1      30.572  47.346  -2.790  1.00  0.00     0.060 C 
BRANCH  15  16
HETATM   16  C4  UNL     1      30.391  48.032  -1.534  1.00  0.00     0.180 C 
HETATM   17  O1  UNL     1      31.204  48.854  -1.026  1.00  0.00    -0.290 OA
BRANCH  16  18
HETATM   18  C5  UNL     1      29.138  47.753  -0.759  1.00  0.00     0.220 C 
BRANCH  18  19
HETATM   19  O2  UNL     1      28.379  48.895  -0.743  1.00  0.00    -0.385 OA
ATOM     20  H2  UNL     1      27.465  48.647  -0.819  1.00  0.00     0.210 HD
ENDBRANCH  18  19
BRANCH  18  21
HETATM   21  C6  UNL     1      28.376  46.591  -1.353  1.00  0.00     0.150 C 
HETATM   22  C7  UNL     1      26.964  47.100  -1.630  1.00  0.00     0.042 C 
BRANCH  21  23
HETATM   23  O3  UNL     1      28.245  45.576  -0.409  1.00  0.00    -0.393 OA
ATOM     24  H3  UNL     1      27.617  44.930  -0.712  1.00  0.00     0.210 HD
ENDBRANCH  21  23
ENDBRANCH  18  21
ENDBRANCH  16  18
ENDBRANCH  15  16
ENDBRANCH   1  13
BRANCH   2  25
HETATM   25  O4  UNL     1      28.295  46.604  -5.122  1.00  0.00    -0.345 OA
ATOM     26  H4  UNL     1      27.584  46.048  -5.417  1.00  0.00     0.219 HD
ENDBRANCH   2  25
TORSDOF 7
ENDMDL
MODEL 5
REMARK VINA RESULT: -7.939883576      2.756      3.592
REMARK  7 active torsions:
REMARK  status: ('A' for Active; 'I' for Inactive)
REMARK    1  A    between atoms: C2_2  and  C8_13 
REMARK    2  A    between atoms: C3_3  and  C4_4 
REMARK    3  A    between atoms: C4_4  and  C5_6 
REMARK    4  A    between atoms: C5_6  and  O2_7 
REMARK    5  A    between atoms: C5_6  and  C6_9 
REMARK    6  A    between atoms: C6_9  and  O3_11 
REMARK    7  A    between atoms: C9_14  and  O4_15 
ROOT
HETATM    1  C8  UNL     1      30.748  47.795  -4.693  1.00  0.00     0.089 C 
HETATM    2  C9  UNL     1      31.667  47.625  -3.653  1.00  0.00     0.159 C 
HETATM    3  N1  UNL     1      32.928  48.126  -3.531  1.00  0.00    -0.301 N 
ATOM      4  H1  UNL     1      33.236  48.358  -2.587  1.00  0.00     0.171 HD
HETATM    5  C10 UNL     1      33.808  48.348  -4.516  1.00  0.00     0.285 C 
HETATM    6  O5  UNL     1      34.936  48.832  -4.226  1.00  0.00    -0.265 OA
HETATM    7  C11 UNL     1      33.622  48.100  -5.874  1.00  0.00     0.172 C 
HETATM    8  S1  UNL     1      35.002  47.989  -6.731  1.00  0.00    -0.054 SA
HETATM    9  N2  UNL     1      32.442  47.946  -6.528  1.00  0.00    -0.309 N 
ATOM     10  H2  UNL     1      32.492  47.705  -7.517  1.00  0.00     0.170 HD
HETATM   11  C12 UNL     1      31.195  48.085  -5.987  1.00  0.00     0.261 C 
HETATM   12  O6  UNL     1      30.360  48.540  -6.788  1.00  0.00    -0.267 OA
ENDROOT
BRANCH   1  13
HETATM   13  C2  UNL     1      29.342  47.766  -4.401  1.00  0.00    -0.038 C 
HETATM   14  C1  UNL     1      28.510  46.626  -4.894  1.00  0.00     0.049 C 
HETATM   15  C3  UNL     1      28.754  48.667  -3.639  1.00  0.00     0.060 C 
BRANCH  15  16
HETATM   16  C4  UNL     1      27.373  48.670  -3.225  1.00  0.00     0.180 C 
HETATM   17  O1  UNL     1      26.404  49.097  -3.914  1.00  0.00    -0.290 OA
BRANCH  16  18
HETATM   18  C5  UNL     1      27.049  48.123  -1.867  1.00  0.00     0.220 C 
BRANCH  18  19
HETATM   19  O2  UNL     1      26.824  46.776  -1.988  1.00  0.00    -0.385 OA
ATOM     20  H2  UNL     1      26.773  46.563  -2.912  1.00  0.00     0.210 HD
ENDBRANCH  18  19
BRANCH  18  21
HETATM   21  C6  UNL     1      28.158  48.413  -0.883  1.00  0.00     0.150 C 
HETATM   22  C7  UNL     1      28.335  47.146  -0.050  1.00  0.00     0.042 C 
BRANCH  21  23
HETATM   23  O3  UNL     1      27.759  49.409   0.005  1.00  0.00    -0.393 OA
ATOM     24  H3  UNL     1      28.405  49.506   0.695  1.00  0.00     0.210 HD
ENDBRANCH  21  23
ENDBRANCH  18  21
ENDBRANCH  16  18
ENDBRANCH  15  16
ENDBRANCH   1  13
BRANCH   2  25
HETATM   25  O4  UNL     1      31.232  46.837  -2.608  1.00  0.00    -0.345 OA
ATOM     26  H4  UNL     1      31.393  47.191  -1.741  1.00  0.00     0.219 HD
ENDBRANCH   2  25
TORSDOF 7
ENDMDL
