MODEL 1
REMARK VINA RESULT: -5.102659759      0.000      0.000
REMARK  3 active torsions:
REMARK  status: ('A' for Active; 'I' for Inactive)
REMARK    1  A    between atoms: C2_3  and  N3_7 
REMARK    2  A    between atoms: N3_7  and  S1_9 
REMARK    3  A    between atoms: S1_9  and  N4_10 
ROOT
HETATM    1  N1  UNL     1      41.135  32.202  28.858  1.00  0.00    -0.188 NA
HETATM    2  C1  UNL     1      41.703  32.424  29.841  1.00  0.00     0.137 C 
HETATM    3  C2  UNL     1      42.402  32.687  31.069  1.00  0.00     0.192 C 
HETATM    4  N2  UNL     1      42.555  33.921  31.396  1.00  0.00    -0.376 N 
ATOM      5  H21 UNL     1      43.051  34.107  32.268  1.00  0.00     0.158 HD
ATOM      6  H22 UNL     1      42.188  34.658  30.795  1.00  0.00     0.158 HD
ENDROOT
BRANCH   3   7
HETATM    7  N3  UNL     1      42.907  31.675  31.895  1.00  0.00    -0.244 N 
ATOM      8  H3  UNL     1      43.075  30.750  31.499  1.00  0.00     0.182 HD
BRANCH   7   9
HETATM    9  S1  UNL     1      43.256  31.950  33.578  1.00  0.00     0.318 S 
HETATM   10  O1  UNL     1      43.688  30.707  34.268  1.00  0.00    -0.183 OA
HETATM   11  O2  UNL     1      44.363  32.967  33.721  1.00  0.00    -0.183 OA
BRANCH   9  12
HETATM   12  N4  UNL     1      41.847  32.646  34.298  1.00  0.00    -0.311 N 
ATOM     13  H42 UNL     1      41.324  33.441  33.928  1.00  0.00     0.170 HD
ATOM     14  H41 UNL     1      41.642  32.121  35.149  1.00  0.00     0.170 HD
ENDBRANCH   9  12
ENDBRANCH   7   9
ENDBRANCH   3   7
TORSDOF 3
ENDMDL
MODEL 2
REMARK VINA RESULT: -4.951006047      1.244      1.487
REMARK  3 active torsions:
REMARK  status: ('A' for Active; 'I' for Inactive)
REMARK    1  A    between atoms: C2_3  and  N3_7 
REMARK    2  A    between atoms: N3_7  and  S1_9 
REMARK    3  A    between atoms: S1_9  and  N4_10 
ROOT
HETATM    1  N1  UNL     1      41.263  32.181  28.792  1.00  0.00    -0.188 NA
HETATM    2  C1  UNL     1      41.746  32.417  29.817  1.00  0.00     0.137 C 
HETATM    3  C2  UNL     1      42.340  32.696  31.095  1.00  0.00     0.192 C 
HETATM    4  N2  UNL     1      42.294  33.914  31.503  1.00  0.00    -0.376 N 
ATOM      5  H21 UNL     1      42.716  34.112  32.410  1.00  0.00     0.158 HD
ATOM      6  H22 UNL     1      41.850  34.629  30.926  1.00  0.00     0.158 HD
ENDROOT
BRANCH   3   7
HETATM    7  N3  UNL     1      42.951  31.715  31.887  1.00  0.00    -0.244 N 
ATOM      8  H3  UNL     1      43.292  30.862  31.443  1.00  0.00     0.182 HD
BRANCH   7   9
HETATM    9  S1  UNL     1      43.145  31.910  33.605  1.00  0.00     0.318 S 
HETATM   10  O1  UNL     1      41.896  32.379  34.258  1.00  0.00    -0.183 OA
HETATM   11  O2  UNL     1      43.532  30.594  34.239  1.00  0.00    -0.183 OA
BRANCH   9  12
HETATM   12  N4  UNL     1      44.469  32.992  33.864  1.00  0.00    -0.311 N 
ATOM     13  H42 UNL     1      44.848  33.254  34.774  1.00  0.00     0.170 HD
ATOM     14  H41 UNL     1      44.790  33.313  32.950  1.00  0.00     0.170 HD
ENDBRANCH   9  12
ENDBRANCH   7   9
ENDBRANCH   3   7
TORSDOF 3
ENDMDL
MODEL 3
REMARK VINA RESULT: -4.900395397      1.364      1.738
REMARK  3 active torsions:
REMARK  status: ('A' for Active; 'I' for Inactive)
REMARK    1  A    between atoms: C2_3  and  N3_7 
REMARK    2  A    between atoms: N3_7  and  S1_9 
REMARK    3  A    between atoms: S1_9  and  N4_10 
ROOT
HETATM    1  N1  UNL     1      41.824  32.270  29.716  1.00  0.00    -0.188 NA
HETATM    2  C1  UNL     1      42.094  32.682  30.763  1.00  0.00     0.137 C 
HETATM    3  C2  UNL     1      42.418  33.186  32.070  1.00  0.00     0.192 C 
HETATM    4  N2  UNL     1      42.794  34.412  32.142  1.00  0.00    -0.376 N 
ATOM      5  H21 UNL     1      43.024  34.770  33.069  1.00  0.00     0.158 HD
ATOM      6  H22 UNL     1      42.851  34.980  31.296  1.00  0.00     0.158 HD
ENDROOT
BRANCH   3   7
HETATM    7  N3  UNL     1      42.340  32.407  33.232  1.00  0.00    -0.244 N 
ATOM      8  H3  UNL     1      41.639  32.636  33.936  1.00  0.00     0.182 HD
BRANCH   7   9
HETATM    9  S1  UNL     1      43.405  31.060  33.508  1.00  0.00     0.318 S 
HETATM   10  O1  UNL     1      44.571  31.072  32.586  1.00  0.00    -0.183 OA
HETATM   11  O2  UNL     1      43.935  31.094  34.922  1.00  0.00    -0.183 OA
BRANCH   9  12
HETATM   12  N4  UNL     1      42.469  29.613  33.365  1.00  0.00    -0.311 N 
ATOM     13  H42 UNL     1      41.818  29.259  34.067  1.00  0.00     0.170 HD
ATOM     14  H41 UNL     1      42.689  29.190  32.463  1.00  0.00     0.170 HD
ENDBRANCH   9  12
ENDBRANCH   7   9
ENDBRANCH   3   7
TORSDOF 3
ENDMDL
MODEL 4
REMARK VINA RESULT: -4.817889022      1.242      1.472
REMARK  3 active torsions:
REMARK  status: ('A' for Active; 'I' for Inactive)
REMARK    1  A    between atoms: C2_3  and  N3_7 
REMARK    2  A    between atoms: N3_7  and  S1_9 
REMARK    3  A    between atoms: S1_9  and  N4_10 
ROOT
HETATM    1  N1  UNL     1      40.887  32.315  28.704  1.00  0.00    -0.188 NA
HETATM    2  C1  UNL     1      41.515  32.489  29.659  1.00  0.00     0.137 C 
HETATM    3  C2  UNL     1      42.291  32.693  30.851  1.00  0.00     0.192 C 
HETATM    4  N2  UNL     1      42.378  33.899  31.288  1.00  0.00    -0.376 N 
ATOM      5  H21 UNL     1      42.928  34.044  32.134  1.00  0.00     0.158 HD
ATOM      6  H22 UNL     1      41.908  34.657  30.792  1.00  0.00     0.158 HD
ENDROOT
BRANCH   3   7
HETATM    7  N3  UNL     1      42.937  31.653  31.532  1.00  0.00    -0.244 N 
ATOM      8  H3  UNL     1      43.258  30.840  31.006  1.00  0.00     0.182 HD
BRANCH   7   9
HETATM    9  S1  UNL     1      43.209  31.708  33.250  1.00  0.00     0.318 S 
HETATM   10  O1  UNL     1      44.425  32.489  33.598  1.00  0.00    -0.183 OA
HETATM   11  O2  UNL     1      42.032  32.353  33.944  1.00  0.00    -0.183 OA
BRANCH   9  12
HETATM   12  N4  UNL     1      43.288  30.078  33.821  1.00  0.00    -0.311 N 
ATOM     13  H42 UNL     1      43.839  29.757  34.618  1.00  0.00     0.170 HD
ATOM     14  H41 UNL     1      42.691  29.510  33.220  1.00  0.00     0.170 HD
ENDBRANCH   9  12
ENDBRANCH   7   9
ENDBRANCH   3   7
TORSDOF 3
ENDMDL
MODEL 5
REMARK VINA RESULT: -4.801882846      2.403      3.542
REMARK  3 active torsions:
REMARK  status: ('A' for Active; 'I' for Inactive)
REMARK    1  A    between atoms: C2_3  and  N3_7 
REMARK    2  A    between atoms: N3_7  and  S1_9 
REMARK    3  A    between atoms: S1_9  and  N4_10 
ROOT
HETATM    1  N1  UNL     1      44.038  34.905  35.042  1.00  0.00    -0.188 NA
HETATM    2  C1  UNL     1      43.311  34.371  34.317  1.00  0.00     0.137 C 
HETATM    3  C2  UNL     1      42.417  33.696  33.417  1.00  0.00     0.192 C 
HETATM    4  N2  UNL     1      41.902  34.400  32.473  1.00  0.00    -0.376 N 
ATOM      5  H21 UNL     1      41.268  33.921  31.835  1.00  0.00     0.158 HD
ATOM      6  H22 UNL     1      42.136  35.390  32.389  1.00  0.00     0.158 HD
ENDROOT
BRANCH   3   7
HETATM    7  N3  UNL     1      42.096  32.337  33.533  1.00  0.00    -0.244 N 
ATOM      8  H3  UNL     1      41.117  32.065  33.620  1.00  0.00     0.182 HD
BRANCH   7   9
HETATM    9  S1  UNL     1      43.320  31.100  33.530  1.00  0.00     0.318 S 
HETATM   10  O1  UNL     1      44.321  31.308  32.452  1.00  0.00    -0.183 OA
HETATM   11  O2  UNL     1      44.056  31.092  34.849  1.00  0.00    -0.183 OA
BRANCH   9  12
HETATM   12  N4  UNL     1      42.521  29.572  33.400  1.00  0.00    -0.311 N 
ATOM     13  H42 UNL     1      42.485  28.994  32.559  1.00  0.00     0.170 HD
ATOM     14  H41 UNL     1      42.101  29.364  34.305  1.00  0.00     0.170 HD
ENDBRANCH   9  12
ENDBRANCH   7   9
ENDBRANCH   3   7
TORSDOF 3
ENDMDL
