MODEL 1
REMARK VINA RESULT: -7.246337625      0.000      0.000
REMARK  5 active torsions:
REMARK  status: ('A' for Active; 'I' for Inactive)
REMARK    1  A    between atoms: C1_4  and  N2_5 
REMARK    2  A    between atoms: C1_4  and  C5_17 
REMARK    3  A    between atoms: N2_5  and  N3_7 
REMARK       I    between atoms: N3_7  and  C2_8 
REMARK    4  A    between atoms: C2_8  and  C3_10 
REMARK    5  A    between atoms: N4_11  and  N5_13 
REMARK       I    between atoms: N5_13  and  C4_14 
ROOT
HETATM    1  N3  UNL     1      29.632  46.829  -1.927  1.00  0.00    -0.279 NA
HETATM    2  C2  UNL     1      29.056  46.520  -0.619  1.00  0.00     0.353 C 
HETATM    3  O1  UNL     1      29.537  46.807   0.448  1.00  0.00    -0.248 OA
ENDROOT
BRANCH   1   4
HETATM    4  N2  UNL     1      30.225  47.156  -2.969  1.00  0.00    -0.211 N 
ATOM      5  H2  UNL     1      30.423  46.362  -3.578  1.00  0.00     0.204 HD
BRANCH   4   6
HETATM    6  C1  UNL     1      30.700  48.414  -3.513  1.00  0.00     0.190 C 
HETATM    7  N1  UNL     1      29.960  49.116  -4.330  1.00  0.00    -0.380 N 
ATOM      8  H12 UNL     1      29.025  48.769  -4.543  1.00  0.00     0.158 HD
ATOM      9  H11 UNL     1      30.294  50.001  -4.712  1.00  0.00     0.158 HD
BRANCH   6  10
HETATM   10  C5  UNL     1      32.032  48.909  -3.208  1.00  0.00     0.300 C 
HETATM   11  N8  UNL     1      32.361  50.308  -3.389  1.00  0.00    -0.054 NA
HETATM   12  O2  UNL     1      32.933  48.165  -2.783  1.00  0.00    -0.268 OA
ENDBRANCH   6  10
ENDBRANCH   4   6
ENDBRANCH   1   4
BRANCH   2  13
HETATM   13  C3  UNL     1      27.768  45.799  -0.635  1.00  0.00     0.212 C 
HETATM   14  N4  UNL     1      26.726  46.358  -1.100  1.00  0.00    -0.238 N 
ATOM     15  H4  UNL     1      25.893  45.771  -1.057  1.00  0.00     0.201 HD
BRANCH  14  16
HETATM   16  N5  UNL     1      26.517  47.511  -1.610  1.00  0.00    -0.295 NA
HETATM   17  C4  UNL     1      26.459  48.490  -2.309  1.00  0.00     0.298 C 
HETATM   18  N6  UNL     1      25.786  49.673  -1.801  1.00  0.00    -0.051 NA
HETATM   19  N7  UNL     1      27.080  48.636  -3.605  1.00  0.00    -0.051 NA
ENDBRANCH  14  16
ENDBRANCH   2  13
TORSDOF 5
ENDMDL
MODEL 2
REMARK VINA RESULT: -7.124588982      1.632      2.200
REMARK  5 active torsions:
REMARK  status: ('A' for Active; 'I' for Inactive)
REMARK    1  A    between atoms: C1_4  and  N2_5 
REMARK    2  A    between atoms: C1_4  and  C5_17 
REMARK    3  A    between atoms: N2_5  and  N3_7 
REMARK       I    between atoms: N3_7  and  C2_8 
REMARK    4  A    between atoms: C2_8  and  C3_10 
REMARK    5  A    between atoms: N4_11  and  N5_13 
REMARK       I    between atoms: N5_13  and  C4_14 
ROOT
HETATM    1  N3  UNL     1      29.615  46.733  -1.968  1.00  0.00    -0.279 NA
HETATM    2  C2  UNL     1      29.008  46.529  -0.653  1.00  0.00     0.353 C 
HETATM    3  O1  UNL     1      29.466  46.899   0.399  1.00  0.00    -0.248 OA
ENDROOT
BRANCH   1   4
HETATM    4  N2  UNL     1      30.232  46.975  -3.019  1.00  0.00    -0.211 N 
ATOM      5  H2  UNL     1      31.137  46.508  -3.063  1.00  0.00     0.204 HD
BRANCH   4   6
HETATM    6  C1  UNL     1      29.953  47.775  -4.197  1.00  0.00     0.190 C 
HETATM    7  N1  UNL     1      29.848  49.075  -4.118  1.00  0.00    -0.380 N 
ATOM      8  H12 UNL     1      30.005  49.512  -3.210  1.00  0.00     0.158 HD
ATOM      9  H11 UNL     1      29.652  49.637  -4.946  1.00  0.00     0.158 HD
BRANCH   6  10
HETATM   10  C5  UNL     1      29.730  47.152  -5.490  1.00  0.00     0.300 C 
HETATM   11  N8  UNL     1      28.846  46.012  -5.619  1.00  0.00    -0.054 NA
HETATM   12  O2  UNL     1      30.278  47.565  -6.527  1.00  0.00    -0.268 OA
ENDBRANCH   6  10
ENDBRANCH   4   6
ENDBRANCH   1   4
BRANCH   2  13
HETATM   13  C3  UNL     1      27.719  45.811  -0.641  1.00  0.00     0.212 C 
HETATM   14  N4  UNL     1      26.663  46.381  -1.060  1.00  0.00    -0.238 N 
ATOM     15  H4  UNL     1      25.830  45.795  -1.001  1.00  0.00     0.201 HD
BRANCH  14  16
HETATM   16  N5  UNL     1      26.440  47.545  -1.539  1.00  0.00    -0.295 NA
HETATM   17  C4  UNL     1      26.316  48.524  -2.230  1.00  0.00     0.298 C 
HETATM   18  N6  UNL     1      25.842  49.754  -1.621  1.00  0.00    -0.051 NA
HETATM   19  N7  UNL     1      26.677  48.619  -3.626  1.00  0.00    -0.051 NA
ENDBRANCH  14  16
ENDBRANCH   2  13
TORSDOF 5
ENDMDL
MODEL 3
REMARK VINA RESULT: -7.040778073      1.766      1.985
REMARK  5 active torsions:
REMARK  status: ('A' for Active; 'I' for Inactive)
REMARK    1  A    between atoms: C1_4  and  N2_5 
REMARK    2  A    between atoms: C1_4  and  C5_17 
REMARK    3  A    between atoms: N2_5  and  N3_7 
REMARK       I    between atoms: N3_7  and  C2_8 
REMARK    4  A    between atoms: C2_8  and  C3_10 
REMARK    5  A    between atoms: N4_11  and  N5_13 
REMARK       I    between atoms: N5_13  and  C4_14 
ROOT
HETATM    1  N3  UNL     1      29.537  46.693  -1.962  1.00  0.00    -0.279 NA
HETATM    2  C2  UNL     1      28.974  46.496  -0.627  1.00  0.00     0.353 C 
HETATM    3  O1  UNL     1      29.487  46.833   0.411  1.00  0.00    -0.248 OA
ENDROOT
BRANCH   1   4
HETATM    4  N2  UNL     1      30.123  46.924  -3.033  1.00  0.00    -0.211 N 
ATOM      5  H2  UNL     1      31.031  47.370  -2.900  1.00  0.00     0.204 HD
BRANCH   4   6
HETATM    6  C1  UNL     1      29.805  46.702  -4.431  1.00  0.00     0.190 C 
HETATM    7  N1  UNL     1      29.240  45.591  -4.824  1.00  0.00    -0.380 N 
ATOM      8  H12 UNL     1      28.996  44.903  -4.112  1.00  0.00     0.158 HD
ATOM      9  H11 UNL     1      29.016  45.435  -5.807  1.00  0.00     0.158 HD
BRANCH   6  10
HETATM   10  C5  UNL     1      30.151  47.684  -5.444  1.00  0.00     0.300 C 
HETATM   11  N8  UNL     1      30.504  49.039  -5.071  1.00  0.00    -0.054 NA
HETATM   12  O2  UNL     1      30.162  47.408  -6.657  1.00  0.00    -0.268 OA
ENDBRANCH   6  10
ENDBRANCH   4   6
ENDBRANCH   1   4
BRANCH   2  13
HETATM   13  C3  UNL     1      27.659  45.829  -0.573  1.00  0.00     0.212 C 
HETATM   14  N4  UNL     1      26.623  46.417  -1.016  1.00  0.00    -0.238 N 
ATOM     15  H4  UNL     1      25.769  45.867  -0.925  1.00  0.00     0.201 HD
BRANCH  14  16
HETATM   16  N5  UNL     1      26.442  47.562  -1.555  1.00  0.00    -0.295 NA
HETATM   17  C4  UNL     1      26.418  48.528  -2.274  1.00  0.00     0.298 C 
HETATM   18  N6  UNL     1      25.735  49.725  -1.812  1.00  0.00    -0.051 NA
HETATM   19  N7  UNL     1      27.088  48.645  -3.548  1.00  0.00    -0.051 NA
ENDBRANCH  14  16
ENDBRANCH   2  13
TORSDOF 5
ENDMDL
MODEL 4
REMARK VINA RESULT: -6.953536451      4.174      5.159
REMARK  5 active torsions:
REMARK  status: ('A' for Active; 'I' for Inactive)
REMARK    1  A    between atoms: C1_4  and  N2_5 
REMARK    2  A    between atoms: C1_4  and  C5_17 
REMARK    3  A    between atoms: N2_5  and  N3_7 
REMARK       I    between atoms: N3_7  and  C2_8 
REMARK    4  A    between atoms: C2_8  and  C3_10 
REMARK    5  A    between atoms: N4_11  and  N5_13 
REMARK       I    between atoms: N5_13  and  C4_14 
ROOT
HETATM    1  N3  UNL     1      29.502  45.807  -4.991  1.00  0.00    -0.279 NA
HETATM    2  C2  UNL     1      28.566  46.767  -4.408  1.00  0.00     0.353 C 
HETATM    3  O1  UNL     1      27.386  46.587  -4.240  1.00  0.00    -0.248 OA
ENDROOT
BRANCH   1   4
HETATM    4  N2  UNL     1      30.190  44.903  -5.495  1.00  0.00    -0.211 N 
ATOM      5  H2  UNL     1      31.121  44.838  -5.084  1.00  0.00     0.204 HD
BRANCH   4   6
HETATM    6  C1  UNL     1      29.964  43.920  -6.537  1.00  0.00     0.190 C 
HETATM    7  N1  UNL     1      29.354  42.793  -6.279  1.00  0.00    -0.380 N 
ATOM      8  H12 UNL     1      29.010  42.645  -5.331  1.00  0.00     0.158 HD
ATOM      9  H11 UNL     1      29.196  42.102  -7.012  1.00  0.00     0.158 HD
BRANCH   6  10
HETATM   10  C5  UNL     1      30.455  44.132  -7.888  1.00  0.00     0.300 C 
HETATM   11  N8  UNL     1      31.362  43.184  -8.503  1.00  0.00    -0.054 NA
HETATM   12  O2  UNL     1      30.123  45.120  -8.566  1.00  0.00    -0.268 OA
ENDBRANCH   6  10
ENDBRANCH   4   6
ENDBRANCH   1   4
BRANCH   2  13
HETATM   13  C3  UNL     1      29.142  48.060  -3.992  1.00  0.00     0.212 C 
HETATM   14  N4  UNL     1      29.303  48.323  -2.759  1.00  0.00    -0.238 N 
ATOM     15  H4  UNL     1      29.704  49.245  -2.586  1.00  0.00     0.201 HD
BRANCH  14  16
HETATM   16  N5  UNL     1      29.062  47.659  -1.694  1.00  0.00    -0.295 NA
HETATM   17  C4  UNL     1      28.578  47.009  -0.802  1.00  0.00     0.298 C 
HETATM   18  N6  UNL     1      29.407  46.664   0.340  1.00  0.00    -0.051 NA
HETATM   19  N7  UNL     1      27.196  46.598  -0.716  1.00  0.00    -0.051 NA
ENDBRANCH  14  16
ENDBRANCH   2  13
TORSDOF 5
ENDMDL
MODEL 5
REMARK VINA RESULT: -6.875514789      4.118      5.082
REMARK  5 active torsions:
REMARK  status: ('A' for Active; 'I' for Inactive)
REMARK    1  A    between atoms: C1_4  and  N2_5 
REMARK    2  A    between atoms: C1_4  and  C5_17 
REMARK    3  A    between atoms: N2_5  and  N3_7 
REMARK       I    between atoms: N3_7  and  C2_8 
REMARK    4  A    between atoms: C2_8  and  C3_10 
REMARK    5  A    between atoms: N4_11  and  N5_13 
REMARK       I    between atoms: N5_13  and  C4_14 
ROOT
HETATM    1  N3  UNL     1      29.596  45.878  -5.043  1.00  0.00    -0.279 NA
HETATM    2  C2  UNL     1      28.996  47.128  -4.580  1.00  0.00     0.353 C 
HETATM    3  O1  UNL     1      29.501  48.221  -4.650  1.00  0.00    -0.248 OA
ENDROOT
BRANCH   1   4
HETATM    4  N2  UNL     1      30.215  44.893  -5.480  1.00  0.00    -0.211 N 
ATOM      5  H2  UNL     1      31.095  44.729  -4.991  1.00  0.00     0.204 HD
BRANCH   4   6
HETATM    6  C1  UNL     1      29.966  43.924  -6.530  1.00  0.00     0.190 C 
HETATM    7  N1  UNL     1      29.346  42.801  -6.277  1.00  0.00    -0.380 N 
ATOM      8  H12 UNL     1      29.012  42.646  -5.326  1.00  0.00     0.158 HD
ATOM      9  H11 UNL     1      29.171  42.120  -7.015  1.00  0.00     0.158 HD
BRANCH   6  10
HETATM   10  C5  UNL     1      30.442  44.146  -7.885  1.00  0.00     0.300 C 
HETATM   11  N8  UNL     1      31.357  43.213  -8.509  1.00  0.00    -0.054 NA
HETATM   12  O2  UNL     1      30.090  45.131  -8.557  1.00  0.00    -0.268 OA
ENDBRANCH   6  10
ENDBRANCH   4   6
ENDBRANCH   1   4
BRANCH   2  13
HETATM   13  C3  UNL     1      27.650  47.017  -3.984  1.00  0.00     0.212 C 
HETATM   14  N4  UNL     1      27.506  47.018  -2.722  1.00  0.00    -0.238 N 
ATOM     15  H4  UNL     1      26.535  46.931  -2.420  1.00  0.00     0.201 HD
BRANCH  14  16
HETATM   16  N5  UNL     1      28.338  47.105  -1.756  1.00  0.00    -0.295 NA
HETATM   17  C4  UNL     1      29.237  47.388  -1.005  1.00  0.00     0.298 C 
HETATM   18  N6  UNL     1      29.351  46.669   0.252  1.00  0.00    -0.051 NA
HETATM   19  N7  UNL     1      30.289  48.341  -1.275  1.00  0.00    -0.051 NA
ENDBRANCH  14  16
ENDBRANCH   2  13
TORSDOF 5
ENDMDL
