MODEL 1
REMARK VINA RESULT: -8.079777826      0.000      0.000
REMARK  15 active torsions:
REMARK  status: ('A' for Active; 'I' for Inactive)
REMARK    1  A    between atoms: C1_4  and  O1_5 
REMARK    2  A    between atoms: C1_4  and  C2_7 
REMARK    3  A    between atoms: C3_10  and  O2_11 
REMARK    4  A    between atoms: C3_10  and  C4_13 
REMARK    5  A    between atoms: C4_13  and  O3_14 
REMARK    6  A    between atoms: C4_13  and  N4_16 
REMARK    7  A    between atoms: C7_19  and  N5_20 
REMARK       I    between atoms: N5_20  and  C8_22 
REMARK    8  A    between atoms: C8_22  and  C9_24 
REMARK    9  A    between atoms: C12_27  and  C13_28 
REMARK   10  A    between atoms: N6_29  and  O5_31 
REMARK   11  A    between atoms: C18_37  and  C19_38 
REMARK   12  A    between atoms: C19_38  and  O7_40 
REMARK   13  A    between atoms: O7_40  and  C20_41 
REMARK   14  A    between atoms: C20_41  and  C21_42 
REMARK   15  A    between atoms: C22_45  and  O10_46 
ROOT
HETATM    1  C2  UNL     1      52.970  20.526 -27.318  1.00  0.00     0.239 C 
HETATM    2  N2  UNL     1      51.667  20.125 -26.769  1.00  0.00    -0.139 NA
HETATM    3  N3  UNL     1      51.004  21.239 -26.330  1.00  0.00    -0.162 NA
HETATM    4  C3  UNL     1      50.455  21.263 -24.977  1.00  0.00     0.231 A 
HETATM    5  C18 UNL     1      51.677  22.025 -25.327  1.00  0.00     0.207 A 
HETATM    6  C22 UNL     1      53.010  21.393 -24.949  1.00  0.00     0.229 C 
HETATM    7  C23 UNL     1      53.764  21.057 -26.204  1.00  0.00     0.186 C 
HETATM    8  O11 UNL     1      54.945  21.236 -26.232  1.00  0.00    -0.293 OA
ENDROOT
BRANCH   4   9
HETATM    9  O2  UNL     1      50.702  20.068 -24.305  1.00  0.00    -0.365 OA
ATOM     10  H2  UNL     1      51.619  19.827 -24.350  1.00  0.00     0.212 HD
ENDBRANCH   4   9
BRANCH   4  11
HETATM   11  C4  UNL     1      49.175  21.923 -24.775  1.00  0.00     0.177 C 
BRANCH  11  12
HETATM   12  O3  UNL     1      49.150  22.781 -23.793  1.00  0.00    -0.346 OA
ATOM     13  H3  UNL     1      48.768  22.454 -22.986  1.00  0.00     0.219 HD
ENDBRANCH  11  12
BRANCH  11  14
HETATM   14  N4  UNL     1      47.984  21.753 -25.496  1.00  0.00    -0.313 N 
HETATM   15  C5  UNL     1      47.765  22.558 -26.595  1.00  0.00     0.100 A 
HETATM   16  C6  UNL     1      46.635  22.466 -27.341  1.00  0.00     0.047 A 
HETATM   17  C7  UNL     1      45.617  21.555 -27.051  1.00  0.00     0.037 A 
HETATM   18  C16 UNL     1      45.837  20.763 -25.968  1.00  0.00     0.047 A 
HETATM   19  C17 UNL     1      47.013  20.883 -25.220  1.00  0.00     0.100 A 
BRANCH  17  20
HETATM   20  N5  UNL     1      44.460  21.497 -27.858  1.00  0.00    -0.323 N 
HETATM   21  C8  UNL     1      43.538  20.447 -27.998  1.00  0.00     0.256 C 
HETATM   22  O4  UNL     1      43.628  19.373 -27.391  1.00  0.00    -0.267 OA
ATOM     23  H5  UNL     1      44.268  22.330 -28.415  1.00  0.00     0.169 HD
BRANCH  21  24
HETATM   24  C9  UNL     1      42.379  20.571 -28.898  1.00  0.00     0.032 A 
HETATM   25  C10 UNL     1      41.105  20.467 -28.372  1.00  0.00     0.018 A 
HETATM   26  C11 UNL     1      39.984  20.576 -29.175  1.00  0.00     0.014 A 
HETATM   27  C12 UNL     1      40.086  20.793 -30.533  1.00  0.00    -0.019 A 
HETATM   28  C14 UNL     1      41.346  20.895 -31.057  1.00  0.00     0.014 A 
HETATM   29  C15 UNL     1      42.473  20.786 -30.250  1.00  0.00     0.018 A 
BRANCH  27  30
HETATM   30  C13 UNL     1      38.883  20.903 -31.343  1.00  0.00     0.125 C 
HETATM   31  N6  UNL     1      38.095  21.899 -31.191  1.00  0.00    -0.280 N 
ATOM     32  H6  UNL     1      38.312  22.618 -30.500  1.00  0.00     0.193 HD
BRANCH  31  33
HETATM   33  O5  UNL     1      36.959  22.004 -31.954  1.00  0.00    -0.290 OA
ATOM     34  H5  UNL     1      36.318  22.681 -31.769  1.00  0.00     0.244 HD
ENDBRANCH  31  33
ENDBRANCH  27  30
ENDBRANCH  21  24
ENDBRANCH  17  20
ENDBRANCH  11  14
ENDBRANCH   4  11
BRANCH   5  35
HETATM   35  C19 UNL     1      51.710  23.466 -25.615  1.00  0.00     0.292 C 
HETATM   36  O6  UNL     1      51.797  24.290 -24.637  1.00  0.00    -0.263 OA
BRANCH  35  37
HETATM   37  O7  UNL     1      51.658  24.028 -26.862  1.00  0.00    -0.309 OA
BRANCH  37  38
HETATM   38  C20 UNL     1      52.793  24.246 -27.676  1.00  0.00     0.291 C 
BRANCH  38  39
HETATM   39  C21 UNL     1      52.606  23.657 -29.028  1.00  0.00     0.198 C 
HETATM   40  O8  UNL     1      51.573  23.851 -29.710  1.00  0.00    -0.646 OA
HETATM   41  O9  UNL     1      53.631  22.865 -29.537  1.00  0.00    -0.646 OA
ENDBRANCH  38  39
ENDBRANCH  37  38
ENDBRANCH  35  37
ENDBRANCH   5  35
BRANCH   6  42
HETATM   42  O10 UNL     1      53.747  22.367 -24.285  1.00  0.00    -0.385 OA
ATOM     43  H10 UNL     1      54.537  22.511 -24.792  1.00  0.00     0.210 HD
ENDBRANCH   6  42
BRANCH   1  44
HETATM   44  C1  UNL     1      53.568  19.458 -28.110  1.00  0.00     0.137 C 
HETATM   45  N1  UNL     1      53.273  18.238 -27.979  1.00  0.00    -0.382 N 
ATOM     46  H12 UNL     1      53.691  17.490 -28.532  1.00  0.00     0.158 HD
ATOM     47  H11 UNL     1      52.576  17.983 -27.279  1.00  0.00     0.158 HD
BRANCH  44  48
HETATM   48  O1  UNL     1      54.519  19.806 -29.066  1.00  0.00    -0.348 OA
ATOM     49  H1  UNL     1      55.216  20.399 -28.810  1.00  0.00     0.219 HD
ENDBRANCH  44  48
ENDBRANCH   1  44
TORSDOF 15
ENDMDL
MODEL 2
REMARK VINA RESULT: -7.982317211      1.566      2.125
REMARK  15 active torsions:
REMARK  status: ('A' for Active; 'I' for Inactive)
REMARK    1  A    between atoms: C1_4  and  O1_5 
REMARK    2  A    between atoms: C1_4  and  C2_7 
REMARK    3  A    between atoms: C3_10  and  O2_11 
REMARK    4  A    between atoms: C3_10  and  C4_13 
REMARK    5  A    between atoms: C4_13  and  O3_14 
REMARK    6  A    between atoms: C4_13  and  N4_16 
REMARK    7  A    between atoms: C7_19  and  N5_20 
REMARK       I    between atoms: N5_20  and  C8_22 
REMARK    8  A    between atoms: C8_22  and  C9_24 
REMARK    9  A    between atoms: C12_27  and  C13_28 
REMARK   10  A    between atoms: N6_29  and  O5_31 
REMARK   11  A    between atoms: C18_37  and  C19_38 
REMARK   12  A    between atoms: C19_38  and  O7_40 
REMARK   13  A    between atoms: O7_40  and  C20_41 
REMARK   14  A    between atoms: C20_41  and  C21_42 
REMARK   15  A    between atoms: C22_45  and  O10_46 
ROOT
HETATM    1  C2  UNL     1      53.070  20.272 -27.301  1.00  0.00     0.239 C 
HETATM    2  N2  UNL     1      52.134  20.358 -26.170  1.00  0.00    -0.139 NA
HETATM    3  N3  UNL     1      51.363  21.481 -26.313  1.00  0.00    -0.162 NA
HETATM    4  C3  UNL     1      51.246  22.419 -25.199  1.00  0.00     0.231 A 
HETATM    5  C18 UNL     1      52.073  22.733 -26.388  1.00  0.00     0.207 A 
HETATM    6  C22 UNL     1      53.573  22.514 -26.258  1.00  0.00     0.229 C 
HETATM    7  C23 UNL     1      53.989  21.410 -27.190  1.00  0.00     0.186 C 
HETATM    8  O11 UNL     1      55.021  21.515 -27.781  1.00  0.00    -0.293 OA
ENDROOT
BRANCH   4   9
HETATM    9  O2  UNL     1      51.978  21.992 -24.094  1.00  0.00    -0.365 OA
ATOM     10  H2  UNL     1      52.002  22.656 -23.415  1.00  0.00     0.212 HD
ENDBRANCH   4   9
BRANCH   4  11
HETATM   11  C4  UNL     1      49.956  23.051 -24.976  1.00  0.00     0.177 C 
BRANCH  11  12
HETATM   12  O3  UNL     1      49.974  24.055 -24.143  1.00  0.00    -0.346 OA
ATOM     13  H3  UNL     1      49.119  24.343 -23.845  1.00  0.00     0.219 HD
ENDBRANCH  11  12
BRANCH  11  14
HETATM   14  N4  UNL     1      48.714  22.720 -25.539  1.00  0.00    -0.313 N 
HETATM   15  C5  UNL     1      48.217  23.525 -26.543  1.00  0.00     0.100 A 
HETATM   16  C6  UNL     1      47.020  23.281 -27.133  1.00  0.00     0.047 A 
HETATM   17  C7  UNL     1      46.208  22.204 -26.768  1.00  0.00     0.037 A 
HETATM   18  C16 UNL     1      46.703  21.414 -25.779  1.00  0.00     0.047 A 
HETATM   19  C17 UNL     1      47.941  21.692 -25.191  1.00  0.00     0.100 A 
BRANCH  17  20
HETATM   20  N5  UNL     1      44.970  21.993 -27.413  1.00  0.00    -0.323 N 
HETATM   21  C8  UNL     1      44.727  21.621 -28.745  1.00  0.00     0.256 C 
HETATM   22  O4  UNL     1      45.623  21.416 -29.573  1.00  0.00    -0.267 OA
ATOM     23  H5  UNL     1      44.142  22.129 -26.835  1.00  0.00     0.169 HD
BRANCH  21  24
HETATM   24  C9  UNL     1      43.352  21.446 -29.244  1.00  0.00     0.032 A 
HETATM   25  C10 UNL     1      42.292  21.802 -28.431  1.00  0.00     0.018 A 
HETATM   26  C11 UNL     1      40.982  21.657 -28.853  1.00  0.00     0.014 A 
HETATM   27  C12 UNL     1      40.676  21.153 -30.100  1.00  0.00    -0.019 A 
HETATM   28  C14 UNL     1      41.723  20.800 -30.906  1.00  0.00     0.014 A 
HETATM   29  C15 UNL     1      43.039  20.945 -30.483  1.00  0.00     0.018 A 
BRANCH  27  30
HETATM   30  C13 UNL     1      39.286  21.018 -30.506  1.00  0.00     0.125 C 
HETATM   31  N6  UNL     1      38.832  21.706 -31.484  1.00  0.00    -0.280 N 
ATOM     32  H6  UNL     1      39.447  22.352 -31.980  1.00  0.00     0.193 HD
BRANCH  31  33
HETATM   33  O5  UNL     1      37.520  21.580 -31.868  1.00  0.00    -0.290 OA
ATOM     34  H5  UNL     1      37.173  22.118 -32.570  1.00  0.00     0.244 HD
ENDBRANCH  31  33
ENDBRANCH  27  30
ENDBRANCH  21  24
ENDBRANCH  17  20
ENDBRANCH  11  14
ENDBRANCH   4  11
BRANCH   5  35
HETATM   35  C19 UNL     1      51.646  23.599 -27.497  1.00  0.00     0.292 C 
HETATM   36  O6  UNL     1      51.006  23.078 -28.478  1.00  0.00    -0.263 OA
BRANCH  35  37
HETATM   37  O7  UNL     1      51.872  24.946 -27.586  1.00  0.00    -0.309 OA
BRANCH  37  38
HETATM   38  C20 UNL     1      51.198  25.911 -26.803  1.00  0.00     0.291 C 
BRANCH  38  39
HETATM   39  C21 UNL     1      52.096  26.485 -25.766  1.00  0.00     0.198 C 
HETATM   40  O8  UNL     1      52.413  27.698 -25.747  1.00  0.00    -0.646 OA
HETATM   41  O9  UNL     1      52.591  25.627 -24.789  1.00  0.00    -0.646 OA
ENDBRANCH  38  39
ENDBRANCH  37  38
ENDBRANCH  35  37
ENDBRANCH   5  35
BRANCH   6  42
HETATM   42  O10 UNL     1      54.194  23.674 -26.706  1.00  0.00    -0.385 OA
ATOM     43  H10 UNL     1      53.760  23.927 -27.512  1.00  0.00     0.210 HD
ENDBRANCH   6  42
BRANCH   1  44
HETATM   44  C1  UNL     1      53.665  18.945 -27.400  1.00  0.00     0.137 C 
HETATM   45  N1  UNL     1      53.157  17.995 -28.058  1.00  0.00    -0.382 N 
ATOM     46  H12 UNL     1      53.573  17.067 -28.127  1.00  0.00     0.158 HD
ATOM     47  H11 UNL     1      52.279  18.164 -28.548  1.00  0.00     0.158 HD
BRANCH  44  48
HETATM   48  O1  UNL     1      54.864  18.715 -26.730  1.00  0.00    -0.348 OA
ATOM     49  H1  UNL     1      55.625  18.468 -27.242  1.00  0.00     0.219 HD
ENDBRANCH  44  48
ENDBRANCH   1  44
TORSDOF 15
ENDMDL
MODEL 3
REMARK VINA RESULT: -7.835094082      4.608     11.454
REMARK  15 active torsions:
REMARK  status: ('A' for Active; 'I' for Inactive)
REMARK    1  A    between atoms: C1_4  and  O1_5 
REMARK    2  A    between atoms: C1_4  and  C2_7 
REMARK    3  A    between atoms: C3_10  and  O2_11 
REMARK    4  A    between atoms: C3_10  and  C4_13 
REMARK    5  A    between atoms: C4_13  and  O3_14 
REMARK    6  A    between atoms: C4_13  and  N4_16 
REMARK    7  A    between atoms: C7_19  and  N5_20 
REMARK       I    between atoms: N5_20  and  C8_22 
REMARK    8  A    between atoms: C8_22  and  C9_24 
REMARK    9  A    between atoms: C12_27  and  C13_28 
REMARK   10  A    between atoms: N6_29  and  O5_31 
REMARK   11  A    between atoms: C18_37  and  C19_38 
REMARK   12  A    between atoms: C19_38  and  O7_40 
REMARK   13  A    between atoms: O7_40  and  C20_41 
REMARK   14  A    between atoms: C20_41  and  C21_42 
REMARK   15  A    between atoms: C22_45  and  O10_46 
ROOT
HETATM    1  C2  UNL     1      40.394  19.843 -31.421  1.00  0.00     0.239 C 
HETATM    2  N2  UNL     1      41.539  19.395 -32.228  1.00  0.00    -0.139 NA
HETATM    3  N3  UNL     1      42.503  20.367 -32.215  1.00  0.00    -0.162 NA
HETATM    4  C3  UNL     1      43.063  20.841 -33.477  1.00  0.00     0.231 A 
HETATM    5  C18 UNL     1      42.104  21.663 -32.703  1.00  0.00     0.207 A 
HETATM    6  C22 UNL     1      40.654  21.645 -33.167  1.00  0.00     0.229 C 
HETATM    7  C23 UNL     1      39.809  21.001 -32.104  1.00  0.00     0.186 C 
HETATM    8  O11 UNL     1      38.729  21.457 -31.873  1.00  0.00    -0.293 OA
ENDROOT
BRANCH   4   9
HETATM    9  O2  UNL     1      42.498  20.182 -34.566  1.00  0.00    -0.365 OA
ATOM     10  H2  UNL     1      43.058  20.230 -35.331  1.00  0.00     0.212 HD
ENDBRANCH   4   9
BRANCH   4  11
HETATM   11  C4  UNL     1      44.482  21.155 -33.515  1.00  0.00     0.177 C 
BRANCH  11  12
HETATM   12  O3  UNL     1      45.061  20.941 -34.665  1.00  0.00    -0.346 OA
ATOM     13  H3  UNL     1      45.632  20.182 -34.690  1.00  0.00     0.219 HD
ENDBRANCH  11  12
BRANCH  11  14
HETATM   14  N4  UNL     1      45.292  21.652 -32.483  1.00  0.00    -0.313 N 
HETATM   15  C5  UNL     1      45.799  22.929 -32.608  1.00  0.00     0.100 A 
HETATM   16  C6  UNL     1      46.599  23.482 -31.662  1.00  0.00     0.047 A 
HETATM   17  C7  UNL     1      46.966  22.800 -30.499  1.00  0.00     0.037 A 
HETATM   18  C16 UNL     1      46.464  21.543 -30.380  1.00  0.00     0.047 A 
HETATM   19  C17 UNL     1      45.642  21.002 -31.374  1.00  0.00     0.100 A 
BRANCH  17  20
HETATM   20  N5  UNL     1      47.801  23.420 -29.543  1.00  0.00    -0.323 N 
HETATM   21  C8  UNL     1      47.462  23.920 -28.276  1.00  0.00     0.256 C 
HETATM   22  O4  UNL     1      46.319  23.878 -27.806  1.00  0.00    -0.267 OA
ATOM     23  H5  UNL     1      48.781  23.516 -29.809  1.00  0.00     0.169 HD
BRANCH  21  24
HETATM   24  C9  UNL     1      48.480  24.540 -27.409  1.00  0.00     0.032 A 
HETATM   25  C10 UNL     1      48.779  25.880 -27.575  1.00  0.00     0.018 A 
HETATM   26  C11 UNL     1      49.727  26.508 -26.788  1.00  0.00     0.014 A 
HETATM   27  C12 UNL     1      50.415  25.828 -25.804  1.00  0.00    -0.019 A 
HETATM   28  C14 UNL     1      50.122  24.503 -25.638  1.00  0.00     0.014 A 
HETATM   29  C15 UNL     1      49.170  23.870 -26.429  1.00  0.00     0.018 A 
BRANCH  27  30
HETATM   30  C13 UNL     1      51.403  26.526 -24.996  1.00  0.00     0.125 C 
HETATM   31  N6  UNL     1      51.200  27.737 -24.637  1.00  0.00    -0.280 N 
ATOM     32  H6  UNL     1      50.343  28.213 -24.918  1.00  0.00     0.193 HD
BRANCH  31  33
HETATM   33  O5  UNL     1      52.132  28.397 -23.874  1.00  0.00    -0.290 OA
ATOM     34  H5  UNL     1      52.631  27.928 -23.216  1.00  0.00     0.244 HD
ENDBRANCH  31  33
ENDBRANCH  27  30
ENDBRANCH  21  24
ENDBRANCH  17  20
ENDBRANCH  11  14
ENDBRANCH   4  11
BRANCH   5  35
HETATM   35  C19 UNL     1      42.480  22.778 -31.821  1.00  0.00     0.292 C 
HETATM   36  O6  UNL     1      42.559  23.958 -32.316  1.00  0.00    -0.263 OA
BRANCH  35  37
HETATM   37  O7  UNL     1      42.759  22.675 -30.485  1.00  0.00    -0.309 OA
BRANCH  37  38
HETATM   38  C20 UNL     1      43.196  23.756 -29.686  1.00  0.00     0.291 C 
BRANCH  38  39
HETATM   39  C21 UNL     1      42.707  23.623 -28.287  1.00  0.00     0.198 C 
HETATM   40  O8  UNL     1      43.149  24.327 -27.350  1.00  0.00    -0.646 OA
HETATM   41  O9  UNL     1      41.721  22.674 -28.033  1.00  0.00    -0.646 OA
ENDBRANCH  38  39
ENDBRANCH  37  38
ENDBRANCH  35  37
ENDBRANCH   5  35
BRANCH   6  42
HETATM   42  O10 UNL     1      40.241  22.969 -33.262  1.00  0.00    -0.385 OA
ATOM     43  H10 UNL     1      39.763  23.053 -34.079  1.00  0.00     0.210 HD
ENDBRANCH   6  42
BRANCH   1  44
HETATM   44  C1  UNL     1      39.499  18.736 -31.105  1.00  0.00     0.137 C 
HETATM   45  N1  UNL     1      38.532  18.823 -30.300  1.00  0.00    -0.382 N 
ATOM     46  H12 UNL     1      37.906  18.048 -30.079  1.00  0.00     0.158 HD
ATOM     47  H11 UNL     1      38.365  19.718 -29.842  1.00  0.00     0.158 HD
BRANCH  44  48
HETATM   48  O1  UNL     1      39.728  17.512 -31.730  1.00  0.00    -0.348 OA
ATOM     49  H1  UNL     1      39.179  17.276 -32.469  1.00  0.00     0.219 HD
ENDBRANCH  44  48
ENDBRANCH   1  44
TORSDOF 15
ENDMDL
MODEL 4
REMARK VINA RESULT: -7.776638046      4.337     11.659
REMARK  15 active torsions:
REMARK  status: ('A' for Active; 'I' for Inactive)
REMARK    1  A    between atoms: C1_4  and  O1_5 
REMARK    2  A    between atoms: C1_4  and  C2_7 
REMARK    3  A    between atoms: C3_10  and  O2_11 
REMARK    4  A    between atoms: C3_10  and  C4_13 
REMARK    5  A    between atoms: C4_13  and  O3_14 
REMARK    6  A    between atoms: C4_13  and  N4_16 
REMARK    7  A    between atoms: C7_19  and  N5_20 
REMARK       I    between atoms: N5_20  and  C8_22 
REMARK    8  A    between atoms: C8_22  and  C9_24 
REMARK    9  A    between atoms: C12_27  and  C13_28 
REMARK   10  A    between atoms: N6_29  and  O5_31 
REMARK   11  A    between atoms: C18_37  and  C19_38 
REMARK   12  A    between atoms: C19_38  and  O7_40 
REMARK   13  A    between atoms: O7_40  and  C20_41 
REMARK   14  A    between atoms: C20_41  and  C21_42 
REMARK   15  A    between atoms: C22_45  and  O10_46 
ROOT
HETATM    1  C2  UNL     1      43.953  21.690 -34.632  1.00  0.00     0.239 C 
HETATM    2  N2  UNL     1      43.783  22.834 -33.724  1.00  0.00    -0.139 NA
HETATM    3  N3  UNL     1      43.451  22.370 -32.479  1.00  0.00    -0.162 NA
HETATM    4  C3  UNL     1      42.284  22.920 -31.795  1.00  0.00     0.231 A 
HETATM    5  C18 UNL     1      42.257  21.567 -32.399  1.00  0.00     0.207 A 
HETATM    6  C22 UNL     1      41.598  21.438 -33.765  1.00  0.00     0.229 C 
HETATM    7  C23 UNL     1      42.640  21.052 -34.776  1.00  0.00     0.186 C 
HETATM    8  O11 UNL     1      42.354  20.262 -35.625  1.00  0.00    -0.293 OA
ENDROOT
BRANCH   4   9
HETATM    9  O2  UNL     1      41.656  23.898 -32.563  1.00  0.00    -0.365 OA
ATOM     10  H2  UNL     1      41.102  24.456 -32.030  1.00  0.00     0.212 HD
ENDBRANCH   4   9
BRANCH   4  11
HETATM   11  C4  UNL     1      42.368  23.113 -30.356  1.00  0.00     0.177 C 
BRANCH  11  12
HETATM   12  O3  UNL     1      41.269  22.852 -29.703  1.00  0.00    -0.346 OA
ATOM     13  H3  UNL     1      41.084  21.927 -29.586  1.00  0.00     0.219 HD
ENDBRANCH  11  12
BRANCH  11  14
HETATM   14  N4  UNL     1      43.469  23.538 -29.598  1.00  0.00    -0.313 N 
HETATM   15  C5  UNL     1      44.226  24.588 -30.077  1.00  0.00     0.100 A 
HETATM   16  C6  UNL     1      45.312  25.054 -29.412  1.00  0.00     0.047 A 
HETATM   17  C7  UNL     1      45.741  24.507 -28.199  1.00  0.00     0.037 A 
HETATM   18  C16 UNL     1      44.992  23.475 -27.731  1.00  0.00     0.047 A 
HETATM   19  C17 UNL     1      43.878  23.018 -28.442  1.00  0.00     0.100 A 
BRANCH  17  20
HETATM   20  N5  UNL     1      46.878  25.029 -27.545  1.00  0.00    -0.323 N 
HETATM   21  C8  UNL     1      48.190  24.528 -27.532  1.00  0.00     0.256 C 
HETATM   22  O4  UNL     1      48.538  23.504 -28.132  1.00  0.00    -0.267 OA
ATOM     23  H5  UNL     1      46.727  25.884 -27.010  1.00  0.00     0.169 HD
BRANCH  21  24
HETATM   24  C9  UNL     1      49.256  25.217 -26.784  1.00  0.00     0.032 A 
HETATM   25  C10 UNL     1      49.379  26.589 -26.898  1.00  0.00     0.018 A 
HETATM   26  C11 UNL     1      50.363  27.282 -26.217  1.00  0.00     0.014 A 
HETATM   27  C12 UNL     1      51.264  26.637 -25.395  1.00  0.00    -0.019 A 
HETATM   28  C14 UNL     1      51.146  25.280 -25.281  1.00  0.00     0.014 A 
HETATM   29  C15 UNL     1      50.157  24.582 -25.966  1.00  0.00     0.018 A 
BRANCH  27  30
HETATM   30  C13 UNL     1      52.284  27.403 -24.695  1.00  0.00     0.125 C 
HETATM   31  N6  UNL     1      51.995  28.539 -24.182  1.00  0.00    -0.280 N 
ATOM     32  H6  UNL     1      51.048  28.908 -24.265  1.00  0.00     0.193 HD
BRANCH  31  33
HETATM   33  O5  UNL     1      52.956  29.263 -23.521  1.00  0.00    -0.290 OA
ATOM     34  H5  UNL     1      52.735  29.744 -22.731  1.00  0.00     0.244 HD
ENDBRANCH  31  33
ENDBRANCH  27  30
ENDBRANCH  21  24
ENDBRANCH  17  20
ENDBRANCH  11  14
ENDBRANCH   4  11
BRANCH   5  35
HETATM   35  C19 UNL     1      42.426  20.313 -31.649  1.00  0.00     0.292 C 
HETATM   36  O6  UNL     1      43.611  19.920 -31.361  1.00  0.00    -0.263 OA
BRANCH  35  37
HETATM   37  O7  UNL     1      41.411  19.504 -31.214  1.00  0.00    -0.309 OA
BRANCH  37  38
HETATM   38  C20 UNL     1      40.531  19.841 -30.160  1.00  0.00     0.291 C 
BRANCH  38  39
HETATM   39  C21 UNL     1      39.187  20.209 -30.678  1.00  0.00     0.198 C 
HETATM   40  O8  UNL     1      38.215  19.418 -30.651  1.00  0.00    -0.646 OA
HETATM   41  O9  UNL     1      39.024  21.486 -31.207  1.00  0.00    -0.646 OA
ENDBRANCH  38  39
ENDBRANCH  37  38
ENDBRANCH  35  37
ENDBRANCH   5  35
BRANCH   6  42
HETATM   42  O10 UNL     1      40.702  20.378 -33.685  1.00  0.00    -0.385 OA
ATOM     43  H10 UNL     1      40.191  20.505 -32.895  1.00  0.00     0.210 HD
ENDBRANCH   6  42
BRANCH   1  44
HETATM   44  C1  UNL     1      44.640  22.081 -35.858  1.00  0.00     0.137 C 
HETATM   45  N1  UNL     1      44.045  22.414 -36.920  1.00  0.00    -0.382 N 
ATOM     46  H12 UNL     1      44.526  22.687 -37.777  1.00  0.00     0.158 HD
ATOM     47  H11 UNL     1      43.026  22.410 -36.923  1.00  0.00     0.158 HD
BRANCH  44  48
HETATM   48  O1  UNL     1      46.033  22.087 -35.853  1.00  0.00    -0.348 OA
ATOM     49  H1  UNL     1      46.484  21.282 -35.629  1.00  0.00     0.219 HD
ENDBRANCH  44  48
ENDBRANCH   1  44
TORSDOF 15
ENDMDL
MODEL 5
REMARK VINA RESULT: -7.755240167      4.666     11.483
REMARK  15 active torsions:
REMARK  status: ('A' for Active; 'I' for Inactive)
REMARK    1  A    between atoms: C1_4  and  O1_5 
REMARK    2  A    between atoms: C1_4  and  C2_7 
REMARK    3  A    between atoms: C3_10  and  O2_11 
REMARK    4  A    between atoms: C3_10  and  C4_13 
REMARK    5  A    between atoms: C4_13  and  O3_14 
REMARK    6  A    between atoms: C4_13  and  N4_16 
REMARK    7  A    between atoms: C7_19  and  N5_20 
REMARK       I    between atoms: N5_20  and  C8_22 
REMARK    8  A    between atoms: C8_22  and  C9_24 
REMARK    9  A    between atoms: C12_27  and  C13_28 
REMARK   10  A    between atoms: N6_29  and  O5_31 
REMARK   11  A    between atoms: C18_37  and  C19_38 
REMARK   12  A    between atoms: C19_38  and  O7_40 
REMARK   13  A    between atoms: O7_40  and  C20_41 
REMARK   14  A    between atoms: C20_41  and  C21_42 
REMARK   15  A    between atoms: C22_45  and  O10_46 
ROOT
HETATM    1  C2  UNL     1      40.300  19.829 -31.399  1.00  0.00     0.239 C 
HETATM    2  N2  UNL     1      41.400  19.328 -32.238  1.00  0.00    -0.139 NA
HETATM    3  N3  UNL     1      42.403  20.259 -32.262  1.00  0.00    -0.162 NA
HETATM    4  C3  UNL     1      42.944  20.701 -33.545  1.00  0.00     0.231 A 
HETATM    5  C18 UNL     1      42.044  21.568 -32.748  1.00  0.00     0.207 A 
HETATM    6  C22 UNL     1      40.581  21.607 -33.167  1.00  0.00     0.229 C 
HETATM    7  C23 UNL     1      39.743  21.006 -32.074  1.00  0.00     0.186 C 
HETATM    8  O11 UNL     1      38.691  21.508 -31.813  1.00  0.00    -0.293 OA
ENDROOT
BRANCH   4   9
HETATM    9  O2  UNL     1      42.318  20.058 -34.611  1.00  0.00    -0.365 OA
ATOM     10  H2  UNL     1      41.376  20.175 -34.583  1.00  0.00     0.212 HD
ENDBRANCH   4   9
BRANCH   4  11
HETATM   11  C4  UNL     1      44.373  20.955 -33.628  1.00  0.00     0.177 C 
BRANCH  11  12
HETATM   12  O3  UNL     1      44.966  20.413 -34.656  1.00  0.00    -0.346 OA
ATOM     13  H3  UNL     1      45.518  21.003 -35.156  1.00  0.00     0.219 HD
ENDBRANCH  11  12
BRANCH  11  14
HETATM   14  N4  UNL     1      45.178  21.700 -32.754  1.00  0.00    -0.313 N 
HETATM   15  C5  UNL     1      45.626  21.090 -31.600  1.00  0.00     0.100 A 
HETATM   16  C6  UNL     1      46.399  21.742 -30.696  1.00  0.00     0.047 A 
HETATM   17  C7  UNL     1      46.795  23.071 -30.866  1.00  0.00     0.037 A 
HETATM   18  C16 UNL     1      46.352  23.667 -32.005  1.00  0.00     0.047 A 
HETATM   19  C17 UNL     1      45.556  22.967 -32.917  1.00  0.00     0.100 A 
BRANCH  17  20
HETATM   20  N5  UNL     1      47.601  23.705 -29.897  1.00  0.00    -0.323 N 
HETATM   21  C8  UNL     1      47.329  23.925 -28.537  1.00  0.00     0.256 C 
HETATM   22  O4  UNL     1      46.284  23.566 -27.981  1.00  0.00    -0.267 OA
ATOM     23  H5  UNL     1      48.502  24.050 -30.228  1.00  0.00     0.169 HD
BRANCH  21  24
HETATM   24  C9  UNL     1      48.303  24.612 -27.671  1.00  0.00     0.032 A 
HETATM   25  C10 UNL     1      48.935  23.897 -26.670  1.00  0.00     0.018 A 
HETATM   26  C11 UNL     1      49.856  24.496 -25.830  1.00  0.00     0.014 A 
HETATM   27  C12 UNL     1      50.186  25.830 -25.953  1.00  0.00    -0.019 A 
HETATM   28  C14 UNL     1      49.562  26.540 -26.942  1.00  0.00     0.014 A 
HETATM   29  C15 UNL     1      48.636  25.939 -27.786  1.00  0.00     0.018 A 
BRANCH  27  30
HETATM   30  C13 UNL     1      51.161  26.422 -25.051  1.00  0.00     0.125 C 
HETATM   31  N6  UNL     1      51.130  27.676 -24.803  1.00  0.00    -0.280 N 
ATOM     32  H6  UNL     1      50.419  28.263 -25.241  1.00  0.00     0.193 HD
BRANCH  31  33
HETATM   33  O5  UNL     1      52.050  28.237 -23.952  1.00  0.00    -0.290 OA
ATOM     34  H5  UNL     1      52.618  28.936 -24.253  1.00  0.00     0.244 HD
ENDBRANCH  31  33
ENDBRANCH  27  30
ENDBRANCH  21  24
ENDBRANCH  17  20
ENDBRANCH  11  14
ENDBRANCH   4  11
BRANCH   5  35
HETATM   35  C19 UNL     1      42.493  22.672 -31.887  1.00  0.00     0.292 C 
HETATM   36  O6  UNL     1      42.615  23.842 -32.396  1.00  0.00    -0.263 OA
BRANCH  35  37
HETATM   37  O7  UNL     1      42.799  22.568 -30.557  1.00  0.00    -0.309 OA
BRANCH  37  38
HETATM   38  C20 UNL     1      43.220  23.656 -29.759  1.00  0.00     0.291 C 
BRANCH  38  39
HETATM   39  C21 UNL     1      42.702  23.536 -28.370  1.00  0.00     0.198 C 
HETATM   40  O8  UNL     1      43.082  24.288 -27.442  1.00  0.00    -0.646 OA
HETATM   41  O9  UNL     1      41.759  22.545 -28.113  1.00  0.00    -0.646 OA
ENDBRANCH  38  39
ENDBRANCH  37  38
ENDBRANCH  35  37
ENDBRANCH   5  35
BRANCH   6  42
HETATM   42  O10 UNL     1      40.221  22.946 -33.261  1.00  0.00    -0.385 OA
ATOM     43  H10 UNL     1      40.359  23.209 -34.163  1.00  0.00     0.210 HD
ENDBRANCH   6  42
BRANCH   1  44
HETATM   44  C1  UNL     1      39.370  18.762 -31.048  1.00  0.00     0.137 C 
HETATM   45  N1  UNL     1      38.365  18.925 -30.303  1.00  0.00    -0.382 N 
ATOM     46  H12 UNL     1      37.715  18.179 -30.056  1.00  0.00     0.158 HD
ATOM     47  H11 UNL     1      38.191  19.855 -29.924  1.00  0.00     0.158 HD
BRANCH  44  48
HETATM   48  O1  UNL     1      39.608  17.491 -31.565  1.00  0.00    -0.348 OA
ATOM     49  H1  UNL     1      39.190  17.254 -32.385  1.00  0.00     0.219 HD
ENDBRANCH  44  48
ENDBRANCH   1  44
TORSDOF 15
ENDMDL
