MODEL 1
REMARK VINA RESULT: -8.425243744      0.000      0.000
REMARK  7 active torsions:
REMARK  status: ('A' for Active; 'I' for Inactive)
REMARK    1  A    between atoms: N3_4  and  N4_6 
REMARK    2  A    between atoms: N4_6  and  C2_8 
REMARK    3  A    between atoms: C2_8  and  C3_9 
REMARK    4  A    between atoms: C6_12  and  O1_13 
REMARK    5  A    between atoms: O1_13  and  S1_14 
REMARK    6  A    between atoms: S1_14  and  C7_17 
REMARK    7  A    between atoms: C8_18  and  C9_19 
ROOT
HETATM    1  C3  UNL     1      -1.077   7.245  12.274  1.00  0.00    -0.039 A 
HETATM    2  C4  UNL     1      -0.885   5.932  12.699  1.00  0.00     0.011 A 
HETATM    3  C5  UNL     1      -1.740   5.322  13.594  1.00  0.00     0.039 A 
HETATM    4  C6  UNL     1      -2.821   6.024  14.090  1.00  0.00     0.089 A 
HETATM    5  C13 UNL     1      -2.997   7.315  13.663  1.00  0.00     0.039 A 
HETATM    6  C14 UNL     1      -2.152   7.953  12.763  1.00  0.00     0.011 A 
ENDROOT
BRANCH   4   7
HETATM    7  O1  UNL     1      -3.709   5.424  15.006  1.00  0.00    -0.230 OA
BRANCH   7   8
HETATM    8  S1  UNL     1      -3.816   6.233  16.550  1.00  0.00     0.293 S 
HETATM    9  O2  UNL     1      -4.783   7.352  16.291  1.00  0.00    -0.194 OA
HETATM   10  O3  UNL     1      -4.355   5.219  17.529  1.00  0.00    -0.194 OA
BRANCH   8  11
HETATM   11  C7  UNL     1      -2.258   6.737  17.068  1.00  0.00     0.141 C 
HETATM   12  C8  UNL     1      -1.168   6.066  17.298  1.00  0.00     0.043 C 
BRANCH  12  13
HETATM   13  C9  UNL     1      -0.868   4.669  17.206  1.00  0.00     0.032 A 
HETATM   14  C10 UNL     1       0.344   4.207  16.662  1.00  0.00     0.031 A 
HETATM   15  C11 UNL     1       0.354   2.835  16.702  1.00  0.00     0.019 A 
HETATM   16  C12 UNL     1      -0.830   2.441  17.263  1.00  0.00     0.088 A 
HETATM   17  N5  UNL     1      -1.525   3.586  17.546  1.00  0.00    -0.366 N 
ATOM     18  H5  UNL     1      -2.451   3.595  17.975  1.00  0.00     0.165 HD
ENDBRANCH  12  13
ENDBRANCH   8  11
ENDBRANCH   7   8
ENDBRANCH   4   7
BRANCH   1  19
HETATM   19  C2  UNL     1      -0.165   7.903  11.324  1.00  0.00     0.177 C 
BRANCH  19  20
HETATM   20  N4  UNL     1      -0.681   9.218  11.015  1.00  0.00    -0.330 N 
ATOM     21  H4  UNL     1      -1.637   9.455  11.281  1.00  0.00     0.180 HD
BRANCH  20  22
HETATM   22  N3  UNL     1       0.099  10.159  10.365  1.00  0.00    -0.280 N 
HETATM   23  C1  UNL     1      -0.212  10.536   9.187  1.00  0.00     0.215 C 
HETATM   24  N1  UNL     1      -1.345  10.003   8.532  1.00  0.00    -0.065 NA
HETATM   25  N2  UNL     1       0.588  11.497   8.528  1.00  0.00    -0.065 NA
ATOM     26  H3  UNL     1       0.920  10.550  10.828  1.00  0.00     0.189 HD
ENDBRANCH  20  22
ENDBRANCH  19  20
ENDBRANCH   1  19
TORSDOF 7
ENDMDL
MODEL 2
REMARK VINA RESULT: -8.406626134      2.747      3.535
REMARK  7 active torsions:
REMARK  status: ('A' for Active; 'I' for Inactive)
REMARK    1  A    between atoms: N3_4  and  N4_6 
REMARK    2  A    between atoms: N4_6  and  C2_8 
REMARK    3  A    between atoms: C2_8  and  C3_9 
REMARK    4  A    between atoms: C6_12  and  O1_13 
REMARK    5  A    between atoms: O1_13  and  S1_14 
REMARK    6  A    between atoms: S1_14  and  C7_17 
REMARK    7  A    between atoms: C8_18  and  C9_19 
ROOT
HETATM    1  C3  UNL     1      -1.314   8.324  11.818  1.00  0.00    -0.039 A 
HETATM    2  C4  UNL     1      -0.352   7.364  11.514  1.00  0.00     0.011 A 
HETATM    3  C5  UNL     1       0.261   6.609  12.492  1.00  0.00     0.039 A 
HETATM    4  C6  UNL     1      -0.081   6.803  13.817  1.00  0.00     0.089 A 
HETATM    5  C13 UNL     1      -1.030   7.751  14.102  1.00  0.00     0.039 A 
HETATM    6  C14 UNL     1      -1.663   8.523  13.136  1.00  0.00     0.011 A 
ENDROOT
BRANCH   4   7
HETATM    7  O1  UNL     1       0.531   6.044  14.835  1.00  0.00    -0.230 OA
BRANCH   7   8
HETATM    8  S1  UNL     1       0.242   4.325  14.733  1.00  0.00     0.293 S 
HETATM    9  O2  UNL     1       1.490   3.798  14.087  1.00  0.00    -0.194 OA
HETATM   10  O3  UNL     1       0.074   3.833  16.150  1.00  0.00    -0.194 OA
BRANCH   8  11
HETATM   11  C7  UNL     1      -1.203   4.014  13.859  1.00  0.00     0.141 C 
HETATM   12  C8  UNL     1      -2.442   4.326  14.105  1.00  0.00     0.043 C 
BRANCH  12  13
HETATM   13  C9  UNL     1      -3.053   5.038  15.187  1.00  0.00     0.032 A 
HETATM   14  C10 UNL     1      -4.023   6.032  14.966  1.00  0.00     0.031 A 
HETATM   15  C11 UNL     1      -4.425   6.536  16.177  1.00  0.00     0.019 A 
HETATM   16  C12 UNL     1      -3.721   5.871  17.143  1.00  0.00     0.088 A 
HETATM   17  N5  UNL     1      -2.912   4.982  16.490  1.00  0.00    -0.366 N 
ATOM     18  H5  UNL     1      -2.270   4.346  16.964  1.00  0.00     0.165 HD
ENDBRANCH  12  13
ENDBRANCH   8  11
ENDBRANCH   7   8
ENDBRANCH   4   7
BRANCH   1  19
HETATM   19  C2  UNL     1      -1.968   9.137  10.779  1.00  0.00     0.177 C 
BRANCH  19  20
HETATM   20  N4  UNL     1      -1.460  10.488  10.856  1.00  0.00    -0.330 N 
ATOM     21  H4  UNL     1      -1.957  11.178  11.420  1.00  0.00     0.180 HD
BRANCH  20  22
HETATM   22  N3  UNL     1      -0.314  10.863  10.177  1.00  0.00    -0.280 N 
HETATM   23  C1  UNL     1      -0.387  11.209   8.952  1.00  0.00     0.215 C 
HETATM   24  N1  UNL     1      -1.626  11.216   8.274  1.00  0.00    -0.065 NA
HETATM   25  N2  UNL     1       0.788  11.590   8.263  1.00  0.00    -0.065 NA
ATOM     26  H3  UNL     1       0.588  10.861  10.655  1.00  0.00     0.189 HD
ENDBRANCH  20  22
ENDBRANCH  19  20
ENDBRANCH   1  19
TORSDOF 7
ENDMDL
MODEL 3
REMARK VINA RESULT: -8.259138808      2.613      3.720
REMARK  7 active torsions:
REMARK  status: ('A' for Active; 'I' for Inactive)
REMARK    1  A    between atoms: N3_4  and  N4_6 
REMARK    2  A    between atoms: N4_6  and  C2_8 
REMARK    3  A    between atoms: C2_8  and  C3_9 
REMARK    4  A    between atoms: C6_12  and  O1_13 
REMARK    5  A    between atoms: O1_13  and  S1_14 
REMARK    6  A    between atoms: S1_14  and  C7_17 
REMARK    7  A    between atoms: C8_18  and  C9_19 
ROOT
HETATM    1  C3  UNL     1      -1.061   8.046  12.152  1.00  0.00    -0.039 A 
HETATM    2  C4  UNL     1      -1.062   8.073  13.545  1.00  0.00     0.011 A 
HETATM    3  C5  UNL     1      -0.383   7.136  14.295  1.00  0.00     0.039 A 
HETATM    4  C6  UNL     1       0.323   6.134  13.656  1.00  0.00     0.089 A 
HETATM    5  C13 UNL     1       0.316   6.119  12.285  1.00  0.00     0.039 A 
HETATM    6  C14 UNL     1      -0.359   7.052  11.507  1.00  0.00     0.011 A 
ENDROOT
BRANCH   4   7
HETATM    7  O1  UNL     1       1.025   5.164  14.399  1.00  0.00    -0.230 OA
BRANCH   7   8
HETATM    8  S1  UNL     1       0.018   3.931  15.118  1.00  0.00     0.293 S 
HETATM    9  O2  UNL     1       0.952   2.767  15.279  1.00  0.00    -0.194 OA
HETATM   10  O3  UNL     1      -0.453   4.481  16.442  1.00  0.00    -0.194 OA
BRANCH   8  11
HETATM   11  C7  UNL     1      -1.347   3.623  14.122  1.00  0.00     0.141 C 
HETATM   12  C8  UNL     1      -2.570   4.064  14.177  1.00  0.00     0.043 C 
BRANCH  12  13
HETATM   13  C9  UNL     1      -3.223   4.963  15.081  1.00  0.00     0.032 A 
HETATM   14  C10 UNL     1      -3.963   6.067  14.621  1.00  0.00     0.031 A 
HETATM   15  C11 UNL     1      -4.469   6.743  15.702  1.00  0.00     0.019 A 
HETATM   16  C12 UNL     1      -4.057   6.075  16.822  1.00  0.00     0.088 A 
HETATM   17  N5  UNL     1      -3.311   5.013  16.388  1.00  0.00    -0.366 N 
ATOM     18  H5  UNL     1      -2.872   4.336  17.013  1.00  0.00     0.165 HD
ENDBRANCH  12  13
ENDBRANCH   8  11
ENDBRANCH   7   8
ENDBRANCH   4   7
BRANCH   1  19
HETATM   19  C2  UNL     1      -1.788   9.040  11.347  1.00  0.00     0.177 C 
BRANCH  19  20
HETATM   20  N4  UNL     1      -0.855  10.045  10.889  1.00  0.00    -0.330 N 
ATOM     21  H4  UNL     1      -0.263  10.525  11.567  1.00  0.00     0.180 HD
BRANCH  20  22
HETATM   22  N3  UNL     1      -0.749  10.366   9.547  1.00  0.00    -0.280 N 
HETATM   23  C1  UNL     1       0.003  11.329   9.182  1.00  0.00     0.215 C 
HETATM   24  N1  UNL     1       0.732  12.077  10.133  1.00  0.00    -0.065 NA
HETATM   25  N2  UNL     1       0.106  11.653   7.810  1.00  0.00    -0.065 NA
ATOM     26  H3  UNL     1      -1.272   9.833   8.851  1.00  0.00     0.189 HD
ENDBRANCH  20  22
ENDBRANCH  19  20
ENDBRANCH   1  19
TORSDOF 7
ENDMDL
MODEL 4
REMARK VINA RESULT: -8.237467800      2.429      3.400
REMARK  7 active torsions:
REMARK  status: ('A' for Active; 'I' for Inactive)
REMARK    1  A    between atoms: N3_4  and  N4_6 
REMARK    2  A    between atoms: N4_6  and  C2_8 
REMARK    3  A    between atoms: C2_8  and  C3_9 
REMARK    4  A    between atoms: C6_12  and  O1_13 
REMARK    5  A    between atoms: O1_13  and  S1_14 
REMARK    6  A    between atoms: S1_14  and  C7_17 
REMARK    7  A    between atoms: C8_18  and  C9_19 
ROOT
HETATM    1  C3  UNL     1      -1.237   8.178  11.896  1.00  0.00    -0.039 A 
HETATM    2  C4  UNL     1      -0.215   7.283  11.587  1.00  0.00     0.011 A 
HETATM    3  C5  UNL     1       0.389   6.502  12.551  1.00  0.00     0.039 A 
HETATM    4  C6  UNL     1      -0.024   6.603  13.866  1.00  0.00     0.089 A 
HETATM    5  C13 UNL     1      -1.031   7.488  14.155  1.00  0.00     0.039 A 
HETATM    6  C14 UNL     1      -1.656   8.285  13.203  1.00  0.00     0.011 A 
ENDROOT
BRANCH   4   7
HETATM    7  O1  UNL     1       0.576   5.817  14.870  1.00  0.00    -0.230 OA
BRANCH   7   8
HETATM    8  S1  UNL     1      -0.041   4.187  14.982  1.00  0.00     0.293 S 
HETATM    9  O2  UNL     1      -0.947   4.075  13.791  1.00  0.00    -0.194 OA
HETATM   10  O3  UNL     1       1.153   3.269  14.888  1.00  0.00    -0.194 OA
BRANCH   8  11
HETATM   11  C7  UNL     1      -0.814   3.945  16.496  1.00  0.00     0.141 C 
HETATM   12  C8  UNL     1      -1.912   4.437  16.991  1.00  0.00     0.043 C 
BRANCH  12  13
HETATM   13  C9  UNL     1      -2.874   5.355  16.458  1.00  0.00     0.032 A 
HETATM   14  C10 UNL     1      -3.616   5.061  15.300  1.00  0.00     0.031 A 
HETATM   15  C11 UNL     1      -4.451   6.115  15.028  1.00  0.00     0.019 A 
HETATM   16  C12 UNL     1      -4.239   7.055  16.000  1.00  0.00     0.088 A 
HETATM   17  N5  UNL     1      -3.281   6.544  16.832  1.00  0.00    -0.366 N 
ATOM     18  H5  UNL     1      -2.924   7.034  17.653  1.00  0.00     0.165 HD
ENDBRANCH  12  13
ENDBRANCH   8  11
ENDBRANCH   7   8
ENDBRANCH   4   7
BRANCH   1  19
HETATM   19  C2  UNL     1      -1.880   9.017  10.872  1.00  0.00     0.177 C 
BRANCH  19  20
HETATM   20  N4  UNL     1      -1.328  10.351  10.947  1.00  0.00    -0.330 N 
ATOM     21  H4  UNL     1      -1.794  11.054  11.522  1.00  0.00     0.180 HD
BRANCH  20  22
HETATM   22  N3  UNL     1      -0.179  10.692  10.254  1.00  0.00    -0.280 N 
HETATM   23  C1  UNL     1      -0.267  11.156   9.070  1.00  0.00     0.215 C 
HETATM   24  N1  UNL     1      -1.526  11.328   8.452  1.00  0.00    -0.065 NA
HETATM   25  N2  UNL     1       0.909  11.501   8.366  1.00  0.00    -0.065 NA
ATOM     26  H3  UNL     1       0.735  10.571  10.690  1.00  0.00     0.189 HD
ENDBRANCH  20  22
ENDBRANCH  19  20
ENDBRANCH   1  19
TORSDOF 7
ENDMDL
MODEL 5
REMARK VINA RESULT: -8.199790600      2.481      3.579
REMARK  7 active torsions:
REMARK  status: ('A' for Active; 'I' for Inactive)
REMARK    1  A    between atoms: N3_4  and  N4_6 
REMARK    2  A    between atoms: N4_6  and  C2_8 
REMARK    3  A    between atoms: C2_8  and  C3_9 
REMARK    4  A    between atoms: C6_12  and  O1_13 
REMARK    5  A    between atoms: O1_13  and  S1_14 
REMARK    6  A    between atoms: S1_14  and  C7_17 
REMARK    7  A    between atoms: C8_18  and  C9_19 
ROOT
HETATM    1  C3  UNL     1      -1.246   7.095  12.878  1.00  0.00    -0.039 A 
HETATM    2  C4  UNL     1      -0.888   7.478  14.168  1.00  0.00     0.011 A 
HETATM    3  C5  UNL     1      -0.220   6.627  15.024  1.00  0.00     0.039 A 
HETATM    4  C6  UNL     1       0.109   5.354  14.599  1.00  0.00     0.089 A 
HETATM    5  C13 UNL     1      -0.250   4.991  13.327  1.00  0.00     0.039 A 
HETATM    6  C14 UNL     1      -0.922   5.828  12.445  1.00  0.00     0.011 A 
ENDROOT
BRANCH   4   7
HETATM    7  O1  UNL     1       0.792   4.465  15.454  1.00  0.00    -0.230 OA
BRANCH   7   8
HETATM    8  S1  UNL     1      -0.212   3.714  16.670  1.00  0.00     0.293 S 
HETATM    9  O2  UNL     1       0.741   2.814  17.402  1.00  0.00    -0.194 OA
HETATM   10  O3  UNL     1      -0.737   4.829  17.541  1.00  0.00    -0.194 OA
BRANCH   8  11
HETATM   11  C7  UNL     1      -1.537   2.907  15.934  1.00  0.00     0.141 C 
HETATM   12  C8  UNL     1      -2.715   3.331  15.580  1.00  0.00     0.043 C 
BRANCH  12  13
HETATM   13  C9  UNL     1      -3.336   4.619  15.675  1.00  0.00     0.032 A 
HETATM   14  C10 UNL     1      -3.928   5.238  14.559  1.00  0.00     0.031 A 
HETATM   15  C11 UNL     1      -4.438   6.452  14.945  1.00  0.00     0.019 A 
HETATM   16  C12 UNL     1      -4.172   6.594  16.280  1.00  0.00     0.088 A 
HETATM   17  N5  UNL     1      -3.508   5.461  16.665  1.00  0.00    -0.366 N 
ATOM     18  H5  UNL     1      -3.183   5.291  17.617  1.00  0.00     0.165 HD
ENDBRANCH  12  13
ENDBRANCH   8  11
ENDBRANCH   7   8
ENDBRANCH   4   7
BRANCH   1  19
HETATM   19  C2  UNL     1      -1.965   7.997  11.963  1.00  0.00     0.177 C 
BRANCH  19  20
HETATM   20  N4  UNL     1      -1.249   9.250  11.884  1.00  0.00    -0.330 N 
ATOM     21  H4  UNL     1      -1.363   9.940  12.627  1.00  0.00     0.180 HD
BRANCH  20  22
HETATM   22  N3  UNL     1      -0.410   9.530  10.819  1.00  0.00    -0.280 N 
HETATM   23  C1  UNL     1      -0.870  10.125   9.789  1.00  0.00     0.215 C 
HETATM   24  N1  UNL     1      -2.229  10.504   9.719  1.00  0.00    -0.065 NA
HETATM   25  N2  UNL     1      -0.009  10.408   8.704  1.00  0.00    -0.065 NA
ATOM     26  H3  UNL     1       0.573   9.261  10.857  1.00  0.00     0.189 HD
ENDBRANCH  20  22
ENDBRANCH  19  20
ENDBRANCH   1  19
TORSDOF 7
ENDMDL
