MODEL 1
REMARK VINA RESULT: -8.075792150      0.000      0.000
REMARK  8 active torsions:
REMARK  status: ('A' for Active; 'I' for Inactive)
REMARK    1  A    between atoms: C2_2  and  C3_3 
REMARK    2  A    between atoms: C3_3  and  C5_6 
REMARK    3  A    between atoms: C5_6  and  N1_7 
REMARK    4  A    between atoms: C5_6  and  C6_11 
REMARK       I    between atoms: C6_11  and  N2_13 
REMARK    5  A    between atoms: N3_16  and  C9_17 
REMARK    6  A    between atoms: C9_17  and  C10_18 
REMARK       I    between atoms: N4_22  and  C14_23 
REMARK    7  A    between atoms: C14_23  and  C15_25 
REMARK    8  A    between atoms: C17_30  and  C18_31 
ROOT
HETATM    1  C10 UNL     1      16.453   6.331  24.993  1.00  0.00     0.032 C 
HETATM    2  C11 UNL     1      16.778   4.892  25.343  1.00  0.00     0.009 C 
HETATM    3  C12 UNL     1      15.860   3.965  24.557  1.00  0.00     0.020 C 
HETATM    4  C13 UNL     1      14.432   4.481  24.611  1.00  0.00     0.126 C 
HETATM    5  N4  UNL     1      14.344   5.336  25.747  1.00  0.00    -0.345 N 
HETATM    6  C14 UNL     1      13.677   5.101  26.961  1.00  0.00     0.287 C 
HETATM    7  O2  UNL     1      13.719   6.014  27.851  1.00  0.00    -0.264 OA
HETATM    8  C19 UNL     1      15.069   6.618  25.595  1.00  0.00     0.132 C 
ENDROOT
BRANCH   1   9
HETATM    9  C9  UNL     1      17.404   7.273  25.689  1.00  0.00     0.278 C 
BRANCH   9  10
HETATM   10  N3  UNL     1      17.293   8.636  25.284  1.00  0.00     0.092 N 
HETATM   11  C8  UNL     1      18.462   9.350  25.749  1.00  0.00     0.292 C 
HETATM   12  C7  UNL     1      18.136  10.679  26.388  1.00  0.00     0.156 C 
HETATM   13  N2  UNL     1      17.238  10.335  27.524  1.00  0.00    -0.347 N 
HETATM   14  C6  UNL     1      17.679  10.634  28.809  1.00  0.00     0.252 C 
HETATM   15  C21 UNL     1      16.015   9.717  27.108  1.00  0.00     0.156 C 
HETATM   16  O1  UNL     1      18.850  11.183  28.881  1.00  0.00    -0.271 OA
HETATM   17  C20 UNL     1      16.086   9.303  25.625  1.00  0.00     0.292 C 
BRANCH  14  18
HETATM   18  C5  UNL     1      17.038  10.430  30.114  1.00  0.00     0.297 C 
BRANCH  18  19
HETATM   19  C3  UNL     1      17.025   9.025  30.599  1.00  0.00     0.070 C 
HETATM   20  C4  UNL     1      17.191   9.050  32.130  1.00  0.00     0.035 C 
HETATM   21 CL1  UNL     1      15.400   8.283  30.284  1.00  0.00    -0.117 Cl
BRANCH  19  22
HETATM   22  C2  UNL     1      18.019   8.080  30.050  1.00  0.00     0.023 C 
HETATM   23  C1  UNL     1      17.482   6.874  29.333  1.00  0.00     0.007 C 
ENDBRANCH  19  22
ENDBRANCH  18  19
BRANCH  18  24
HETATM   24  N1  UNL     1      17.493  11.339  31.102  1.00  0.00    -0.065 N 
ATOM     25  H13 UNL     1      17.013  11.188  31.989  1.00  0.00     0.275 HD
ATOM     26  H12 UNL     1      18.446  11.119  31.392  1.00  0.00     0.275 HD
ATOM     27  H11 UNL     1      17.415  12.311  30.802  1.00  0.00     0.275 HD
ENDBRANCH  18  24
ENDBRANCH  14  18
ENDBRANCH   9  10
ENDBRANCH   1   9
BRANCH   6  28
HETATM   28  C15 UNL     1      12.936   3.893  27.291  1.00  0.00     0.176 A 
HETATM   29  N5  UNL     1      11.624   3.651  27.267  1.00  0.00    -0.326 N 
HETATM   30  C16 UNL     1      11.396   2.394  27.646  1.00  0.00     0.139 A 
ATOM     31  H5  UNL     1      10.906   4.325  27.001  1.00  0.00     0.168 HD
HETATM   32 CL2  UNL     1       9.823   1.580  27.783  1.00  0.00    -0.062 Cl
HETATM   33  C17 UNL     1      12.603   1.797  27.924  1.00  0.00     0.150 A 
HETATM   34  N6  UNL     1      13.527   2.739  27.698  1.00  0.00    -0.330 N 
ATOM     35  H6  UNL     1      14.532   2.609  27.813  1.00  0.00     0.168 HD
BRANCH  33  36
HETATM   36  C18 UNL     1      12.827   0.433  28.371  1.00  0.00     0.230 C 
HETATM   37  O3  UNL     1      13.676  -0.304  27.822  1.00  0.00    -0.643 OA
HETATM   38  O4  UNL     1      12.091  -0.063  29.419  1.00  0.00    -0.643 OA
ENDBRANCH  33  36
ENDBRANCH   6  28
TORSDOF 8
ENDMDL
MODEL 2
REMARK VINA RESULT: -7.916921921      1.141      1.437
REMARK  8 active torsions:
REMARK  status: ('A' for Active; 'I' for Inactive)
REMARK    1  A    between atoms: C2_2  and  C3_3 
REMARK    2  A    between atoms: C3_3  and  C5_6 
REMARK    3  A    between atoms: C5_6  and  N1_7 
REMARK    4  A    between atoms: C5_6  and  C6_11 
REMARK       I    between atoms: C6_11  and  N2_13 
REMARK    5  A    between atoms: N3_16  and  C9_17 
REMARK    6  A    between atoms: C9_17  and  C10_18 
REMARK       I    between atoms: N4_22  and  C14_23 
REMARK    7  A    between atoms: C14_23  and  C15_25 
REMARK    8  A    between atoms: C17_30  and  C18_31 
ROOT
HETATM    1  C10 UNL     1      16.678   6.831  25.028  1.00  0.00     0.032 C 
HETATM    2  C11 UNL     1      17.200   5.430  25.279  1.00  0.00     0.009 C 
HETATM    3  C12 UNL     1      16.411   4.442  24.431  1.00  0.00     0.020 C 
HETATM    4  C13 UNL     1      14.926   4.752  24.520  1.00  0.00     0.126 C 
HETATM    5  N4  UNL     1      14.732   5.508  25.712  1.00  0.00    -0.345 N 
HETATM    6  C14 UNL     1      14.114   5.100  26.906  1.00  0.00     0.287 C 
HETATM    7  O2  UNL     1      14.039   5.948  27.857  1.00  0.00    -0.264 OA
HETATM    8  C19 UNL     1      15.272   6.884  25.648  1.00  0.00     0.132 C 
ENDROOT
BRANCH   1   9
HETATM    9  C9  UNL     1      17.496   7.846  25.788  1.00  0.00     0.278 C 
BRANCH   9  10
HETATM   10  N3  UNL     1      17.180   9.205  25.493  1.00  0.00     0.092 N 
HETATM   11  C8  UNL     1      18.263  10.041  25.965  1.00  0.00     0.292 C 
HETATM   12  C7  UNL     1      17.791  11.262  26.718  1.00  0.00     0.156 C 
HETATM   13  N2  UNL     1      17.007  10.717  27.858  1.00  0.00    -0.347 N 
HETATM   14  C6  UNL     1      17.467  10.982  29.144  1.00  0.00     0.252 C 
HETATM   15  C21 UNL     1      15.860   9.966  27.445  1.00  0.00     0.156 C 
HETATM   16  O1  UNL     1      18.554  11.684  29.211  1.00  0.00    -0.271 OA
HETATM   17  C20 UNL     1      15.912   9.672  25.933  1.00  0.00     0.292 C 
BRANCH  14  18
HETATM   18  C5  UNL     1      16.926  10.599  30.454  1.00  0.00     0.297 C 
BRANCH  18  19
HETATM   19  C3  UNL     1      17.016   9.151  30.776  1.00  0.00     0.070 C 
HETATM   20  C4  UNL     1      17.236   9.015  32.294  1.00  0.00     0.035 C 
HETATM   21 CL1  UNL     1      15.429   8.346  30.427  1.00  0.00    -0.117 Cl
BRANCH  19  22
HETATM   22  C2  UNL     1      18.045   8.339  30.092  1.00  0.00     0.023 C 
HETATM   23  C1  UNL     1      17.568   7.110  29.371  1.00  0.00     0.007 C 
ENDBRANCH  19  22
ENDBRANCH  18  19
BRANCH  18  24
HETATM   24  N1  UNL     1      17.400  11.418  31.509  1.00  0.00    -0.065 N 
ATOM     25  H13 UNL     1      16.678  11.564  32.214  1.00  0.00     0.275 HD
ATOM     26  H12 UNL     1      18.087  10.923  32.078  1.00  0.00     0.275 HD
ATOM     27  H11 UNL     1      17.773  12.307  31.174  1.00  0.00     0.275 HD
ENDBRANCH  18  24
ENDBRANCH  14  18
ENDBRANCH   9  10
ENDBRANCH   1   9
BRANCH   6  28
HETATM   28  C15 UNL     1      13.549   3.782  27.152  1.00  0.00     0.176 A 
HETATM   29  N5  UNL     1      14.131   2.582  27.163  1.00  0.00    -0.326 N 
HETATM   30  C16 UNL     1      13.222   1.648  27.442  1.00  0.00     0.139 A 
ATOM     31  H5  UNL     1      15.120   2.406  26.986  1.00  0.00     0.168 HD
HETATM   32 CL2  UNL     1      13.484  -0.103  27.575  1.00  0.00    -0.062 Cl
HETATM   33  C17 UNL     1      12.005   2.265  27.617  1.00  0.00     0.150 A 
HETATM   34  N6  UNL     1      12.237   3.571  27.434  1.00  0.00    -0.330 N 
ATOM     35  H6  UNL     1      11.529   4.302  27.498  1.00  0.00     0.168 HD
BRANCH  33  36
HETATM   36  C18 UNL     1      10.737   1.631  27.934  1.00  0.00     0.230 C 
HETATM   37  O3  UNL     1       9.650   2.114  27.545  1.00  0.00    -0.643 OA
HETATM   38  O4  UNL     1      10.726   0.477  28.678  1.00  0.00    -0.643 OA
ENDBRANCH  33  36
ENDBRANCH   6  28
TORSDOF 8
ENDMDL
MODEL 3
REMARK VINA RESULT: -7.875440647      1.899      2.464
REMARK  8 active torsions:
REMARK  status: ('A' for Active; 'I' for Inactive)
REMARK    1  A    between atoms: C2_2  and  C3_3 
REMARK    2  A    between atoms: C3_3  and  C5_6 
REMARK    3  A    between atoms: C5_6  and  N1_7 
REMARK    4  A    between atoms: C5_6  and  C6_11 
REMARK       I    between atoms: C6_11  and  N2_13 
REMARK    5  A    between atoms: N3_16  and  C9_17 
REMARK    6  A    between atoms: C9_17  and  C10_18 
REMARK       I    between atoms: N4_22  and  C14_23 
REMARK    7  A    between atoms: C14_23  and  C15_25 
REMARK    8  A    between atoms: C17_30  and  C18_31 
ROOT
HETATM    1  C10 UNL     1      15.271   8.121  25.424  1.00  0.00     0.032 C 
HETATM    2  C11 UNL     1      14.823   7.856  26.848  1.00  0.00     0.009 C 
HETATM    3  C12 UNL     1      15.619   6.687  27.414  1.00  0.00     0.020 C 
HETATM    4  C13 UNL     1      15.689   5.564  26.394  1.00  0.00     0.126 C 
HETATM    5  N4  UNL     1      14.609   5.762  25.486  1.00  0.00    -0.345 N 
HETATM    6  C14 UNL     1      13.432   5.005  25.360  1.00  0.00     0.287 C 
HETATM    7  O2  UNL     1      12.591   5.356  24.467  1.00  0.00    -0.264 OA
HETATM    8  C19 UNL     1      14.780   6.927  24.590  1.00  0.00     0.132 C 
ENDROOT
BRANCH   1   9
HETATM    9  C9  UNL     1      14.563   9.329  24.863  1.00  0.00     0.278 C 
BRANCH   9  10
HETATM   10  N3  UNL     1      15.387  10.484  24.713  1.00  0.00     0.092 N 
HETATM   11  C8  UNL     1      16.758  10.110  24.987  1.00  0.00     0.292 C 
HETATM   12  C7  UNL     1      17.476  11.088  25.886  1.00  0.00     0.156 C 
HETATM   13  N2  UNL     1      16.670  11.106  27.136  1.00  0.00    -0.347 N 
HETATM   14  C6  UNL     1      17.287  10.677  28.308  1.00  0.00     0.252 C 
HETATM   15  C21 UNL     1      15.331  11.571  26.937  1.00  0.00     0.156 C 
HETATM   16  O1  UNL     1      18.517  10.294  28.179  1.00  0.00    -0.271 OA
HETATM   17  C20 UNL     1      14.993  11.642  25.435  1.00  0.00     0.292 C 
BRANCH  14  18
HETATM   18  C5  UNL     1      16.775  10.584  29.680  1.00  0.00     0.297 C 
BRANCH  18  19
HETATM   19  C3  UNL     1      17.015   9.281  30.356  1.00  0.00     0.070 C 
HETATM   20  C4  UNL     1      15.672   8.531  30.432  1.00  0.00     0.035 C 
HETATM   21 CL1  UNL     1      18.105   8.253  29.335  1.00  0.00    -0.117 Cl
BRANCH  19  22
HETATM   22  C2  UNL     1      17.609   9.288  31.709  1.00  0.00     0.023 C 
HETATM   23  C1  UNL     1      16.659   9.170  32.867  1.00  0.00     0.007 C 
ENDBRANCH  19  22
ENDBRANCH  18  19
BRANCH  18  24
HETATM   24  N1  UNL     1      17.149  11.688  30.487  1.00  0.00    -0.065 N 
ATOM     25  H13 UNL     1      16.432  11.894  31.182  1.00  0.00     0.275 HD
ATOM     26  H12 UNL     1      17.917  11.443  31.112  1.00  0.00     0.275 HD
ATOM     27  H11 UNL     1      17.375  12.515  29.933  1.00  0.00     0.275 HD
ENDBRANCH  18  24
ENDBRANCH  14  18
ENDBRANCH   9  10
ENDBRANCH   1   9
BRANCH   6  28
HETATM   28  C15 UNL     1      13.089   3.845  26.169  1.00  0.00     0.176 A 
HETATM   29  N5  UNL     1      13.770   2.721  26.398  1.00  0.00    -0.326 N 
HETATM   30  C16 UNL     1      13.068   1.934  27.212  1.00  0.00     0.139 A 
ATOM     31  H5  UNL     1      14.686   2.498  26.009  1.00  0.00     0.168 HD
HETATM   32 CL2  UNL     1      13.530   0.330  27.821  1.00  0.00    -0.062 Cl
HETATM   33  C17 UNL     1      11.889   2.570  27.523  1.00  0.00     0.150 A 
HETATM   34  N6  UNL     1      11.930   3.738  26.871  1.00  0.00    -0.330 N 
ATOM     35  H6  UNL     1      11.197   4.446  26.897  1.00  0.00     0.168 HD
BRANCH  33  36
HETATM   36  C18 UNL     1      10.824   2.077  28.380  1.00  0.00     0.230 C 
HETATM   37  O3  UNL     1      11.016   1.844  29.594  1.00  0.00    -0.643 OA
HETATM   38  O4  UNL     1       9.576   1.860  27.848  1.00  0.00    -0.643 OA
ENDBRANCH  33  36
ENDBRANCH   6  28
TORSDOF 8
ENDMDL
MODEL 4
REMARK VINA RESULT: -7.778289523      1.809      2.305
REMARK  8 active torsions:
REMARK  status: ('A' for Active; 'I' for Inactive)
REMARK    1  A    between atoms: C2_2  and  C3_3 
REMARK    2  A    between atoms: C3_3  and  C5_6 
REMARK    3  A    between atoms: C5_6  and  N1_7 
REMARK    4  A    between atoms: C5_6  and  C6_11 
REMARK       I    between atoms: C6_11  and  N2_13 
REMARK    5  A    between atoms: N3_16  and  C9_17 
REMARK    6  A    between atoms: C9_17  and  C10_18 
REMARK       I    between atoms: N4_22  and  C14_23 
REMARK    7  A    between atoms: C14_23  and  C15_25 
REMARK    8  A    between atoms: C17_30  and  C18_31 
ROOT
HETATM    1  C10 UNL     1      15.091   8.177  25.084  1.00  0.00     0.032 C 
HETATM    2  C11 UNL     1      14.827   7.899  26.551  1.00  0.00     0.009 C 
HETATM    3  C12 UNL     1      15.655   6.700  26.991  1.00  0.00     0.020 C 
HETATM    4  C13 UNL     1      15.556   5.593  25.954  1.00  0.00     0.126 C 
HETATM    5  N4  UNL     1      14.372   5.838  25.200  1.00  0.00    -0.345 N 
HETATM    6  C14 UNL     1      13.167   5.115  25.220  1.00  0.00     0.287 C 
HETATM    7  O2  UNL     1      12.227   5.505  24.451  1.00  0.00    -0.264 OA
HETATM    8  C19 UNL     1      14.459   7.013  24.305  1.00  0.00     0.132 C 
ENDROOT
BRANCH   1   9
HETATM    9  C9  UNL     1      14.352   9.415  24.638  1.00  0.00     0.278 C 
BRANCH   9  10
HETATM   10  N3  UNL     1      15.172  10.570  24.472  1.00  0.00     0.092 N 
HETATM   11  C8  UNL     1      16.550  10.191  24.699  1.00  0.00     0.292 C 
HETATM   12  C7  UNL     1      17.299  11.161  25.582  1.00  0.00     0.156 C 
HETATM   13  N2  UNL     1      16.534  11.170  26.858  1.00  0.00    -0.347 N 
HETATM   14  C6  UNL     1      17.186  10.730  28.006  1.00  0.00     0.252 C 
HETATM   15  C21 UNL     1      15.189  11.638  26.706  1.00  0.00     0.156 C 
HETATM   16  O1  UNL     1      18.411  10.346  27.835  1.00  0.00    -0.271 OA
HETATM   17  C20 UNL     1      14.804  11.722  25.216  1.00  0.00     0.292 C 
BRANCH  14  18
HETATM   18  C5  UNL     1      16.719  10.625  29.393  1.00  0.00     0.297 C 
BRANCH  18  19
HETATM   19  C3  UNL     1      17.002   9.326  30.059  1.00  0.00     0.070 C 
HETATM   20  C4  UNL     1      17.405   9.617  31.517  1.00  0.00     0.035 C 
HETATM   21 CL1  UNL     1      15.482   8.340  30.148  1.00  0.00    -0.117 Cl
BRANCH  19  22
HETATM   22  C2  UNL     1      18.029   8.442  29.471  1.00  0.00     0.023 C 
HETATM   23  C1  UNL     1      17.935   6.979  29.804  1.00  0.00     0.007 C 
ENDBRANCH  19  22
ENDBRANCH  18  19
BRANCH  18  24
HETATM   24  N1  UNL     1      17.098  11.734  30.190  1.00  0.00    -0.065 N 
ATOM     25  H13 UNL     1      17.772  11.460  30.904  1.00  0.00     0.275 HD
ATOM     26  H12 UNL     1      17.677  12.386  29.660  1.00  0.00     0.275 HD
ATOM     27  H11 UNL     1      16.295  12.208  30.604  1.00  0.00     0.275 HD
ENDBRANCH  18  24
ENDBRANCH  14  18
ENDBRANCH   9  10
ENDBRANCH   1   9
BRANCH   6  28
HETATM   28  C15 UNL     1      12.899   3.951  26.051  1.00  0.00     0.176 A 
HETATM   29  N5  UNL     1      13.638   2.864  26.277  1.00  0.00    -0.326 N 
HETATM   30  C16 UNL     1      12.995   2.055  27.118  1.00  0.00     0.139 A 
ATOM     31  H5  UNL     1      14.555   2.680  25.869  1.00  0.00     0.168 HD
HETATM   32 CL2  UNL     1      13.547   0.483  27.734  1.00  0.00    -0.062 Cl
HETATM   33  C17 UNL     1      11.794   2.638  27.449  1.00  0.00     0.150 A 
HETATM   34  N6  UNL     1      11.764   3.798  26.782  1.00  0.00    -0.330 N 
ATOM     35  H6  UNL     1      10.999   4.471  26.817  1.00  0.00     0.168 HD
BRANCH  33  36
HETATM   36  C18 UNL     1      10.775   2.106  28.337  1.00  0.00     0.230 C 
HETATM   37  O3  UNL     1      11.019   1.858  29.539  1.00  0.00    -0.643 OA
HETATM   38  O4  UNL     1       9.512   1.869  27.850  1.00  0.00    -0.643 OA
ENDBRANCH  33  36
ENDBRANCH   6  28
TORSDOF 8
ENDMDL
MODEL 5
REMARK VINA RESULT: -7.680250631      1.561      2.066
REMARK  8 active torsions:
REMARK  status: ('A' for Active; 'I' for Inactive)
REMARK    1  A    between atoms: C2_2  and  C3_3 
REMARK    2  A    between atoms: C3_3  and  C5_6 
REMARK    3  A    between atoms: C5_6  and  N1_7 
REMARK    4  A    between atoms: C5_6  and  C6_11 
REMARK       I    between atoms: C6_11  and  N2_13 
REMARK    5  A    between atoms: N3_16  and  C9_17 
REMARK    6  A    between atoms: C9_17  and  C10_18 
REMARK       I    between atoms: N4_22  and  C14_23 
REMARK    7  A    between atoms: C14_23  and  C15_25 
REMARK    8  A    between atoms: C17_30  and  C18_31 
ROOT
HETATM    1  C10 UNL     1      14.825   7.787  25.868  1.00  0.00     0.032 C 
HETATM    2  C11 UNL     1      14.210   7.567  27.236  1.00  0.00     0.009 C 
HETATM    3  C12 UNL     1      14.867   6.361  27.892  1.00  0.00     0.020 C 
HETATM    4  C13 UNL     1      14.980   5.222  26.892  1.00  0.00     0.126 C 
HETATM    5  N4  UNL     1      14.018   5.473  25.871  1.00  0.00    -0.345 N 
HETATM    6  C14 UNL     1      12.818   4.786  25.621  1.00  0.00     0.287 C 
HETATM    7  O2  UNL     1      12.102   5.175  24.640  1.00  0.00    -0.264 OA
HETATM    8  C19 UNL     1      14.356   6.615  24.992  1.00  0.00     0.132 C 
ENDROOT
BRANCH   1   9
HETATM    9  C9  UNL     1      14.257   9.028  25.225  1.00  0.00     0.278 C 
BRANCH   9  10
HETATM   10  N3  UNL     1      15.223  10.029  24.909  1.00  0.00     0.092 N 
HETATM   11  C8  UNL     1      16.544   9.466  25.087  1.00  0.00     0.292 C 
HETATM   12  C7  UNL     1      17.487  10.378  25.834  1.00  0.00     0.156 C 
HETATM   13  N2  UNL     1      16.825  10.604  27.147  1.00  0.00    -0.347 N 
HETATM   14  C6  UNL     1      17.487  10.162  28.289  1.00  0.00     0.252 C 
HETATM   15  C21 UNL     1      15.555  11.256  27.033  1.00  0.00     0.156 C 
HETATM   16  O1  UNL     1      18.627   9.585  28.081  1.00  0.00    -0.271 OA
HETATM   17  C20 UNL     1      15.081  11.280  25.567  1.00  0.00     0.292 C 
BRANCH  14  18
HETATM   18  C5  UNL     1      17.110  10.240  29.705  1.00  0.00     0.297 C 
BRANCH  18  19
HETATM   19  C3  UNL     1      17.064   8.937  30.419  1.00  0.00     0.070 C 
HETATM   20  C4  UNL     1      15.598   8.465  30.453  1.00  0.00     0.035 C 
HETATM   21 CL1  UNL     1      17.970   7.686  29.469  1.00  0.00    -0.117 Cl
BRANCH  19  22
HETATM   22  C2  UNL     1      17.595   8.868  31.796  1.00  0.00     0.023 C 
HETATM   23  C1  UNL     1      16.637   9.191  32.908  1.00  0.00     0.007 C 
ENDBRANCH  19  22
ENDBRANCH  18  19
BRANCH  18  24
HETATM   24  N1  UNL     1      17.842  11.221  30.420  1.00  0.00    -0.065 N 
ATOM     25  H13 UNL     1      17.358  11.490  31.276  1.00  0.00     0.275 HD
ATOM     26  H12 UNL     1      18.688  10.824  30.828  1.00  0.00     0.275 HD
ATOM     27  H11 UNL     1      18.058  12.038  29.847  1.00  0.00     0.275 HD
ENDBRANCH  18  24
ENDBRANCH  14  18
ENDBRANCH   9  10
ENDBRANCH   1   9
BRANCH   6  28
HETATM   28  C15 UNL     1      12.320   3.659  26.395  1.00  0.00     0.176 A 
HETATM   29  N5  UNL     1      11.069   3.286  26.669  1.00  0.00    -0.326 N 
HETATM   30  C16 UNL     1      11.087   2.180  27.413  1.00  0.00     0.139 A 
ATOM     31  H5  UNL     1      10.228   3.772  26.358  1.00  0.00     0.168 HD
HETATM   32 CL2  UNL     1       9.689   1.284  28.042  1.00  0.00    -0.062 Cl
HETATM   33  C17 UNL     1      12.397   1.822  27.629  1.00  0.00     0.150 A 
HETATM   34  N6  UNL     1      13.129   2.746  26.994  1.00  0.00    -0.330 N 
ATOM     35  H6  UNL     1      14.148   2.761  26.963  1.00  0.00     0.168 HD
BRANCH  33  36
HETATM   36  C18 UNL     1      12.883   0.682  28.388  1.00  0.00     0.230 C 
HETATM   37  O3  UNL     1      13.746  -0.094  27.921  1.00  0.00    -0.643 OA
HETATM   38  O4  UNL     1      12.386   0.447  29.646  1.00  0.00    -0.643 OA
ENDBRANCH  33  36
ENDBRANCH   6  28
TORSDOF 8
ENDMDL
