MODEL 1
REMARK VINA RESULT: -8.536254387      0.000      0.000
REMARK  6 active torsions:
REMARK  status: ('A' for Active; 'I' for Inactive)
REMARK    1  A    between atoms: C3_3  and  N1_4 
REMARK    2  A    between atoms: N1_4  and  C5_6 
REMARK    3  A    between atoms: C5_6  and  C6_7 
REMARK    4  A    between atoms: C6_7  and  N2_8 
REMARK    5  A    between atoms: C15_28  and  S1_29 
REMARK    6  A    between atoms: S1_29  and  N7_32 
ROOT
HETATM    1  C1  UNL     1      10.964  -0.080  32.016  1.00  0.00     0.013 C 
HETATM    2  C2  UNL     1      11.655  -0.214  31.034  1.00  0.00    -0.087 C 
HETATM    3  C3  UNL     1      12.463  -0.367  29.844  1.00  0.00     0.364 C 
ENDROOT
BRANCH   3   4
HETATM    4  N1  UNL     1      12.419   0.868  29.080  1.00  0.00     0.096 N 
HETATM    5  C4  UNL     1      11.148   0.862  28.360  1.00  0.00     0.311 C 
BRANCH   4   6
HETATM    6  C5  UNL     1      13.483   0.900  28.090  1.00  0.00     0.292 C 
BRANCH   6   7
HETATM    7  C6  UNL     1      13.056   1.641  26.851  1.00  0.00     0.151 C 
BRANCH   7   8
HETATM    8  N2  UNL     1      13.608   2.976  26.819  1.00  0.00    -0.373 N 
HETATM    9  C7  UNL     1      12.913   4.031  27.064  1.00  0.00     0.130 A 
HETATM   10  N3  UNL     1      11.623   4.163  27.381  1.00  0.00    -0.283 N 
HETATM   11  C18 UNL     1      13.465   5.302  27.028  1.00  0.00     0.058 A 
HETATM   12  N4  UNL     1      11.290   5.430  27.554  1.00  0.00    -0.282 N 
ATOM     13  H3  UNL     1      10.974   3.382  27.476  1.00  0.00     0.188 HD
HETATM   14  C8  UNL     1      12.406   6.151  27.343  1.00  0.00     0.149 A 
ATOM     15  H4  UNL     1      10.368   5.791  27.801  1.00  0.00     0.188 HD
HETATM   16  N5  UNL     1      12.661   7.471  27.382  1.00  0.00    -0.283 N 
HETATM   17  N6  UNL     1      13.880   7.900  27.124  1.00  0.00    -0.298 N 
ATOM     18  H5  UNL     1      11.919   8.133  27.608  1.00  0.00     0.188 HD
HETATM   19  C9  UNL     1      14.934   7.138  26.817  1.00  0.00     0.062 A 
ATOM     20  H6  UNL     1      14.034   8.908  27.162  1.00  0.00     0.187 HD
HETATM   21  C10 UNL     1      16.254   7.652  26.541  1.00  0.00     0.033 A 
HETATM   22  C17 UNL     1      14.724   5.786  26.765  1.00  0.00     0.051 A 
HETATM   23  C11 UNL     1      16.606   8.018  25.246  1.00  0.00     0.026 A 
HETATM   24  C15 UNL     1      17.140   7.755  27.613  1.00  0.00     0.095 A 
HETATM   25 BR1  UNL     1      15.278   7.819  23.883  1.00  0.00    -0.050 Br
HETATM   26  C12 UNL     1      17.863   8.500  24.993  1.00  0.00     0.044 A 
HETATM   27  C13 UNL     1      18.777   8.621  26.020  1.00  0.00     0.036 A 
HETATM   28 CL1  UNL     1      20.393   9.236  25.710  1.00  0.00    -0.084 Cl
HETATM   29  C14 UNL     1      18.396   8.248  27.292  1.00  0.00     0.050 A 
ATOM     30  H2  UNL     1      14.596   3.087  26.592  1.00  0.00     0.161 HD
BRANCH  24  31
HETATM   31  S1  UNL     1      16.707   7.305  29.219  1.00  0.00     0.259 S 
HETATM   32  O1  UNL     1      16.196   5.904  29.348  1.00  0.00    -0.201 OA
HETATM   33  O2  UNL     1      17.981   7.310  30.033  1.00  0.00    -0.201 OA
BRANCH  31  34
HETATM   34  N7  UNL     1      15.683   8.449  29.998  1.00  0.00    -0.320 N 
HETATM   35  C16 UNL     1      16.365   8.935  31.211  1.00  0.00     0.159 C 
ATOM     36  H7  UNL     1      14.760   8.740  29.675  1.00  0.00     0.171 HD
ENDBRANCH  31  34
ENDBRANCH  24  31
ENDBRANCH   7   8
ENDBRANCH   6   7
ENDBRANCH   4   6
ENDBRANCH   3   4
TORSDOF 6
ENDMDL
MODEL 2
REMARK VINA RESULT: -8.142304631      0.960      1.160
REMARK  6 active torsions:
REMARK  status: ('A' for Active; 'I' for Inactive)
REMARK    1  A    between atoms: C3_3  and  N1_4 
REMARK    2  A    between atoms: N1_4  and  C5_6 
REMARK    3  A    between atoms: C5_6  and  C6_7 
REMARK    4  A    between atoms: C6_7  and  N2_8 
REMARK    5  A    between atoms: C15_28  and  S1_29 
REMARK    6  A    between atoms: S1_29  and  N7_32 
ROOT
HETATM    1  C1  UNL     1      11.032  -0.434  31.898  1.00  0.00     0.013 C 
HETATM    2  C2  UNL     1      11.335   0.195  30.911  1.00  0.00    -0.087 C 
HETATM    3  C3  UNL     1      11.723   0.943  29.736  1.00  0.00     0.364 C 
ENDROOT
BRANCH   3   4
HETATM    4  N1  UNL     1      12.564   0.107  28.898  1.00  0.00     0.096 N 
HETATM    5  C4  UNL     1      13.615  -0.420  29.766  1.00  0.00     0.311 C 
BRANCH   4   6
HETATM    6  C5  UNL     1      13.208   0.897  27.861  1.00  0.00     0.292 C 
BRANCH   6   7
HETATM    7  C6  UNL     1      12.343   2.056  27.441  1.00  0.00     0.151 C 
BRANCH   7   8
HETATM    8  N2  UNL     1      13.128   3.254  27.246  1.00  0.00    -0.373 N 
HETATM    9  C7  UNL     1      12.607   4.424  27.125  1.00  0.00     0.130 A 
HETATM   10  N3  UNL     1      11.329   4.809  27.143  1.00  0.00    -0.283 N 
HETATM   11  C18 UNL     1      13.380   5.560  26.939  1.00  0.00     0.058 A 
HETATM   12  N4  UNL     1      11.209   6.115  26.982  1.00  0.00    -0.282 N 
ATOM     13  H3  UNL     1      10.541   4.172  27.266  1.00  0.00     0.188 HD
HETATM   14  C8  UNL     1      12.457   6.600  26.854  1.00  0.00     0.149 A 
ATOM     15  H4  UNL     1      10.341   6.650  26.960  1.00  0.00     0.188 HD
HETATM   16  N5  UNL     1      12.939   7.842  26.670  1.00  0.00    -0.283 N 
HETATM   17  N6  UNL     1      14.241   8.021  26.578  1.00  0.00    -0.298 N 
ATOM     18  H5  UNL     1      12.304   8.637  26.602  1.00  0.00     0.188 HD
HETATM   19  C9  UNL     1      15.174   7.067  26.652  1.00  0.00     0.062 A 
ATOM     20  H6  UNL     1      14.568   8.977  26.438  1.00  0.00     0.187 HD
HETATM   21  C10 UNL     1      16.593   7.310  26.545  1.00  0.00     0.033 A 
HETATM   22  C17 UNL     1      14.732   5.785  26.838  1.00  0.00     0.051 A 
HETATM   23  C11 UNL     1      17.212   7.306  25.299  1.00  0.00     0.026 A 
HETATM   24  C15 UNL     1      17.296   7.536  27.728  1.00  0.00     0.095 A 
HETATM   25 BR1  UNL     1      16.110   6.981  23.769  1.00  0.00    -0.050 Br
HETATM   26  C12 UNL     1      18.560   7.532  25.209  1.00  0.00     0.044 A 
HETATM   27  C13 UNL     1      19.300   7.761  26.350  1.00  0.00     0.036 A 
HETATM   28 CL1  UNL     1      21.031   8.051  26.249  1.00  0.00    -0.084 Cl
HETATM   29  C14 UNL     1      18.656   7.757  27.569  1.00  0.00     0.050 A 
ATOM     30  H2  UNL     1      14.143   3.167  27.202  1.00  0.00     0.161 HD
BRANCH  24  31
HETATM   31  S1  UNL     1      16.532   7.544  29.272  1.00  0.00     0.259 S 
HETATM   32  O1  UNL     1      15.166   8.154  29.279  1.00  0.00    -0.201 OA
HETATM   33  O2  UNL     1      16.294   6.099  29.649  1.00  0.00    -0.201 OA
BRANCH  31  34
HETATM   34  N7  UNL     1      17.533   8.165  30.527  1.00  0.00    -0.320 N 
HETATM   35  C16 UNL     1      16.688   8.929  31.463  1.00  0.00     0.159 C 
ATOM     36  H7  UNL     1      18.541   8.028  30.609  1.00  0.00     0.171 HD
ENDBRANCH  31  34
ENDBRANCH  24  31
ENDBRANCH   7   8
ENDBRANCH   6   7
ENDBRANCH   4   6
ENDBRANCH   3   4
TORSDOF 6
ENDMDL
MODEL 3
REMARK VINA RESULT: -8.054753060      1.952      2.151
REMARK  6 active torsions:
REMARK  status: ('A' for Active; 'I' for Inactive)
REMARK    1  A    between atoms: C3_3  and  N1_4 
REMARK    2  A    between atoms: N1_4  and  C5_6 
REMARK    3  A    between atoms: C5_6  and  C6_7 
REMARK    4  A    between atoms: C6_7  and  N2_8 
REMARK    5  A    between atoms: C15_28  and  S1_29 
REMARK    6  A    between atoms: S1_29  and  N7_32 
ROOT
HETATM    1  C1  UNL     1      10.661  -0.063  31.993  1.00  0.00     0.013 C 
HETATM    2  C2  UNL     1      11.525  -0.229  31.164  1.00  0.00    -0.087 C 
HETATM    3  C3  UNL     1      12.542  -0.438  30.158  1.00  0.00     0.364 C 
ENDROOT
BRANCH   3   4
HETATM    4  N1  UNL     1      12.091   0.136  28.902  1.00  0.00     0.096 N 
HETATM    5  C4  UNL     1      13.285   0.322  28.082  1.00  0.00     0.311 C 
BRANCH   4   6
HETATM    6  C5  UNL     1      11.499   1.446  29.118  1.00  0.00     0.292 C 
BRANCH   6   7
HETATM    7  C6  UNL     1      11.122   2.097  27.813  1.00  0.00     0.151 C 
BRANCH   7   8
HETATM    8  N2  UNL     1      12.156   2.997  27.355  1.00  0.00    -0.373 N 
HETATM    9  C7  UNL     1      11.950   3.922  26.486  1.00  0.00     0.130 A 
HETATM   10  N3  UNL     1      10.836   4.266  25.835  1.00  0.00    -0.283 N 
HETATM   11  C18 UNL     1      12.958   4.774  26.062  1.00  0.00     0.058 A 
HETATM   12  N4  UNL     1      11.042   5.282  25.016  1.00  0.00    -0.282 N 
ATOM     13  H3  UNL     1       9.936   3.801  25.957  1.00  0.00     0.188 HD
HETATM   14  C8  UNL     1      12.340   5.613  25.137  1.00  0.00     0.149 A 
ATOM     15  H4  UNL     1      10.352   5.728  24.411  1.00  0.00     0.188 HD
HETATM   16  N5  UNL     1      13.099   6.558  24.554  1.00  0.00    -0.283 N 
HETATM   17  N6  UNL     1      14.374   6.649  24.875  1.00  0.00    -0.298 N 
ATOM     18  H5  UNL     1      12.693   7.196  23.870  1.00  0.00     0.188 HD
HETATM   19  C9  UNL     1      15.022   5.877  25.752  1.00  0.00     0.062 A 
ATOM     20  H6  UNL     1      14.917   7.378  24.411  1.00  0.00     0.187 HD
HETATM   21  C10 UNL     1      16.422   6.014  26.073  1.00  0.00     0.033 A 
HETATM   22  C17 UNL     1      14.291   4.900  26.372  1.00  0.00     0.051 A 
HETATM   23  C11 UNL     1      17.381   5.337  25.327  1.00  0.00     0.026 A 
HETATM   24  C15 UNL     1      16.757   6.836  27.149  1.00  0.00     0.095 A 
HETATM   25 BR1  UNL     1      16.764   4.248  23.879  1.00  0.00    -0.050 Br
HETATM   26  C12 UNL     1      18.708   5.469  25.643  1.00  0.00     0.044 A 
HETATM   27  C13 UNL     1      19.090   6.270  26.699  1.00  0.00     0.036 A 
HETATM   28 CL1  UNL     1      20.788   6.447  27.117  1.00  0.00    -0.084 Cl
HETATM   29  C14 UNL     1      18.115   6.926  27.419  1.00  0.00     0.050 A 
ATOM     30  H2  UNL     1      13.095   2.893  27.740  1.00  0.00     0.161 HD
BRANCH  24  31
HETATM   31  S1  UNL     1      15.573   7.677  28.075  1.00  0.00     0.259 S 
HETATM   32  O1  UNL     1      14.411   8.179  27.276  1.00  0.00    -0.201 OA
HETATM   33  O2  UNL     1      14.962   6.671  29.024  1.00  0.00    -0.201 OA
BRANCH  31  34
HETATM   34  N7  UNL     1      16.239   8.894  29.094  1.00  0.00    -0.320 N 
HETATM   35  C16 UNL     1      15.911   8.562  30.493  1.00  0.00     0.159 C 
ATOM     36  H7  UNL     1      16.771   9.707  28.784  1.00  0.00     0.171 HD
ENDBRANCH  31  34
ENDBRANCH  24  31
ENDBRANCH   7   8
ENDBRANCH   6   7
ENDBRANCH   4   6
ENDBRANCH   3   4
TORSDOF 6
ENDMDL
MODEL 4
REMARK VINA RESULT: -7.834206436      2.984      3.807
REMARK  6 active torsions:
REMARK  status: ('A' for Active; 'I' for Inactive)
REMARK    1  A    between atoms: C3_3  and  N1_4 
REMARK    2  A    between atoms: N1_4  and  C5_6 
REMARK    3  A    between atoms: C5_6  and  C6_7 
REMARK    4  A    between atoms: C6_7  and  N2_8 
REMARK    5  A    between atoms: C15_28  and  S1_29 
REMARK    6  A    between atoms: S1_29  and  N7_32 
ROOT
HETATM    1  C1  UNL     1      11.044  -0.071  31.825  1.00  0.00     0.013 C 
HETATM    2  C2  UNL     1      11.721  -0.119  30.824  1.00  0.00    -0.087 C 
HETATM    3  C3  UNL     1      12.510  -0.171  29.614  1.00  0.00     0.364 C 
ENDROOT
BRANCH   3   4
HETATM    4  N1  UNL     1      12.342   1.074  28.885  1.00  0.00     0.096 N 
HETATM    5  C4  UNL     1      11.015   1.019  28.276  1.00  0.00     0.311 C 
BRANCH   4   6
HETATM    6  C5  UNL     1      13.314   1.178  27.809  1.00  0.00     0.292 C 
BRANCH   6   7
HETATM    7  C6  UNL     1      12.846   2.126  26.738  1.00  0.00     0.151 C 
BRANCH   7   8
HETATM    8  N2  UNL     1      13.680   3.305  26.677  1.00  0.00    -0.373 N 
HETATM    9  C7  UNL     1      14.474   3.556  25.696  1.00  0.00     0.130 A 
HETATM   10  N3  UNL     1      14.718   2.863  24.581  1.00  0.00    -0.283 N 
HETATM   11  C18 UNL     1      15.264   4.693  25.659  1.00  0.00     0.058 A 
HETATM   12  N4  UNL     1      15.611   3.466  23.817  1.00  0.00    -0.282 N 
ATOM     13  H3  UNL     1      14.269   1.977  24.348  1.00  0.00     0.188 HD
HETATM   14  C8  UNL     1      15.964   4.594  24.459  1.00  0.00     0.149 A 
ATOM     15  H4  UNL     1      15.965   3.139  22.917  1.00  0.00     0.188 HD
HETATM   16  N5  UNL     1      16.823   5.584  24.158  1.00  0.00    -0.283 N 
HETATM   17  N6  UNL     1      16.966   6.590  24.997  1.00  0.00    -0.298 N 
ATOM     18  H5  UNL     1      17.358   5.558  23.290  1.00  0.00     0.188 HD
HETATM   19  C9  UNL     1      16.325   6.742  26.160  1.00  0.00     0.062 A 
ATOM     20  H6  UNL     1      17.627   7.321  24.735  1.00  0.00     0.187 HD
HETATM   21  C10 UNL     1      16.514   7.863  27.050  1.00  0.00     0.033 A 
HETATM   22  C17 UNL     1      15.440   5.759  26.510  1.00  0.00     0.051 A 
HETATM   23  C11 UNL     1      17.508   7.824  28.023  1.00  0.00     0.026 A 
HETATM   24  C15 UNL     1      15.666   8.958  26.892  1.00  0.00     0.095 A 
HETATM   25 BR1  UNL     1      18.593   6.251  28.112  1.00  0.00    -0.050 Br
HETATM   26  C12 UNL     1      17.676   8.891  28.866  1.00  0.00     0.044 A 
HETATM   27  C13 UNL     1      16.861   9.998  28.751  1.00  0.00     0.036 A 
HETATM   28 CL1  UNL     1      17.064  11.373  29.827  1.00  0.00    -0.084 Cl
HETATM   29  C14 UNL     1      15.885  10.004  27.777  1.00  0.00     0.050 A 
ATOM     30  H2  UNL     1      13.637   3.970  27.450  1.00  0.00     0.161 HD
BRANCH  24  31
HETATM   31  S1  UNL     1      14.435   9.010  25.687  1.00  0.00     0.259 S 
HETATM   32  O1  UNL     1      14.820   8.374  24.388  1.00  0.00    -0.201 OA
HETATM   33  O2  UNL     1      13.293   8.158  26.192  1.00  0.00    -0.201 OA
BRANCH  31  34
HETATM   34  N7  UNL     1      13.754  10.576  25.473  1.00  0.00    -0.320 N 
HETATM   35  C16 UNL     1      12.592  10.460  24.572  1.00  0.00     0.159 C 
ATOM     36  H7  UNL     1      14.096  11.438  25.896  1.00  0.00     0.171 HD
ENDBRANCH  31  34
ENDBRANCH  24  31
ENDBRANCH   7   8
ENDBRANCH   6   7
ENDBRANCH   4   6
ENDBRANCH   3   4
TORSDOF 6
ENDMDL
MODEL 5
REMARK VINA RESULT: -7.767891656      2.979      3.856
REMARK  6 active torsions:
REMARK  status: ('A' for Active; 'I' for Inactive)
REMARK    1  A    between atoms: C3_3  and  N1_4 
REMARK    2  A    between atoms: N1_4  and  C5_6 
REMARK    3  A    between atoms: C5_6  and  C6_7 
REMARK    4  A    between atoms: C6_7  and  N2_8 
REMARK    5  A    between atoms: C15_28  and  S1_29 
REMARK    6  A    between atoms: S1_29  and  N7_32 
ROOT
HETATM    1  C1  UNL     1      11.215  -0.077  31.570  1.00  0.00     0.013 C 
HETATM    2  C2  UNL     1      11.792   0.047  30.515  1.00  0.00    -0.087 C 
HETATM    3  C3  UNL     1      12.460   0.200  29.242  1.00  0.00     0.364 C 
ENDROOT
BRANCH   3   4
HETATM    4  N1  UNL     1      12.104   1.489  28.673  1.00  0.00     0.096 N 
HETATM    5  C4  UNL     1      10.712   1.379  28.243  1.00  0.00     0.311 C 
BRANCH   4   6
HETATM    6  C5  UNL     1      12.906   1.771  27.493  1.00  0.00     0.292 C 
BRANCH   6   7
HETATM    7  C6  UNL     1      12.429   3.015  26.792  1.00  0.00     0.151 C 
BRANCH   7   8
HETATM    8  N2  UNL     1      13.408   4.075  26.877  1.00  0.00    -0.373 N 
HETATM    9  C7  UNL     1      14.340   4.244  26.006  1.00  0.00     0.130 A 
HETATM   10  N3  UNL     1      14.626   3.554  24.900  1.00  0.00    -0.283 N 
HETATM   11  C18 UNL     1      15.267   5.269  26.108  1.00  0.00     0.058 A 
HETATM   12  N4  UNL     1      15.675   4.054  24.270  1.00  0.00    -0.282 N 
ATOM     13  H3  UNL     1      14.099   2.741  24.580  1.00  0.00     0.188 HD
HETATM   14  C8  UNL     1      16.088   5.109  24.994  1.00  0.00     0.149 A 
ATOM     15  H4  UNL     1      16.090   3.707  23.405  1.00  0.00     0.188 HD
HETATM   16  N5  UNL     1      17.096   5.986  24.837  1.00  0.00    -0.283 N 
HETATM   17  N6  UNL     1      17.264   6.942  25.727  1.00  0.00    -0.298 N 
ATOM     18  H5  UNL     1      17.724   5.911  24.036  1.00  0.00     0.188 HD
HETATM   19  C9  UNL     1      16.512   7.147  26.813  1.00  0.00     0.062 A 
ATOM     20  H6  UNL     1      18.040   7.586  25.574  1.00  0.00     0.187 HD
HETATM   21  C10 UNL     1      16.734   8.210  27.764  1.00  0.00     0.033 A 
HETATM   22  C17 UNL     1      15.473   6.280  27.017  1.00  0.00     0.051 A 
HETATM   23  C11 UNL     1      17.590   8.016  28.844  1.00  0.00     0.026 A 
HETATM   24  C15 UNL     1      16.057   9.410  27.554  1.00  0.00     0.095 A 
HETATM   25 BR1  UNL     1      18.447   6.312  28.994  1.00  0.00    -0.050 Br
HETATM   26  C12 UNL     1      17.790   9.029  29.744  1.00  0.00     0.044 A 
HETATM   27  C13 UNL     1      17.142  10.236  29.581  1.00  0.00     0.036 A 
HETATM   28 CL1  UNL     1      17.387  11.544  30.729  1.00  0.00    -0.084 Cl
HETATM   29  C14 UNL     1      16.300  10.395  28.501  1.00  0.00     0.050 A 
ATOM     30  H2  UNL     1      13.358   4.719  27.666  1.00  0.00     0.161 HD
BRANCH  24  31
HETATM   31  S1  UNL     1      14.998   9.655  26.218  1.00  0.00     0.259 S 
HETATM   32  O1  UNL     1      13.804   8.753  26.207  1.00  0.00    -0.201 OA
HETATM   33  O2  UNL     1      14.413  11.041  26.371  1.00  0.00    -0.201 OA
BRANCH  31  34
HETATM   34  N7  UNL     1      15.808   9.685  24.699  1.00  0.00    -0.320 N 
HETATM   35  C16 UNL     1      15.019   8.899  23.733  1.00  0.00     0.159 C 
ATOM     36  H7  UNL     1      16.686  10.165  24.501  1.00  0.00     0.171 HD
ENDBRANCH  31  34
ENDBRANCH  24  31
ENDBRANCH   7   8
ENDBRANCH   6   7
ENDBRANCH   4   6
ENDBRANCH   3   4
TORSDOF 6
ENDMDL
