MODEL 1
REMARK VINA RESULT: -7.813260908      0.000      0.000
REMARK  6 active torsions:
REMARK  status: ('A' for Active; 'I' for Inactive)
REMARK    1  A    between atoms: C2_2  and  N1_3 
REMARK    2  A    between atoms: C3_5  and  C4_6 
REMARK    3  A    between atoms: C7_15  and  C8_16 
REMARK    4  A    between atoms: C8_16  and  C9_17 
REMARK    5  A    between atoms: C11_21  and  N5_22 
REMARK    6  A    between atoms: C12_27  and  N7_28 
ROOT
HETATM    1  C4  UNL     1      -8.253 -10.526   7.776  1.00  0.00     0.092 A 
HETATM    2  C5  UNL     1      -9.024  -9.710   8.578  1.00  0.00     0.264 A 
HETATM    3  O1  UNL     1     -10.302  -9.717   8.476  1.00  0.00    -0.267 OA
HETATM    4  N2  UNL     1      -8.531  -8.886   9.488  1.00  0.00    -0.274 N 
ATOM      5  H2  UNL     1      -9.135  -8.299  10.064  1.00  0.00     0.173 HD
HETATM    6  C6  UNL     1      -7.188  -8.860   9.616  1.00  0.00     0.341 A 
HETATM    7  O2  UNL     1      -6.613  -8.117  10.445  1.00  0.00    -0.245 OA
HETATM    8  N3  UNL     1      -6.399  -9.656   8.833  1.00  0.00    -0.215 N 
HETATM    9  S1  UNL     1      -4.708  -9.894   8.711  1.00  0.00     0.012 SA
HETATM   10  C7  UNL     1      -4.714 -11.069   7.468  1.00  0.00     0.074 A 
HETATM   11  N8  UNL     1      -5.987 -11.197   7.237  1.00  0.00    -0.337 N 
ATOM     12  H8  UNL     1      -6.311 -11.850   6.523  1.00  0.00     0.168 HD
HETATM   13  C13 UNL     1      -6.854 -10.494   7.914  1.00  0.00     0.140 A 
ENDROOT
BRANCH  10  14
HETATM   14  C8  UNL     1      -3.589 -11.775   6.808  1.00  0.00     0.110 C 
BRANCH  14  15
HETATM   15  C9  UNL     1      -3.225 -13.026   7.478  1.00  0.00     0.008 A 
HETATM   16  C10 UNL     1      -3.425 -13.269   8.819  1.00  0.00     0.117 A 
HETATM   17  N4  UNL     1      -3.073 -14.430   9.372  1.00  0.00    -0.202 N 
HETATM   18  C11 UNL     1      -2.500 -15.421   8.630  1.00  0.00     0.677 A 
ATOM     19  H4  UNL     1      -3.234 -14.579  10.368  1.00  0.00     0.183 HD
HETATM   20  N6  UNL     1      -2.300 -15.192   7.313  1.00  0.00    -0.177 N 
HETATM   21  C12 UNL     1      -2.645 -14.022   6.718  1.00  0.00     0.122 A 
ATOM     22  H6  UNL     1      -1.873 -15.925   6.746  1.00  0.00     0.185 HD
BRANCH  18  23
HETATM   23  N5  UNL     1      -2.161 -16.541   9.167  1.00  0.00    -0.234 N 
ATOM     24  H52 UNL     1      -1.940 -16.601  10.160  1.00  0.00     0.174 HD
ATOM     25  H51 UNL     1      -2.104 -17.395   8.612  1.00  0.00     0.174 HD
ENDBRANCH  18  23
BRANCH  21  26
HETATM   26  N7  UNL     1      -2.418 -13.896   5.467  1.00  0.00    -0.385 N 
ATOM     27  H72 UNL     1      -2.864 -13.122   4.975  1.00  0.00     0.157 HD
ATOM     28  H71 UNL     1      -1.813 -14.531   4.948  1.00  0.00     0.157 HD
ENDBRANCH  21  26
ENDBRANCH  14  15
ENDBRANCH  10  14
BRANCH   1  29
HETATM   29  C3  UNL     1      -8.896 -11.399   6.805  1.00  0.00     0.104 C 
HETATM   30  N1  UNL     1      -9.760 -10.935   6.014  1.00  0.00    -0.398 N 
ATOM     31  H1  UNL     1      -9.969  -9.940   6.098  1.00  0.00     0.158 HD
BRANCH  30  32
HETATM   32  C2  UNL     1     -10.478 -11.659   5.008  1.00  0.00     0.114 C 
HETATM   33  C1  UNL     1     -11.453 -10.784   4.248  1.00  0.00     0.026 C 
ENDBRANCH  30  32
ENDBRANCH   1  29
TORSDOF 6
ENDMDL
MODEL 2
REMARK VINA RESULT: -7.494558988      1.495      1.828
REMARK  6 active torsions:
REMARK  status: ('A' for Active; 'I' for Inactive)
REMARK    1  A    between atoms: C2_2  and  N1_3 
REMARK    2  A    between atoms: C3_5  and  C4_6 
REMARK    3  A    between atoms: C7_15  and  C8_16 
REMARK    4  A    between atoms: C8_16  and  C9_17 
REMARK    5  A    between atoms: C11_21  and  N5_22 
REMARK    6  A    between atoms: C12_27  and  N7_28 
ROOT
HETATM    1  C4  UNL     1      -8.317 -10.527   7.751  1.00  0.00     0.092 A 
HETATM    2  C5  UNL     1      -9.083  -9.732   8.579  1.00  0.00     0.264 A 
HETATM    3  O1  UNL     1     -10.362  -9.744   8.491  1.00  0.00    -0.267 OA
HETATM    4  N2  UNL     1      -8.584  -8.922   9.498  1.00  0.00    -0.274 N 
ATOM      5  H2  UNL     1      -9.185  -8.350  10.092  1.00  0.00     0.173 HD
HETATM    6  C6  UNL     1      -7.240  -8.891   9.610  1.00  0.00     0.341 A 
HETATM    7  O2  UNL     1      -6.659  -8.160  10.446  1.00  0.00    -0.245 OA
HETATM    8  N3  UNL     1      -6.455  -9.666   8.803  1.00  0.00    -0.215 N 
HETATM    9  S1  UNL     1      -4.765  -9.891   8.656  1.00  0.00     0.012 SA
HETATM   10  C7  UNL     1      -4.778 -11.043   7.391  1.00  0.00     0.074 A 
HETATM   11  N8  UNL     1      -6.053 -11.174   7.173  1.00  0.00    -0.337 N 
ATOM     12  H8  UNL     1      -6.381 -11.815   6.450  1.00  0.00     0.168 HD
HETATM   13  C13 UNL     1      -6.916 -10.489   7.873  1.00  0.00     0.140 A 
ENDROOT
BRANCH  10  14
HETATM   14  C8  UNL     1      -3.657 -11.728   6.705  1.00  0.00     0.110 C 
BRANCH  14  15
HETATM   15  C9  UNL     1      -2.533 -12.022   7.598  1.00  0.00     0.008 A 
HETATM   16  C10 UNL     1      -1.404 -11.240   7.700  1.00  0.00     0.117 A 
HETATM   17  N4  UNL     1      -0.413 -11.560   8.533  1.00  0.00    -0.202 N 
HETATM   18  C11 UNL     1      -0.479 -12.675   9.315  1.00  0.00     0.677 A 
ATOM     19  H4  UNL     1       0.410 -10.960   8.586  1.00  0.00     0.183 HD
HETATM   20  N6  UNL     1      -1.584 -13.450   9.221  1.00  0.00    -0.177 N 
HETATM   21  C12 UNL     1      -2.610 -13.155   8.384  1.00  0.00     0.122 A 
ATOM     22  H6  UNL     1      -1.647 -14.288   9.800  1.00  0.00     0.185 HD
BRANCH  18  23
HETATM   23  N5  UNL     1       0.479 -12.983  10.117  1.00  0.00    -0.234 N 
ATOM     24  H52 UNL     1       1.452 -12.836   9.852  1.00  0.00     0.174 HD
ATOM     25  H51 UNL     1       0.288 -13.380  11.038  1.00  0.00     0.174 HD
ENDBRANCH  18  23
BRANCH  21  26
HETATM   26  N7  UNL     1      -3.614 -13.945   8.363  1.00  0.00    -0.385 N 
ATOM     27  H72 UNL     1      -4.356 -13.796   9.047  1.00  0.00     0.157 HD
ATOM     28  H71 UNL     1      -3.701 -14.710   7.695  1.00  0.00     0.157 HD
ENDBRANCH  21  26
ENDBRANCH  14  15
ENDBRANCH  10  14
BRANCH   1  29
HETATM   29  C3  UNL     1      -8.966 -11.385   6.772  1.00  0.00     0.104 C 
HETATM   30  N1  UNL     1      -9.833 -10.909   5.991  1.00  0.00    -0.398 N 
ATOM     31  H1  UNL     1     -10.040  -9.915   6.090  1.00  0.00     0.158 HD
BRANCH  30  32
HETATM   32  C2  UNL     1     -10.557 -11.618   4.979  1.00  0.00     0.114 C 
HETATM   33  C1  UNL     1     -11.500 -10.722   4.205  1.00  0.00     0.026 C 
ENDBRANCH  30  32
ENDBRANCH   1  29
TORSDOF 6
ENDMDL
MODEL 3
REMARK VINA RESULT: -7.470693316      3.594      7.343
REMARK  6 active torsions:
REMARK  status: ('A' for Active; 'I' for Inactive)
REMARK    1  A    between atoms: C2_2  and  N1_3 
REMARK    2  A    between atoms: C3_5  and  C4_6 
REMARK    3  A    between atoms: C7_15  and  C8_16 
REMARK    4  A    between atoms: C8_16  and  C9_17 
REMARK    5  A    between atoms: C11_21  and  N5_22 
REMARK    6  A    between atoms: C12_27  and  N7_28 
ROOT
HETATM    1  C4  UNL     1      -2.612 -14.014  11.347  1.00  0.00     0.092 A 
HETATM    2  C5  UNL     1      -2.176 -14.807  12.388  1.00  0.00     0.264 A 
HETATM    3  O1  UNL     1      -1.637 -15.948  12.156  1.00  0.00    -0.267 OA
HETATM    4  N2  UNL     1      -2.271 -14.473  13.664  1.00  0.00    -0.274 N 
ATOM      5  H2  UNL     1      -1.935 -15.088  14.406  1.00  0.00     0.173 HD
HETATM    6  C6  UNL     1      -2.834 -13.278  13.936  1.00  0.00     0.341 A 
HETATM    7  O2  UNL     1      -2.976 -12.861  15.109  1.00  0.00    -0.245 OA
HETATM    8  N3  UNL     1      -3.277 -12.471  12.926  1.00  0.00    -0.215 N 
HETATM    9  S1  UNL     1      -4.022 -10.931  12.880  1.00  0.00     0.012 SA
HETATM   10  C7  UNL     1      -4.180 -10.784  11.182  1.00  0.00     0.074 A 
HETATM   11  N8  UNL     1      -3.660 -11.904  10.775  1.00  0.00    -0.337 N 
ATOM     12  H8  UNL     1      -3.613 -12.109   9.777  1.00  0.00     0.168 HD
HETATM   13  C13 UNL     1      -3.199 -12.769  11.637  1.00  0.00     0.140 A 
ENDROOT
BRANCH  10  14
HETATM   14  C8  UNL     1      -4.751  -9.688  10.362  1.00  0.00     0.110 C 
BRANCH  14  15
HETATM   15  C9  UNL     1      -5.683 -10.165   9.337  1.00  0.00     0.008 A 
HETATM   16  C10 UNL     1      -5.303 -10.562   8.074  1.00  0.00     0.117 A 
HETATM   17  N4  UNL     1      -6.199 -10.987   7.184  1.00  0.00    -0.202 N 
HETATM   18  C11 UNL     1      -7.527 -11.047   7.490  1.00  0.00     0.677 A 
ATOM     19  H4  UNL     1      -5.886 -11.274   6.256  1.00  0.00     0.183 HD
HETATM   20  N6  UNL     1      -7.909 -10.659   8.728  1.00  0.00    -0.177 N 
HETATM   21  C12 UNL     1      -7.024 -10.220   9.658  1.00  0.00     0.122 A 
ATOM     22  H6  UNL     1      -8.899 -10.699   8.971  1.00  0.00     0.185 HD
BRANCH  18  23
HETATM   23  N5  UNL     1      -8.390 -11.458   6.629  1.00  0.00    -0.234 N 
ATOM     24  H52 UNL     1      -8.733 -12.417   6.647  1.00  0.00     0.174 HD
ATOM     25  H51 UNL     1      -8.753 -10.834   5.907  1.00  0.00     0.174 HD
ENDBRANCH  18  23
BRANCH  21  26
HETATM   26  N7  UNL     1      -7.478  -9.876  10.802  1.00  0.00    -0.385 N 
ATOM     27  H72 UNL     1      -6.867  -9.341  11.418  1.00  0.00     0.157 HD
ATOM     28  H71 UNL     1      -8.418 -10.111  11.118  1.00  0.00     0.157 HD
ENDBRANCH  21  26
ENDBRANCH  14  15
ENDBRANCH  10  14
BRANCH   1  29
HETATM   29  C3  UNL     1      -2.460 -14.475   9.976  1.00  0.00     0.104 C 
HETATM   30  N1  UNL     1      -2.915 -15.599   9.633  1.00  0.00    -0.398 N 
ATOM     31  H1  UNL     1      -3.381 -16.143  10.359  1.00  0.00     0.158 HD
BRANCH  30  32
HETATM   32  C2  UNL     1      -2.845 -16.192   8.331  1.00  0.00     0.114 C 
HETATM   33  C1  UNL     1      -2.335 -15.227   7.281  1.00  0.00     0.026 C 
ENDBRANCH  30  32
ENDBRANCH   1  29
TORSDOF 6
ENDMDL
MODEL 4
REMARK VINA RESULT: -7.324049686      3.710      7.581
REMARK  6 active torsions:
REMARK  status: ('A' for Active; 'I' for Inactive)
REMARK    1  A    between atoms: C2_2  and  N1_3 
REMARK    2  A    between atoms: C3_5  and  C4_6 
REMARK    3  A    between atoms: C7_15  and  C8_16 
REMARK    4  A    between atoms: C8_16  and  C9_17 
REMARK    5  A    between atoms: C11_21  and  N5_22 
REMARK    6  A    between atoms: C12_27  and  N7_28 
ROOT
HETATM    1  C4  UNL     1      -3.227 -10.703  11.164  1.00  0.00     0.092 A 
HETATM    2  C5  UNL     1      -1.925 -10.690  10.709  1.00  0.00     0.264 A 
HETATM    3  O1  UNL     1      -0.957 -10.983  11.497  1.00  0.00    -0.267 OA
HETATM    4  N2  UNL     1      -1.577 -10.388   9.469  1.00  0.00    -0.274 N 
ATOM      5  H2  UNL     1      -0.602 -10.391   9.170  1.00  0.00     0.173 HD
HETATM    6  C6  UNL     1      -2.578 -10.075   8.619  1.00  0.00     0.341 A 
HETATM    7  O2  UNL     1      -2.363  -9.772   7.423  1.00  0.00    -0.245 OA
HETATM    8  N3  UNL     1      -3.877 -10.078   9.042  1.00  0.00    -0.215 N 
HETATM    9  S1  UNL     1      -5.372  -9.748   8.278  1.00  0.00     0.012 SA
HETATM   10  C7  UNL     1      -6.400 -10.021   9.619  1.00  0.00     0.074 A 
HETATM   11  N8  UNL     1      -5.542 -10.340  10.543  1.00  0.00    -0.337 N 
ATOM     12  H8  UNL     1      -5.869 -10.565  11.483  1.00  0.00     0.168 HD
HETATM   13  C13 UNL     1      -4.266 -10.376  10.273  1.00  0.00     0.140 A 
ENDROOT
BRANCH  10  14
HETATM   14  C8  UNL     1      -7.876  -9.927   9.733  1.00  0.00     0.110 C 
BRANCH  14  15
HETATM   15  C9  UNL     1      -8.571 -10.323   8.505  1.00  0.00     0.008 A 
HETATM   16  C10 UNL     1      -8.588  -9.571   7.351  1.00  0.00     0.117 A 
HETATM   17  N4  UNL     1      -9.239  -9.985   6.265  1.00  0.00    -0.202 N 
HETATM   18  C11 UNL     1      -9.914 -11.170   6.254  1.00  0.00     0.677 A 
ATOM     19  H4  UNL     1      -9.233  -9.405   5.426  1.00  0.00     0.183 HD
HETATM   20  N6  UNL     1      -9.903 -11.916   7.382  1.00  0.00    -0.177 N 
HETATM   21  C12 UNL     1      -9.251 -11.525   8.506  1.00  0.00     0.122 A 
ATOM     22  H6  UNL     1     -10.404 -12.805   7.388  1.00  0.00     0.185 HD
BRANCH  18  23
HETATM   23  N5  UNL     1     -10.542 -11.568   5.204  1.00  0.00    -0.234 N 
ATOM     24  H52 UNL     1     -10.627 -10.968   4.384  1.00  0.00     0.174 HD
ATOM     25  H51 UNL     1     -10.971 -12.493   5.165  1.00  0.00     0.174 HD
ENDBRANCH  18  23
BRANCH  21  26
HETATM   26  N7  UNL     1      -9.296 -12.295   9.524  1.00  0.00    -0.385 N 
ATOM     27  H72 UNL     1      -8.821 -11.993  10.375  1.00  0.00     0.157 HD
ATOM     28  H71 UNL     1      -9.785 -13.190   9.520  1.00  0.00     0.157 HD
ENDBRANCH  21  26
ENDBRANCH  14  15
ENDBRANCH  10  14
BRANCH   1  29
HETATM   29  C3  UNL     1      -3.504 -11.051  12.550  1.00  0.00     0.104 C 
HETATM   30  N1  UNL     1      -3.026 -12.108  13.042  1.00  0.00    -0.398 N 
ATOM     31  H1  UNL     1      -2.452 -12.682  12.424  1.00  0.00     0.158 HD
BRANCH  30  32
HETATM   32  C2  UNL     1      -3.205 -12.588  14.380  1.00  0.00     0.114 C 
HETATM   33  C1  UNL     1      -2.873 -14.059  14.518  1.00  0.00     0.026 C 
ENDBRANCH  30  32
ENDBRANCH   1  29
TORSDOF 6
ENDMDL
MODEL 5
REMARK VINA RESULT: -7.317495543      2.244      2.914
REMARK  6 active torsions:
REMARK  status: ('A' for Active; 'I' for Inactive)
REMARK    1  A    between atoms: C2_2  and  N1_3 
REMARK    2  A    between atoms: C3_5  and  C4_6 
REMARK    3  A    between atoms: C7_15  and  C8_16 
REMARK    4  A    between atoms: C8_16  and  C9_17 
REMARK    5  A    between atoms: C11_21  and  N5_22 
REMARK    6  A    between atoms: C12_27  and  N7_28 
ROOT
HETATM    1  C4  UNL     1      -8.322 -10.543   7.762  1.00  0.00     0.092 A 
HETATM    2  C5  UNL     1      -9.099  -9.775   8.605  1.00  0.00     0.264 A 
HETATM    3  O1  UNL     1     -10.379  -9.804   8.515  1.00  0.00    -0.267 OA
HETATM    4  N2  UNL     1      -8.613  -8.977   9.541  1.00  0.00    -0.274 N 
ATOM      5  H2  UNL     1      -9.223  -8.427  10.145  1.00  0.00     0.173 HD
HETATM    6  C6  UNL     1      -7.270  -8.929   9.656  1.00  0.00     0.341 A 
HETATM    7  O2  UNL     1      -6.701  -8.207  10.507  1.00  0.00    -0.245 OA
HETATM    8  N3  UNL     1      -6.473  -9.677   8.834  1.00  0.00    -0.215 N 
HETATM    9  S1  UNL     1      -4.780  -9.874   8.685  1.00  0.00     0.012 SA
HETATM   10  C7  UNL     1      -4.775 -11.000   7.397  1.00  0.00     0.074 A 
HETATM   11  N8  UNL     1      -6.048 -11.144   7.174  1.00  0.00    -0.337 N 
ATOM     12  H8  UNL     1      -6.366 -11.776   6.438  1.00  0.00     0.168 HD
HETATM   13  C13 UNL     1      -6.921 -10.487   7.887  1.00  0.00     0.140 A 
ENDROOT
BRANCH  10  14
HETATM   14  C8  UNL     1      -3.643 -11.655   6.698  1.00  0.00     0.110 C 
BRANCH  14  15
HETATM   15  C9  UNL     1      -2.351 -11.028   6.988  1.00  0.00     0.008 A 
HETATM   16  C10 UNL     1      -1.950  -9.814   6.475  1.00  0.00     0.117 A 
HETATM   17  N4  UNL     1      -0.760  -9.295   6.777  1.00  0.00    -0.202 N 
HETATM   18  C11 UNL     1       0.106  -9.945   7.606  1.00  0.00     0.677 A 
ATOM     19  H4  UNL     1      -0.492  -8.394   6.381  1.00  0.00     0.183 HD
HETATM   20  N6  UNL     1      -0.279 -11.138   8.114  1.00  0.00    -0.177 N 
HETATM   21  C12 UNL     1      -1.482 -11.696   7.828  1.00  0.00     0.122 A 
ATOM     22  H6  UNL     1       0.359 -11.636   8.736  1.00  0.00     0.185 HD
BRANCH  18  23
HETATM   23  N5  UNL     1       1.255  -9.442   7.895  1.00  0.00    -0.234 N 
ATOM     24  H52 UNL     1       1.622  -8.643   7.379  1.00  0.00     0.174 HD
ATOM     25  H51 UNL     1       1.825  -9.829   8.648  1.00  0.00     0.174 HD
ENDBRANCH  18  23
BRANCH  21  26
HETATM   26  N7  UNL     1      -1.760 -12.826   8.355  1.00  0.00    -0.385 N 
ATOM     27  H72 UNL     1      -1.250 -13.646   8.028  1.00  0.00     0.157 HD
ATOM     28  H71 UNL     1      -2.463 -12.938   9.085  1.00  0.00     0.157 HD
ENDBRANCH  21  26
ENDBRANCH  14  15
ENDBRANCH  10  14
BRANCH   1  29
HETATM   29  C3  UNL     1      -8.957 -11.390   6.765  1.00  0.00     0.104 C 
HETATM   30  N1  UNL     1      -9.828 -10.910   5.991  1.00  0.00    -0.398 N 
ATOM     31  H1  UNL     1     -10.048  -9.921   6.109  1.00  0.00     0.158 HD
BRANCH  30  32
HETATM   32  C2  UNL     1     -10.541 -11.609   4.963  1.00  0.00     0.114 C 
HETATM   33  C1  UNL     1     -11.506 -10.713   4.216  1.00  0.00     0.026 C 
ENDBRANCH  30  32
ENDBRANCH   1  29
TORSDOF 6
ENDMDL
