MODEL 1
REMARK VINA RESULT: -7.962033241      0.000      0.000
REMARK  7 active torsions:
REMARK  status: ('A' for Active; 'I' for Inactive)
REMARK    1  A    between atoms: N1_1  and  C1_4 
REMARK    2  A    between atoms: N4_12  and  C5_14 
REMARK    3  A    between atoms: C5_14  and  C6_15 
REMARK    4  A    between atoms: C12_27  and  N7_28 
REMARK    5  A    between atoms: N7_28  and  C13_29 
REMARK    6  A    between atoms: C13_29  and  C14_30 
REMARK    7  A    between atoms: C14_30  and  O3_31 
ROOT
HETATM    1  C1  UNL     1      -3.873 -11.579   7.101  1.00  0.00     0.129 A 
HETATM    2  N2  UNL     1      -2.601 -11.657   7.580  1.00  0.00    -0.337 N 
ATOM      3  H2  UNL     1      -1.871 -12.050   6.987  1.00  0.00     0.168 HD
HETATM    4  C2  UNL     1      -2.280 -11.230   8.812  1.00  0.00     0.182 A 
HETATM    5  N3  UNL     1      -3.236 -10.717   9.579  1.00  0.00    -0.347 N 
ATOM      6  H3  UNL     1      -2.974 -10.397  10.511  1.00  0.00     0.167 HD
HETATM    7  C3  UNL     1      -4.512 -10.592   9.218  1.00  0.00     0.108 A 
HETATM    8  C4  UNL     1      -5.440 -10.047  10.078  1.00  0.00     0.138 A 
HETATM    9  N4  UNL     1      -5.158  -9.646  11.225  1.00  0.00    -0.346 N 
ATOM     10  H4  UNL     1      -5.968  -9.275  11.721  1.00  0.00     0.167 HD
HETATM   11  N6  UNL     1      -6.713  -9.966   9.604  1.00  0.00    -0.300 N 
ATOM     12  H6  UNL     1      -7.433  -9.569  10.208  1.00  0.00     0.171 HD
HETATM   13  C12 UNL     1      -7.063 -10.383   8.382  1.00  0.00     0.260 A 
HETATM   14  N8  UNL     1      -6.108 -10.920   7.553  1.00  0.00    -0.311 N 
ATOM     15  H8  UNL     1      -6.379 -11.238   6.622  1.00  0.00     0.170 HD
HETATM   16  C15 UNL     1      -4.832 -11.037   7.937  1.00  0.00     0.110 A 
ENDROOT
BRANCH   9  17
HETATM   17  C5  UNL     1      -3.993  -9.588  11.986  1.00  0.00     0.147 C 
BRANCH  17  18
HETATM   18  C6  UNL     1      -3.720 -10.886  12.712  1.00  0.00     0.181 C 
HETATM   19  N5  UNL     1      -3.932 -11.037  13.974  1.00  0.00    -0.240 N 
HETATM   20  O1  UNL     1      -3.587 -12.333  14.346  1.00  0.00    -0.238 OA
ATOM     21  H5  UNL     1      -4.295 -10.320  14.601  1.00  0.00     0.196 HD
HETATM   22  C7  UNL     1      -2.824 -12.842  13.293  1.00  0.00     0.197 C 
HETATM   23  C8  UNL     1      -1.333 -12.672  13.592  1.00  0.00     0.071 C 
HETATM   24  C11 UNL     1      -2.936 -14.309  13.083  1.00  0.00     0.071 C 
HETATM   25  O2  UNL     1      -3.224 -12.069  12.185  1.00  0.00    -0.293 OA
HETATM   26  C9  UNL     1      -1.162 -13.773  14.643  1.00  0.00     0.006 C 
HETATM   27  C10 UNL     1      -2.057 -14.892  14.174  1.00  0.00     0.006 C 
ENDBRANCH  17  18
ENDBRANCH   9  17
BRANCH  13  28
HETATM   28  N7  UNL     1      -8.188 -10.308   7.973  1.00  0.00    -0.386 NA
BRANCH  28  29
HETATM   29  C13 UNL     1      -9.432 -10.232   7.507  1.00  0.00     0.185 C 
BRANCH  29  30
HETATM   30  C14 UNL     1      -9.737 -11.023   6.229  1.00  0.00     0.223 C 
BRANCH  30  31
HETATM   31  O3  UNL     1      -8.815 -12.058   6.090  1.00  0.00    -0.395 OA
ATOM     32  H3  UNL     1      -9.137 -12.833   6.536  1.00  0.00     0.209 HD
ENDBRANCH  30  31
ENDBRANCH  29  30
ENDBRANCH  28  29
ENDBRANCH  13  28
BRANCH   1  33
HETATM   33  N1  UNL     1      -4.156 -11.986   5.937  1.00  0.00    -0.384 N 
ATOM     34  H12 UNL     1      -4.036 -12.962   5.664  1.00  0.00     0.157 HD
ATOM     35  H11 UNL     1      -4.516 -11.346   5.230  1.00  0.00     0.157 HD
ENDBRANCH   1  33
TORSDOF 7
ENDMDL
MODEL 2
REMARK VINA RESULT: -7.669729597      1.305      1.515
REMARK  7 active torsions:
REMARK  status: ('A' for Active; 'I' for Inactive)
REMARK    1  A    between atoms: N1_1  and  C1_4 
REMARK    2  A    between atoms: N4_12  and  C5_14 
REMARK    3  A    between atoms: C5_14  and  C6_15 
REMARK    4  A    between atoms: C12_27  and  N7_28 
REMARK    5  A    between atoms: N7_28  and  C13_29 
REMARK    6  A    between atoms: C13_29  and  C14_30 
REMARK    7  A    between atoms: C14_30  and  O3_31 
ROOT
HETATM    1  C1  UNL     1      -3.740 -10.180   7.366  1.00  0.00     0.129 A 
HETATM    2  N2  UNL     1      -2.406 -10.071   7.613  1.00  0.00    -0.337 N 
ATOM      3  H2  UNL     1      -1.755 -10.067   6.827  1.00  0.00     0.168 HD
HETATM    4  C2  UNL     1      -1.921  -9.971   8.860  1.00  0.00     0.182 A 
HETATM    5  N3  UNL     1      -2.773  -9.977   9.879  1.00  0.00    -0.347 N 
ATOM      6  H3  UNL     1      -2.387  -9.898  10.820  1.00  0.00     0.167 HD
HETATM    7  C3  UNL     1      -4.096 -10.078   9.759  1.00  0.00     0.108 A 
HETATM    8  C4  UNL     1      -4.908 -10.076  10.872  1.00  0.00     0.138 A 
HETATM    9  N4  UNL     1      -4.474  -9.983  12.037  1.00  0.00    -0.346 N 
ATOM     10  H4  UNL     1      -5.217 -10.000  12.735  1.00  0.00     0.167 HD
HETATM   11  N6  UNL     1      -6.244 -10.184  10.632  1.00  0.00    -0.300 N 
ATOM     12  H6  UNL     1      -6.883 -10.186  11.427  1.00  0.00     0.171 HD
HETATM   13  C12 UNL     1      -6.756 -10.286   9.400  1.00  0.00     0.260 A 
HETATM   14  N8  UNL     1      -5.913 -10.283   8.316  1.00  0.00    -0.311 N 
ATOM     15  H8  UNL     1      -6.307 -10.362   7.378  1.00  0.00     0.170 HD
HETATM   16  C15 UNL     1      -4.587 -10.181   8.460  1.00  0.00     0.110 A 
ENDROOT
BRANCH   9  17
HETATM   17  C5  UNL     1      -3.208  -9.863  12.606  1.00  0.00     0.147 C 
BRANCH  17  18
HETATM   18  C6  UNL     1      -2.742 -11.154  13.239  1.00  0.00     0.181 C 
HETATM   19  N5  UNL     1      -1.501 -11.499  13.289  1.00  0.00    -0.240 N 
HETATM   20  O1  UNL     1      -1.391 -12.730  13.928  1.00  0.00    -0.238 OA
ATOM     21  H5  UNL     1      -0.723 -10.955  12.918  1.00  0.00     0.196 HD
HETATM   22  C7  UNL     1      -2.680 -13.267  13.948  1.00  0.00     0.197 C 
HETATM   23  C8  UNL     1      -2.870 -14.225  12.769  1.00  0.00     0.071 C 
HETATM   24  C11 UNL     1      -2.984 -14.139  15.112  1.00  0.00     0.071 C 
HETATM   25  O2  UNL     1      -3.515 -12.137  13.840  1.00  0.00    -0.293 OA
HETATM   26  C9  UNL     1      -2.046 -15.411  13.277  1.00  0.00     0.006 C 
HETATM   27  C10 UNL     1      -2.303 -15.449  14.762  1.00  0.00     0.006 C 
ENDBRANCH  17  18
ENDBRANCH   9  17
BRANCH  13  28
HETATM   28  N7  UNL     1      -7.935 -10.380   9.199  1.00  0.00    -0.386 NA
BRANCH  28  29
HETATM   29  C13 UNL     1      -9.239 -10.488   8.960  1.00  0.00     0.185 C 
BRANCH  29  30
HETATM   30  C14 UNL     1      -9.647 -11.260   7.699  1.00  0.00     0.223 C 
BRANCH  30  31
HETATM   31  O3  UNL     1      -9.014 -12.502   7.689  1.00  0.00    -0.395 OA
ATOM     32  H3  UNL     1      -9.590 -13.148   7.296  1.00  0.00     0.209 HD
ENDBRANCH  30  31
ENDBRANCH  29  30
ENDBRANCH  28  29
ENDBRANCH  13  28
BRANCH   1  33
HETATM   33  N1  UNL     1      -4.178 -10.273   6.183  1.00  0.00    -0.384 N 
ATOM     34  H12 UNL     1      -3.550 -10.341   5.381  1.00  0.00     0.157 HD
ATOM     35  H11 UNL     1      -5.179 -10.285   5.993  1.00  0.00     0.157 HD
ENDBRANCH   1  33
TORSDOF 7
ENDMDL
MODEL 3
REMARK VINA RESULT: -7.616519087      1.745      7.049
REMARK  7 active torsions:
REMARK  status: ('A' for Active; 'I' for Inactive)
REMARK    1  A    between atoms: N1_1  and  C1_4 
REMARK    2  A    between atoms: N4_12  and  C5_14 
REMARK    3  A    between atoms: C5_14  and  C6_15 
REMARK    4  A    between atoms: C12_27  and  N7_28 
REMARK    5  A    between atoms: N7_28  and  C13_29 
REMARK    6  A    between atoms: C13_29  and  C14_30 
REMARK    7  A    between atoms: C14_30  and  O3_31 
ROOT
HETATM    1  C1  UNL     1      -3.317 -11.452   8.065  1.00  0.00     0.129 A 
HETATM    2  N2  UNL     1      -3.769 -10.835   6.940  1.00  0.00    -0.337 N 
ATOM      3  H2  UNL     1      -3.375 -11.099   6.037  1.00  0.00     0.168 HD
HETATM    4  C2  UNL     1      -4.720  -9.889   6.984  1.00  0.00     0.182 A 
HETATM    5  N3  UNL     1      -5.230  -9.551   8.162  1.00  0.00    -0.347 N 
ATOM      6  H3  UNL     1      -5.953  -8.830   8.177  1.00  0.00     0.167 HD
HETATM    7  C3  UNL     1      -4.866 -10.085   9.327  1.00  0.00     0.108 A 
HETATM    8  C4  UNL     1      -5.449  -9.674  10.506  1.00  0.00     0.138 A 
HETATM    9  N4  UNL     1      -6.333  -8.796  10.564  1.00  0.00    -0.346 N 
ATOM     10  H4  UNL     1      -6.648  -8.619  11.518  1.00  0.00     0.167 HD
HETATM   11  N6  UNL     1      -5.001 -10.288  11.635  1.00  0.00    -0.300 N 
ATOM     12  H6  UNL     1      -5.405 -10.014  12.531  1.00  0.00     0.171 HD
HETATM   13  C12 UNL     1      -4.054 -11.234  11.623  1.00  0.00     0.260 A 
HETATM   14  N8  UNL     1      -3.498 -11.616  10.427  1.00  0.00    -0.311 N 
ATOM     15  H8  UNL     1      -2.776 -12.338  10.421  1.00  0.00     0.170 HD
HETATM   16  C15 UNL     1      -3.879 -11.066   9.269  1.00  0.00     0.110 A 
ENDROOT
BRANCH   9  17
HETATM   17  C5  UNL     1      -6.990  -8.002   9.627  1.00  0.00     0.147 C 
BRANCH  17  18
HETATM   18  C6  UNL     1      -8.043  -8.773   8.864  1.00  0.00     0.181 C 
HETATM   19  N5  UNL     1      -8.923  -9.514   9.444  1.00  0.00    -0.240 N 
HETATM   20  O1  UNL     1      -9.748 -10.088   8.481  1.00  0.00    -0.238 OA
ATOM     21  H5  UNL     1      -9.003  -9.657  10.450  1.00  0.00     0.196 HD
HETATM   22  C7  UNL     1      -9.086  -9.921   7.262  1.00  0.00     0.197 C 
HETATM   23  C8  UNL     1      -8.293 -11.183   6.916  1.00  0.00     0.071 C 
HETATM   24  C11 UNL     1      -9.972  -9.772   6.078  1.00  0.00     0.071 C 
HETATM   25  O2  UNL     1      -8.239  -8.820   7.491  1.00  0.00    -0.293 OA
HETATM   26  C9  UNL     1      -9.449 -12.099   6.503  1.00  0.00     0.006 C 
HETATM   27  C10 UNL     1     -10.420 -11.192   5.789  1.00  0.00     0.006 C 
ENDBRANCH  17  18
ENDBRANCH   9  17
BRANCH  13  28
HETATM   28  N7  UNL     1      -3.666 -11.769  12.623  1.00  0.00    -0.386 NA
BRANCH  28  29
HETATM   29  C13 UNL     1      -3.221 -12.364  13.727  1.00  0.00     0.185 C 
BRANCH  29  30
HETATM   30  C14 UNL     1      -1.988 -11.743  14.395  1.00  0.00     0.223 C 
BRANCH  30  31
HETATM   31  O3  UNL     1      -2.375 -11.071  15.553  1.00  0.00    -0.395 OA
ATOM     32  H3  UNL     1      -2.194 -11.614  16.311  1.00  0.00     0.209 HD
ENDBRANCH  30  31
ENDBRANCH  29  30
ENDBRANCH  28  29
ENDBRANCH  13  28
BRANCH   1  33
HETATM   33  N1  UNL     1      -2.420 -12.343   8.004  1.00  0.00    -0.384 N 
ATOM     34  H12 UNL     1      -2.645 -13.337   8.044  1.00  0.00     0.157 HD
ATOM     35  H11 UNL     1      -1.436 -12.092   7.910  1.00  0.00     0.157 HD
ENDBRANCH   1  33
TORSDOF 7
ENDMDL
MODEL 4
REMARK VINA RESULT: -7.444025235      3.403      4.761
REMARK  7 active torsions:
REMARK  status: ('A' for Active; 'I' for Inactive)
REMARK    1  A    between atoms: N1_1  and  C1_4 
REMARK    2  A    between atoms: N4_12  and  C5_14 
REMARK    3  A    between atoms: C5_14  and  C6_15 
REMARK    4  A    between atoms: C12_27  and  N7_28 
REMARK    5  A    between atoms: N7_28  and  C13_29 
REMARK    6  A    between atoms: C13_29  and  C14_30 
REMARK    7  A    between atoms: C14_30  and  O3_31 
ROOT
HETATM    1  C1  UNL     1      -6.695  -8.580  10.298  1.00  0.00     0.129 A 
HETATM    2  N2  UNL     1      -5.511  -8.621  10.968  1.00  0.00    -0.337 N 
ATOM      3  H2  UNL     1      -5.409  -8.082  11.828  1.00  0.00     0.168 HD
HETATM    4  C2  UNL     1      -4.473  -9.352  10.530  1.00  0.00     0.182 A 
HETATM    5  N3  UNL     1      -4.613 -10.052   9.411  1.00  0.00    -0.347 N 
ATOM      6  H3  UNL     1      -3.815 -10.602   9.093  1.00  0.00     0.167 HD
HETATM    7  C3  UNL     1      -5.722 -10.088   8.673  1.00  0.00     0.108 A 
HETATM    8  C4  UNL     1      -5.782 -10.844   7.523  1.00  0.00     0.138 A 
HETATM    9  N4  UNL     1      -4.827 -11.528   7.102  1.00  0.00    -0.346 N 
ATOM     10  H4  UNL     1      -5.048 -12.020   6.237  1.00  0.00     0.167 HD
HETATM   11  N6  UNL     1      -6.963 -10.808   6.848  1.00  0.00    -0.300 N 
ATOM     12  H6  UNL     1      -7.052 -11.353   5.990  1.00  0.00     0.171 HD
HETATM   13  C12 UNL     1      -8.015 -10.089   7.260  1.00  0.00     0.260 A 
HETATM   14  N8  UNL     1      -7.916  -9.349   8.413  1.00  0.00    -0.311 N 
ATOM     15  H8  UNL     1      -8.719  -8.802   8.724  1.00  0.00     0.170 HD
HETATM   16  C15 UNL     1      -6.792  -9.327   9.138  1.00  0.00     0.110 A 
ENDROOT
BRANCH   9  17
HETATM   17  C5  UNL     1      -3.528 -11.774   7.540  1.00  0.00     0.147 C 
BRANCH  17  18
HETATM   18  C6  UNL     1      -3.229 -13.254   7.638  1.00  0.00     0.181 C 
HETATM   19  N5  UNL     1      -3.663 -13.991   8.601  1.00  0.00    -0.240 N 
HETATM   20  O1  UNL     1      -3.225 -15.298   8.413  1.00  0.00    -0.238 OA
ATOM     21  H5  UNL     1      -4.236 -13.667   9.379  1.00  0.00     0.196 HD
HETATM   22  C7  UNL     1      -2.207 -15.227   7.459  1.00  0.00     0.197 C 
HETATM   23  C8  UNL     1      -0.842 -15.178   8.148  1.00  0.00     0.071 C 
HETATM   24  C11 UNL     1      -2.075 -16.421   6.585  1.00  0.00     0.071 C 
HETATM   25  O2  UNL     1      -2.483 -14.032   6.765  1.00  0.00    -0.293 OA
HETATM   26  C9  UNL     1      -0.733 -16.640   8.589  1.00  0.00     0.006 C 
HETATM   27  C10 UNL     1      -1.358 -17.428   7.465  1.00  0.00     0.006 C 
ENDBRANCH  17  18
ENDBRANCH   9  17
BRANCH  13  28
HETATM   28  N7  UNL     1      -9.052 -10.063   6.660  1.00  0.00    -0.386 NA
BRANCH  28  29
HETATM   29  C13 UNL     1     -10.211 -10.034   6.007  1.00  0.00     0.185 C 
BRANCH  29  30
HETATM   30  C14 UNL     1     -10.537 -11.248   5.128  1.00  0.00     0.223 C 
BRANCH  30  31
HETATM   31  O3  UNL     1     -11.501 -10.896   4.186  1.00  0.00    -0.395 OA
ATOM     32  H3  UNL     1     -11.311 -11.327   3.361  1.00  0.00     0.209 HD
ENDBRANCH  30  31
ENDBRANCH  29  30
ENDBRANCH  28  29
ENDBRANCH  13  28
BRANCH   1  33
HETATM   33  N1  UNL     1      -7.662  -7.886  10.728  1.00  0.00    -0.384 N 
ATOM     34  H12 UNL     1      -7.514  -7.014  11.236  1.00  0.00     0.157 HD
ATOM     35  H11 UNL     1      -8.627  -8.180  10.576  1.00  0.00     0.157 HD
ENDBRANCH   1  33
TORSDOF 7
ENDMDL
MODEL 5
REMARK VINA RESULT: -7.302520828      1.567      1.987
REMARK  7 active torsions:
REMARK  status: ('A' for Active; 'I' for Inactive)
REMARK    1  A    between atoms: N1_1  and  C1_4 
REMARK    2  A    between atoms: N4_12  and  C5_14 
REMARK    3  A    between atoms: C5_14  and  C6_15 
REMARK    4  A    between atoms: C12_27  and  N7_28 
REMARK    5  A    between atoms: N7_28  and  C13_29 
REMARK    6  A    between atoms: C13_29  and  C14_30 
REMARK    7  A    between atoms: C14_30  and  O3_31 
ROOT
HETATM    1  C1  UNL     1      -2.903 -10.225   7.951  1.00  0.00     0.129 A 
HETATM    2  N2  UNL     1      -1.589 -10.299   8.298  1.00  0.00    -0.337 N 
ATOM      3  H2  UNL     1      -0.886 -10.377   7.563  1.00  0.00     0.168 HD
HETATM    4  C2  UNL     1      -1.191 -10.273   9.580  1.00  0.00     0.182 A 
HETATM    5  N3  UNL     1      -2.111 -10.170  10.532  1.00  0.00    -0.347 N 
ATOM      6  H3  UNL     1      -1.790 -10.150  11.500  1.00  0.00     0.167 HD
HETATM    7  C3  UNL     1      -3.422 -10.091  10.312  1.00  0.00     0.108 A 
HETATM    8  C4  UNL     1      -4.310  -9.986  11.361  1.00  0.00     0.138 A 
HETATM    9  N4  UNL     1      -3.956  -9.960  12.557  1.00  0.00    -0.346 N 
ATOM     10  H4  UNL     1      -4.746  -9.881  13.198  1.00  0.00     0.167 HD
HETATM   11  N6  UNL     1      -5.626  -9.911  11.022  1.00  0.00    -0.300 N 
ATOM     12  H6  UNL     1      -6.318  -9.833  11.767  1.00  0.00     0.171 HD
HETATM   13  C12 UNL     1      -6.052  -9.936   9.753  1.00  0.00     0.260 A 
HETATM   14  N8  UNL     1      -5.136 -10.041   8.735  1.00  0.00    -0.311 N 
ATOM     15  H8  UNL     1      -5.465 -10.059   7.769  1.00  0.00     0.170 HD
HETATM   16  C15 UNL     1      -3.823 -10.119   8.978  1.00  0.00     0.110 A 
ENDROOT
BRANCH   9  17
HETATM   17  C5  UNL     1      -2.733 -10.015  13.221  1.00  0.00     0.147 C 
BRANCH  17  18
HETATM   18  C6  UNL     1      -2.463 -11.381  13.810  1.00  0.00     0.181 C 
HETATM   19  N5  UNL     1      -1.274 -11.852  13.965  1.00  0.00    -0.240 N 
HETATM   20  O1  UNL     1      -1.352 -13.122  14.527  1.00  0.00    -0.238 OA
ATOM     21  H5  UNL     1      -0.412 -11.369  13.715  1.00  0.00     0.196 HD
HETATM   22  C7  UNL     1      -2.681 -13.527  14.375  1.00  0.00     0.197 C 
HETATM   23  C8  UNL     1      -2.829 -14.391  13.121  1.00  0.00     0.071 C 
HETATM   24  C11 UNL     1      -3.193 -14.429  15.440  1.00  0.00     0.071 C 
HETATM   25  O2  UNL     1      -3.387 -12.314  14.258  1.00  0.00    -0.293 OA
HETATM   26  C9  UNL     1      -2.183 -15.682  13.630  1.00  0.00     0.006 C 
HETATM   27  C10 UNL     1      -2.604 -15.778  15.074  1.00  0.00     0.006 C 
ENDBRANCH  17  18
ENDBRANCH   9  17
BRANCH  13  28
HETATM   28  N7  UNL     1      -7.214  -9.869   9.463  1.00  0.00    -0.386 NA
BRANCH  28  29
HETATM   29  C13 UNL     1      -8.501  -9.808   9.134  1.00  0.00     0.185 C 
BRANCH  29  30
HETATM   30  C14 UNL     1      -8.841  -9.997   7.650  1.00  0.00     0.223 C 
BRANCH  30  31
HETATM   31  O3  UNL     1     -10.154  -9.593   7.417  1.00  0.00    -0.395 OA
ATOM     32  H3  UNL     1     -10.232  -8.659   7.575  1.00  0.00     0.209 HD
ENDBRANCH  30  31
ENDBRANCH  29  30
ENDBRANCH  28  29
ENDBRANCH  13  28
BRANCH   1  33
HETATM   33  N1  UNL     1      -3.259 -10.251   6.737  1.00  0.00    -0.384 N 
ATOM     34  H12 UNL     1      -3.304  -9.403   6.172  1.00  0.00     0.157 HD
ATOM     35  H11 UNL     1      -3.511 -11.128   6.283  1.00  0.00     0.157 HD
ENDBRANCH   1  33
TORSDOF 7
ENDMDL
