MODEL 1
REMARK VINA RESULT: -8.233502558      0.000      0.000
REMARK  6 active torsions:
REMARK  status: ('A' for Active; 'I' for Inactive)
REMARK    1  A    between atoms: S1_2  and  C2_3 
REMARK    2  A    between atoms: C3_8  and  C4_9 
REMARK    3  A    between atoms: C4_9  and  N3_11 
REMARK    4  A    between atoms: C8_14  and  C9_15 
REMARK    5  A    between atoms: C9_15  and  C10_16 
REMARK       I    between atoms: N6_22  and  C12_24 
REMARK    6  A    between atoms: C12_24  and  C13_26 
ROOT
HETATM    1  N3  UNL     1      -7.247   6.576  17.562  1.00  0.00     0.100 N 
HETATM    2  C6  UNL     1      -7.262   6.831  18.967  1.00  0.00     0.273 C 
HETATM    3  C7  UNL     1      -6.574   8.121  19.372  1.00  0.00     0.035 C 
HETATM    4  C8  UNL     1      -7.053   9.316  18.604  1.00  0.00    -0.005 C 
HETATM    5  C15 UNL     1      -7.940   8.847  17.483  1.00  0.00     0.035 C 
HETATM    6  C16 UNL     1      -7.164   7.749  16.750  1.00  0.00     0.273 C 
ENDROOT
BRANCH   4   7
HETATM    7  C9  UNL     1      -7.730  10.327  19.476  1.00  0.00     0.071 C 
BRANCH   7   8
HETATM    8  C10 UNL     1      -6.732  10.792  20.509  1.00  0.00     0.070 A 
HETATM    9  N4  UNL     1      -6.924  11.027  21.797  1.00  0.00    -0.296 N 
HETATM   10  N5  UNL     1      -5.964  11.419  22.528  1.00  0.00    -0.279 N 
ATOM     11  H4  UNL     1      -7.850  10.892  22.205  1.00  0.00     0.187 HD
HETATM   12  C11 UNL     1      -4.763  11.588  21.967  1.00  0.00     0.167 A 
ATOM     13  H5  UNL     1      -6.105  11.600  23.522  1.00  0.00     0.189 HD
HETATM   14  N6  UNL     1      -3.653  11.985  22.552  1.00  0.00    -0.303 N 
HETATM   15  S2  UNL     1      -5.071  11.160  20.343  1.00  0.00    -0.038 SA
HETATM   16  C12 UNL     1      -2.460  12.117  21.828  1.00  0.00     0.262 C 
ATOM     17  H6  UNL     1      -3.661  12.200  23.549  1.00  0.00     0.171 HD
HETATM   18  O1  UNL     1      -2.317  13.094  21.019  1.00  0.00    -0.270 OA
BRANCH  16  19
HETATM   19  C13 UNL     1      -1.353  11.139  21.982  1.00  0.00     0.190 C 
HETATM   20  C14 UNL     1      -0.051  11.885  21.757  1.00  0.00     0.061 C 
HETATM   21 CL1  UNL     1      -1.494   9.891  20.699  1.00  0.00    -0.091 Cl
HETATM   22 CL2  UNL     1      -1.393  10.333  23.551  1.00  0.00    -0.091 Cl
ENDBRANCH  16  19
ENDBRANCH   7   8
ENDBRANCH   4   7
BRANCH   1  23
HETATM   23  C4  UNL     1      -6.216   5.597  17.270  1.00  0.00     0.294 C 
HETATM   24  C5  UNL     1      -5.381   5.433  18.544  1.00  0.00     0.052 C 
BRANCH  23  25
HETATM   25  C3  UNL     1      -6.859   4.289  16.929  1.00  0.00     0.174 A 
HETATM   26  N2  UNL     1      -6.642   3.091  17.505  1.00  0.00    -0.279 N 
HETATM   27  N1  UNL     1      -7.406   2.177  16.919  1.00  0.00    -0.272 N 
ATOM     28  H2  UNL     1      -5.993   2.913  18.272  1.00  0.00     0.189 HD
HETATM   29  C2  UNL     1      -8.116   2.820  15.956  1.00  0.00     0.203 A 
ATOM     30  H1  UNL     1      -7.451   1.184  17.146  1.00  0.00     0.189 HD
HETATM   31  O2  UNL     1      -7.756   4.063  16.004  1.00  0.00    -0.270 OA
BRANCH  29  32
HETATM   32  S1  UNL     1      -9.305   2.003  14.874  1.00  0.00    -0.089 SA
HETATM   33  C1  UNL     1      -8.413   0.694  13.997  1.00  0.00     0.099 C 
ENDBRANCH  29  32
ENDBRANCH  23  25
ENDBRANCH   1  23
TORSDOF 6
ENDMDL
MODEL 2
REMARK VINA RESULT: -8.128833606      1.734      2.563
REMARK  6 active torsions:
REMARK  status: ('A' for Active; 'I' for Inactive)
REMARK    1  A    between atoms: S1_2  and  C2_3 
REMARK    2  A    between atoms: C3_8  and  C4_9 
REMARK    3  A    between atoms: C4_9  and  N3_11 
REMARK    4  A    between atoms: C8_14  and  C9_15 
REMARK    5  A    between atoms: C9_15  and  C10_16 
REMARK       I    between atoms: N6_22  and  C12_24 
REMARK    6  A    between atoms: C12_24  and  C13_26 
ROOT
HETATM    1  N3  UNL     1      -7.080   4.659  16.436  1.00  0.00     0.100 N 
HETATM    2  C6  UNL     1      -7.146   5.866  15.676  1.00  0.00     0.273 C 
HETATM    3  C7  UNL     1      -7.486   7.097  16.493  1.00  0.00     0.035 C 
HETATM    4  C8  UNL     1      -6.614   7.270  17.700  1.00  0.00    -0.005 C 
HETATM    5  C15 UNL     1      -5.778   6.031  17.872  1.00  0.00     0.035 C 
HETATM    6  C16 UNL     1      -6.745   4.845  17.812  1.00  0.00     0.273 C 
ENDROOT
BRANCH   4   7
HETATM    7  C9  UNL     1      -5.780   8.511  17.635  1.00  0.00     0.071 C 
BRANCH   7   8
HETATM    8  C10 UNL     1      -5.424   8.906  19.048  1.00  0.00     0.070 A 
HETATM    9  N4  UNL     1      -5.975   8.506  20.182  1.00  0.00    -0.296 N 
HETATM   10  N5  UNL     1      -5.548   8.945  21.293  1.00  0.00    -0.279 N 
ATOM     11  H4  UNL     1      -6.748   7.840  20.164  1.00  0.00     0.187 HD
HETATM   12  C11 UNL     1      -4.536   9.818  21.287  1.00  0.00     0.167 A 
ATOM     13  H5  UNL     1      -5.967   8.639  22.171  1.00  0.00     0.189 HD
HETATM   14  N6  UNL     1      -3.958  10.383  22.326  1.00  0.00    -0.303 N 
HETATM   15  S2  UNL     1      -4.222   9.980  19.617  1.00  0.00    -0.038 SA
HETATM   16  C12 UNL     1      -2.899  11.286  22.163  1.00  0.00     0.262 C 
ATOM     17  H6  UNL     1      -4.287  10.160  23.265  1.00  0.00     0.171 HD
HETATM   18  O1  UNL     1      -3.132  12.461  21.724  1.00  0.00    -0.270 OA
BRANCH  16  19
HETATM   19  C13 UNL     1      -1.502  10.902  22.491  1.00  0.00     0.190 C 
HETATM   20  C14 UNL     1      -0.643  12.145  22.351  1.00  0.00     0.061 C 
HETATM   21 CL1  UNL     1      -0.927   9.703  21.283  1.00  0.00    -0.091 Cl
HETATM   22 CL2  UNL     1      -1.371  10.183  24.097  1.00  0.00    -0.091 Cl
ENDBRANCH  16  19
ENDBRANCH   7   8
ENDBRANCH   4   7
BRANCH   1  23
HETATM   23  C4  UNL     1      -8.305   3.908  16.235  1.00  0.00     0.294 C 
HETATM   24  C5  UNL     1      -9.067   4.587  15.093  1.00  0.00     0.052 C 
BRANCH  23  25
HETATM   25  C3  UNL     1      -7.966   2.505  15.836  1.00  0.00     0.174 A 
HETATM   26  N2  UNL     1      -7.217   1.615  16.515  1.00  0.00    -0.279 N 
HETATM   27  N1  UNL     1      -7.151   0.482  15.827  1.00  0.00    -0.272 N 
ATOM     28  H2  UNL     1      -6.770   1.785  17.416  1.00  0.00     0.189 HD
HETATM   29  C2  UNL     1      -7.876   0.668  14.694  1.00  0.00     0.203 A 
ATOM     30  H1  UNL     1      -6.652  -0.366  16.096  1.00  0.00     0.189 HD
HETATM   31  O2  UNL     1      -8.335   1.878  14.749  1.00  0.00    -0.270 OA
BRANCH  29  32
HETATM   32  S1  UNL     1      -8.093  -0.593  13.423  1.00  0.00    -0.089 SA
HETATM   33  C1  UNL     1      -6.918  -1.921  13.788  1.00  0.00     0.099 C 
ENDBRANCH  29  32
ENDBRANCH  23  25
ENDBRANCH   1  23
TORSDOF 6
ENDMDL
MODEL 3
REMARK VINA RESULT: -7.814235323      4.607     10.645
REMARK  6 active torsions:
REMARK  status: ('A' for Active; 'I' for Inactive)
REMARK    1  A    between atoms: S1_2  and  C2_3 
REMARK    2  A    between atoms: C3_8  and  C4_9 
REMARK    3  A    between atoms: C4_9  and  N3_11 
REMARK    4  A    between atoms: C8_14  and  C9_15 
REMARK    5  A    between atoms: C9_15  and  C10_16 
REMARK       I    between atoms: N6_22  and  C12_24 
REMARK    6  A    between atoms: C12_24  and  C13_26 
ROOT
HETATM    1  N3  UNL     1      -5.841   7.985  17.419  1.00  0.00     0.100 N 
HETATM    2  C6  UNL     1      -5.567   7.223  18.595  1.00  0.00     0.273 C 
HETATM    3  C7  UNL     1      -6.593   6.146  18.891  1.00  0.00     0.035 C 
HETATM    4  C8  UNL     1      -6.867   5.249  17.722  1.00  0.00    -0.005 C 
HETATM    5  C15 UNL     1      -6.191   5.821  16.505  1.00  0.00     0.035 C 
HETATM    6  C16 UNL     1      -6.608   7.292  16.432  1.00  0.00     0.273 C 
ENDROOT
BRANCH   4   7
HETATM    7  C9  UNL     1      -6.465   3.830  17.978  1.00  0.00     0.071 C 
BRANCH   7   8
HETATM    8  C10 UNL     1      -7.211   2.952  17.004  1.00  0.00     0.070 A 
HETATM    9  N4  UNL     1      -7.052   1.660  16.764  1.00  0.00    -0.296 N 
HETATM   10  N5  UNL     1      -7.773   1.074  15.899  1.00  0.00    -0.279 N 
ATOM     11  H4  UNL     1      -6.345   1.133  17.277  1.00  0.00     0.187 HD
HETATM   12  C11 UNL     1      -8.689   1.790  15.242  1.00  0.00     0.167 A 
ATOM     13  H5  UNL     1      -7.655   0.078  15.711  1.00  0.00     0.189 HD
HETATM   14  N6  UNL     1      -9.525   1.368  14.317  1.00  0.00    -0.303 N 
HETATM   15  S2  UNL     1      -8.473   3.343  15.918  1.00  0.00    -0.038 SA
HETATM   16  C12 UNL     1     -10.437   2.243  13.711  1.00  0.00     0.262 C 
ATOM     17  H6  UNL     1      -9.508   0.387  14.036  1.00  0.00     0.171 HD
HETATM   18  O1  UNL     1     -10.022   3.102  12.864  1.00  0.00    -0.270 OA
BRANCH  16  19
HETATM   19  C13 UNL     1     -11.885   2.191  14.037  1.00  0.00     0.190 C 
HETATM   20  C14 UNL     1     -12.504   1.093  13.192  1.00  0.00     0.061 C 
HETATM   21 CL1  UNL     1     -12.647   3.744  13.554  1.00  0.00    -0.091 Cl
HETATM   22 CL2  UNL     1     -12.170   1.942  15.760  1.00  0.00    -0.091 Cl
ENDBRANCH  16  19
ENDBRANCH   7   8
ENDBRANCH   4   7
BRANCH   1  23
HETATM   23  C4  UNL     1      -6.414   9.261  17.806  1.00  0.00     0.294 C 
HETATM   24  C5  UNL     1      -7.571   8.961  18.764  1.00  0.00     0.052 C 
BRANCH  23  25
HETATM   25  C3  UNL     1      -5.379  10.072  18.521  1.00  0.00     0.174 A 
HETATM   26  N2  UNL     1      -4.244  10.589  18.014  1.00  0.00    -0.279 N 
HETATM   27  N1  UNL     1      -3.594  11.243  18.969  1.00  0.00    -0.272 N 
ATOM     28  H2  UNL     1      -3.932  10.494  17.047  1.00  0.00     0.189 HD
HETATM   29  C2  UNL     1      -4.341  11.133  20.097  1.00  0.00     0.203 A 
ATOM     30  H1  UNL     1      -2.705  11.734  18.874  1.00  0.00     0.189 HD
HETATM   31  O2  UNL     1      -5.383  10.432  19.779  1.00  0.00    -0.270 OA
BRANCH  29  32
HETATM   32  S1  UNL     1      -3.878  11.859  21.681  1.00  0.00    -0.089 SA
HETATM   33  C1  UNL     1      -3.088  10.553  22.654  1.00  0.00     0.099 C 
ENDBRANCH  29  32
ENDBRANCH  23  25
ENDBRANCH   1  23
TORSDOF 6
ENDMDL
MODEL 4
REMARK VINA RESULT: -7.755413077      2.711      3.824
REMARK  6 active torsions:
REMARK  status: ('A' for Active; 'I' for Inactive)
REMARK    1  A    between atoms: S1_2  and  C2_3 
REMARK    2  A    between atoms: C3_8  and  C4_9 
REMARK    3  A    between atoms: C4_9  and  N3_11 
REMARK    4  A    between atoms: C8_14  and  C9_15 
REMARK    5  A    between atoms: C9_15  and  C10_16 
REMARK       I    between atoms: N6_22  and  C12_24 
REMARK    6  A    between atoms: C12_24  and  C13_26 
ROOT
HETATM    1  N3  UNL     1      -6.986   3.834  16.651  1.00  0.00     0.100 N 
HETATM    2  C6  UNL     1      -6.957   5.108  16.008  1.00  0.00     0.273 C 
HETATM    3  C7  UNL     1      -7.351   6.267  16.904  1.00  0.00     0.035 C 
HETATM    4  C8  UNL     1      -6.596   6.301  18.199  1.00  0.00    -0.005 C 
HETATM    5  C15 UNL     1      -5.803   5.029  18.329  1.00  0.00     0.035 C 
HETATM    6  C16 UNL     1      -6.782   3.881  18.065  1.00  0.00     0.273 C 
ENDROOT
BRANCH   4   7
HETATM    7  C9  UNL     1      -5.737   7.520  18.332  1.00  0.00     0.071 C 
BRANCH   7   8
HETATM    8  C10 UNL     1      -6.257   8.330  19.495  1.00  0.00     0.070 A 
HETATM    9  N4  UNL     1      -6.936   7.916  20.552  1.00  0.00    -0.296 N 
HETATM   10  N5  UNL     1      -7.300   8.743  21.444  1.00  0.00    -0.279 N 
ATOM     11  H4  UNL     1      -7.169   6.928  20.651  1.00  0.00     0.187 HD
HETATM   12  C11 UNL     1      -6.982  10.031  21.288  1.00  0.00     0.167 A 
ATOM     13  H5  UNL     1      -7.822   8.430  22.263  1.00  0.00     0.189 HD
HETATM   14  N6  UNL     1      -7.266  11.031  22.095  1.00  0.00    -0.303 N 
HETATM   15  S2  UNL     1      -6.138  10.007  19.804  1.00  0.00    -0.038 SA
HETATM   16  C12 UNL     1      -6.864  12.340  21.796  1.00  0.00     0.262 C 
ATOM     17  H6  UNL     1      -7.789  10.850  22.952  1.00  0.00     0.171 HD
HETATM   18  O1  UNL     1      -7.460  12.989  20.873  1.00  0.00    -0.270 OA
BRANCH  16  19
HETATM   19  C13 UNL     1      -5.752  12.991  22.534  1.00  0.00     0.190 C 
HETATM   20  C14 UNL     1      -6.184  13.126  23.983  1.00  0.00     0.061 C 
HETATM   21 CL1  UNL     1      -5.509  14.647  21.882  1.00  0.00    -0.091 Cl
HETATM   22 CL2  UNL     1      -4.238  12.101  22.375  1.00  0.00    -0.091 Cl
ENDBRANCH  16  19
ENDBRANCH   7   8
ENDBRANCH   4   7
BRANCH   1  23
HETATM   23  C4  UNL     1      -8.200   3.139  16.266  1.00  0.00     0.294 C 
HETATM   24  C5  UNL     1      -8.870   3.977  15.172  1.00  0.00     0.052 C 
BRANCH  23  25
HETATM   25  C3  UNL     1      -7.845   1.795  15.709  1.00  0.00     0.174 A 
HETATM   26  N2  UNL     1      -7.008   0.881  16.236  1.00  0.00    -0.279 N 
HETATM   27  N1  UNL     1      -6.960  -0.180  15.440  1.00  0.00    -0.272 N 
ATOM     28  H2  UNL     1      -6.492   0.987  17.110  1.00  0.00     0.189 HD
HETATM   29  C2  UNL     1      -7.786   0.076  14.394  1.00  0.00     0.203 A 
ATOM     30  H1  UNL     1      -6.409  -1.026  15.586  1.00  0.00     0.189 HD
HETATM   31  O2  UNL     1      -8.283   1.255  14.600  1.00  0.00    -0.270 OA
BRANCH  29  32
HETATM   32  S1  UNL     1      -8.065  -1.071  13.031  1.00  0.00    -0.089 SA
HETATM   33  C1  UNL     1      -9.148  -0.235  11.845  1.00  0.00     0.099 C 
ENDBRANCH  29  32
ENDBRANCH  23  25
ENDBRANCH   1  23
TORSDOF 6
ENDMDL
MODEL 5
REMARK VINA RESULT: -7.657597455      4.993      9.504
REMARK  6 active torsions:
REMARK  status: ('A' for Active; 'I' for Inactive)
REMARK    1  A    between atoms: S1_2  and  C2_3 
REMARK    2  A    between atoms: C3_8  and  C4_9 
REMARK    3  A    between atoms: C4_9  and  N3_11 
REMARK    4  A    between atoms: C8_14  and  C9_15 
REMARK    5  A    between atoms: C9_15  and  C10_16 
REMARK       I    between atoms: N6_22  and  C12_24 
REMARK    6  A    between atoms: C12_24  and  C13_26 
ROOT
HETATM    1  N3  UNL     1      -1.946   9.978  24.623  1.00  0.00     0.100 N 
HETATM    2  C6  UNL     1      -2.835  10.528  23.652  1.00  0.00     0.273 C 
HETATM    3  C7  UNL     1      -2.224  11.621  22.797  1.00  0.00     0.035 C 
HETATM    4  C8  UNL     1      -0.920  11.227  22.170  1.00  0.00    -0.005 C 
HETATM    5  C15 UNL     1      -0.482   9.911  22.754  1.00  0.00     0.035 C 
HETATM    6  C16 UNL     1      -0.563  10.067  24.275  1.00  0.00     0.273 C 
ENDROOT
BRANCH   4   7
HETATM    7  C9  UNL     1      -0.990  11.187  20.675  1.00  0.00     0.071 C 
BRANCH   7   8
HETATM    8  C10 UNL     1      -2.439  11.318  20.273  1.00  0.00     0.070 A 
HETATM    9  N4  UNL     1      -3.097  12.401  19.891  1.00  0.00    -0.296 N 
HETATM   10  N5  UNL     1      -4.327  12.330  19.587  1.00  0.00    -0.279 N 
ATOM     11  H4  UNL     1      -2.612  13.297  19.840  1.00  0.00     0.187 HD
HETATM   12  C11 UNL     1      -4.936  11.143  19.664  1.00  0.00     0.167 A 
ATOM     13  H5  UNL     1      -4.838  13.161  19.290  1.00  0.00     0.189 HD
HETATM   14  N6  UNL     1      -6.194  10.869  19.394  1.00  0.00    -0.303 N 
HETATM   15  S2  UNL     1      -3.666  10.131  20.192  1.00  0.00    -0.038 SA
HETATM   16  C12 UNL     1      -6.695   9.566  19.523  1.00  0.00     0.262 C 
ATOM     17  H6  UNL     1      -6.815  11.618  19.086  1.00  0.00     0.171 HD
HETATM   18  O1  UNL     1      -6.897   9.078  20.684  1.00  0.00    -0.270 OA
BRANCH  16  19
HETATM   19  C13 UNL     1      -6.997   8.737  18.329  1.00  0.00     0.190 C 
HETATM   20  C14 UNL     1      -8.274   9.275  17.710  1.00  0.00     0.061 C 
HETATM   21 CL1  UNL     1      -7.317   7.050  18.856  1.00  0.00    -0.091 Cl
HETATM   22 CL2  UNL     1      -5.660   8.717  17.177  1.00  0.00    -0.091 Cl
ENDBRANCH  16  19
ENDBRANCH   7   8
ENDBRANCH   4   7
BRANCH   1  23
HETATM   23  C4  UNL     1      -2.252  10.550  25.922  1.00  0.00     0.294 C 
HETATM   24  C5  UNL     1      -3.667  11.131  25.833  1.00  0.00     0.052 C 
BRANCH  23  25
HETATM   25  C3  UNL     1      -2.227   9.469  26.957  1.00  0.00     0.174 A 
HETATM   26  N2  UNL     1      -3.096   9.278  27.968  1.00  0.00    -0.279 N 
HETATM   27  N1  UNL     1      -2.728   8.211  28.666  1.00  0.00    -0.272 N 
ATOM     28  H2  UNL     1      -3.909   9.862  28.167  1.00  0.00     0.189 HD
HETATM   29  C2  UNL     1      -1.606   7.724  28.077  1.00  0.00     0.203 A 
ATOM     30  H1  UNL     1      -3.198   7.829  29.488  1.00  0.00     0.189 HD
HETATM   31  O2  UNL     1      -1.353   8.503  27.074  1.00  0.00    -0.270 OA
BRANCH  29  32
HETATM   32  S1  UNL     1      -0.718   6.267  28.662  1.00  0.00    -0.089 SA
HETATM   33  C1  UNL     1       0.035   5.487  27.212  1.00  0.00     0.099 C 
ENDBRANCH  29  32
ENDBRANCH  23  25
ENDBRANCH   1  23
TORSDOF 6
ENDMDL
