MODEL 1
REMARK VINA RESULT: -6.678357445      0.000      0.000
REMARK  4 active torsions:
REMARK  status: ('A' for Active; 'I' for Inactive)
REMARK    1  A    between atoms: C2_2  and  N1_4 
REMARK    2  A    between atoms: N1_4  and  N2_6 
REMARK    3  A    between atoms: C4_8  and  C5_9 
REMARK    4  A    between atoms: C9_13  and  C10_14 
ROOT
HETATM    1  C5  UNL     1      -5.231  75.561  22.825  1.00  0.00    -0.018 A 
HETATM    2  C6  UNL     1      -4.499  74.424  22.555  1.00  0.00     0.013 A 
HETATM    3  C7  UNL     1      -3.243  74.305  23.112  1.00  0.00     0.002 A 
HETATM    4  C8  UNL     1      -2.748  75.307  23.918  1.00  0.00     0.015 A 
HETATM    5  C9  UNL     1      -3.477  76.472  24.205  1.00  0.00     0.005 A 
HETATM    6  C11 UNL     1      -4.725  76.583  23.646  1.00  0.00     0.027 A 
ENDROOT
BRANCH   1   7
HETATM    7  C4  UNL     1      -6.553  75.684  22.235  1.00  0.00     0.118 C 
HETATM    8  N2  UNL     1      -6.815  75.045  21.151  1.00  0.00    -0.315 N 
ATOM      9  H2  UNL     1      -6.115  74.456  20.700  1.00  0.00     0.185 HD
BRANCH   8  10
HETATM   10  N1  UNL     1      -8.099  75.189  20.615  1.00  0.00    -0.333 N 
ATOM     11  H1  UNL     1      -8.884  74.638  20.963  1.00  0.00     0.180 HD
BRANCH  10  12
HETATM   12  C2  UNL     1      -8.270  76.146  19.552  1.00  0.00     0.091 C 
HETATM   13  C1  UNL     1      -8.678  77.484  20.069  1.00  0.00     0.033 C 
HETATM   14  C3  UNL     1      -7.062  76.188  18.650  1.00  0.00     0.033 C 
ENDBRANCH  10  12
ENDBRANCH   8  10
ENDBRANCH   1   7
BRANCH   5  15
HETATM   15  C10 UNL     1      -2.923  77.499  25.054  1.00  0.00     0.120 C 
HETATM   16  N3  UNL     1      -1.920  78.184  24.699  1.00  0.00    -0.387 N 
ATOM     17  H32 UNL     1      -1.491  78.010  23.790  1.00  0.00     0.157 HD
ATOM     18  H31 UNL     1      -1.528  78.910  25.299  1.00  0.00     0.157 HD
HETATM   19  N4  UNL     1      -3.520  77.742  26.320  1.00  0.00    -0.082 NA
ENDBRANCH   5  15
TORSDOF 4
ENDMDL
MODEL 2
REMARK VINA RESULT: -6.582675125      4.427      6.484
REMARK  4 active torsions:
REMARK  status: ('A' for Active; 'I' for Inactive)
REMARK    1  A    between atoms: C2_2  and  N1_4 
REMARK    2  A    between atoms: N1_4  and  N2_6 
REMARK    3  A    between atoms: C4_8  and  C5_9 
REMARK    4  A    between atoms: C9_13  and  C10_14 
ROOT
HETATM    1  C5  UNL     1      -8.894  78.385  20.965  1.00  0.00    -0.018 A 
HETATM    2  C6  UNL     1      -7.806  79.038  21.505  1.00  0.00     0.013 A 
HETATM    3  C7  UNL     1      -6.553  78.495  21.314  1.00  0.00     0.002 A 
HETATM    4  C8  UNL     1      -6.410  77.328  20.596  1.00  0.00     0.015 A 
HETATM    5  C9  UNL     1      -7.503  76.647  20.038  1.00  0.00     0.005 A 
HETATM    6  C11 UNL     1      -8.746  77.194  20.234  1.00  0.00     0.027 A 
ENDROOT
BRANCH   1   7
HETATM    7  C4  UNL     1     -10.213  78.959  21.170  1.00  0.00     0.118 C 
HETATM    8  N2  UNL     1     -10.486  79.507  22.300  1.00  0.00    -0.315 N 
ATOM      9  H2  UNL     1      -9.797  79.545  23.052  1.00  0.00     0.185 HD
BRANCH   8  10
HETATM   10  N1  UNL     1     -11.766  80.049  22.458  1.00  0.00    -0.333 N 
ATOM     11  H1  UNL     1     -12.096  80.374  23.367  1.00  0.00     0.180 HD
BRANCH  10  12
HETATM   12  C2  UNL     1     -12.600  80.130  21.286  1.00  0.00     0.091 C 
HETATM   13  C1  UNL     1     -13.885  79.395  21.467  1.00  0.00     0.033 C 
HETATM   14  C3  UNL     1     -12.776  81.558  20.834  1.00  0.00     0.033 C 
ENDBRANCH  10  12
ENDBRANCH   8  10
ENDBRANCH   1   7
BRANCH   5  15
HETATM   15  C10 UNL     1      -7.311  75.427  19.293  1.00  0.00     0.120 C 
HETATM   16  N3  UNL     1      -7.879  74.347  19.630  1.00  0.00    -0.387 N 
ATOM     17  H32 UNL     1      -8.489  74.336  20.447  1.00  0.00     0.157 HD
ATOM     18  H31 UNL     1      -7.743  73.484  19.103  1.00  0.00     0.157 HD
HETATM   19  N4  UNL     1      -6.462  75.442  18.154  1.00  0.00    -0.082 NA
ENDBRANCH   5  15
TORSDOF 4
ENDMDL
MODEL 3
REMARK VINA RESULT: -6.504805073      1.403      2.312
REMARK  4 active torsions:
REMARK  status: ('A' for Active; 'I' for Inactive)
REMARK    1  A    between atoms: C2_2  and  N1_4 
REMARK    2  A    between atoms: N1_4  and  N2_6 
REMARK    3  A    between atoms: C4_8  and  C5_9 
REMARK    4  A    between atoms: C9_13  and  C10_14 
ROOT
HETATM    1  C5  UNL     1      -5.465  76.974  23.191  1.00  0.00    -0.018 A 
HETATM    2  C6  UNL     1      -6.180  78.142  23.357  1.00  0.00     0.013 A 
HETATM    3  C7  UNL     1      -5.626  79.147  24.121  1.00  0.00     0.002 A 
HETATM    4  C8  UNL     1      -4.386  78.972  24.697  1.00  0.00     0.015 A 
HETATM    5  C9  UNL     1      -3.642  77.792  24.540  1.00  0.00     0.005 A 
HETATM    6  C11 UNL     1      -4.201  76.797  23.779  1.00  0.00     0.027 A 
ENDROOT
BRANCH   1   7
HETATM    7  C4  UNL     1      -6.052  75.916  22.386  1.00  0.00     0.118 C 
HETATM    8  N2  UNL     1      -7.236  76.077  21.912  1.00  0.00    -0.315 N 
ATOM      9  H2  UNL     1      -7.768  76.929  22.090  1.00  0.00     0.185 HD
BRANCH   8  10
HETATM   10  N1  UNL     1      -7.766  75.036  21.142  1.00  0.00    -0.333 N 
ATOM     11  H1  UNL     1      -8.015  74.140  21.560  1.00  0.00     0.180 HD
BRANCH  10  12
HETATM   12  C2  UNL     1      -7.946  75.281  19.733  1.00  0.00     0.091 C 
HETATM   13  C1  UNL     1      -8.095  76.735  19.437  1.00  0.00     0.033 C 
HETATM   14  C3  UNL     1      -6.877  74.601  18.916  1.00  0.00     0.033 C 
ENDBRANCH  10  12
ENDBRANCH   8  10
ENDBRANCH   1   7
BRANCH   5  15
HETATM   15  C10 UNL     1      -2.347  77.648  25.160  1.00  0.00     0.120 C 
HETATM   16  N3  UNL     1      -1.415  78.478  24.950  1.00  0.00    -0.387 N 
ATOM     17  H32 UNL     1      -1.580  79.270  24.329  1.00  0.00     0.157 HD
ATOM     18  H31 UNL     1      -0.499  78.377  25.387  1.00  0.00     0.157 HD
HETATM   19  N4  UNL     1      -2.116  76.545  26.024  1.00  0.00    -0.082 NA
ENDBRANCH   5  15
TORSDOF 4
ENDMDL
MODEL 4
REMARK VINA RESULT: -6.483233518      3.011      4.919
REMARK  4 active torsions:
REMARK  status: ('A' for Active; 'I' for Inactive)
REMARK    1  A    between atoms: C2_2  and  N1_4 
REMARK    2  A    between atoms: N1_4  and  N2_6 
REMARK    3  A    between atoms: C4_8  and  C5_9 
REMARK    4  A    between atoms: C9_13  and  C10_14 
ROOT
HETATM    1  C5  UNL     1      -7.803  77.459  20.858  1.00  0.00    -0.018 A 
HETATM    2  C6  UNL     1      -8.129  76.910  19.636  1.00  0.00     0.013 A 
HETATM    3  C7  UNL     1      -7.451  75.783  19.221  1.00  0.00     0.002 A 
HETATM    4  C8  UNL     1      -6.476  75.231  20.022  1.00  0.00     0.015 A 
HETATM    5  C9  UNL     1      -6.128  75.773  21.270  1.00  0.00     0.005 A 
HETATM    6  C11 UNL     1      -6.806  76.895  21.674  1.00  0.00     0.027 A 
ENDROOT
BRANCH   1   7
HETATM    7  C4  UNL     1      -8.517  78.647  21.292  1.00  0.00     0.118 C 
HETATM    8  N2  UNL     1      -9.629  78.512  21.922  1.00  0.00    -0.315 N 
ATOM      9  H2  UNL     1     -10.017  77.590  22.121  1.00  0.00     0.185 HD
BRANCH   8  10
HETATM   10  N1  UNL     1     -10.286  79.680  22.324  1.00  0.00    -0.333 N 
ATOM     11  H1  UNL     1     -10.140  80.078  23.251  1.00  0.00     0.180 HD
BRANCH  10  12
HETATM   12  C2  UNL     1     -11.177  80.298  21.375  1.00  0.00     0.091 C 
HETATM   13  C1  UNL     1     -12.604  79.971  21.659  1.00  0.00     0.033 C 
HETATM   14  C3  UNL     1     -10.907  81.776  21.249  1.00  0.00     0.033 C 
ENDBRANCH  10  12
ENDBRANCH   8  10
ENDBRANCH   1   7
BRANCH   5  15
HETATM   15  C10 UNL     1      -5.101  75.165  22.079  1.00  0.00     0.120 C 
HETATM   16  N3  UNL     1      -4.301  74.307  21.602  1.00  0.00    -0.387 N 
ATOM     17  H32 UNL     1      -4.382  74.038  20.622  1.00  0.00     0.157 HD
ATOM     18  H31 UNL     1      -3.574  73.877  22.174  1.00  0.00     0.157 HD
HETATM   19  N4  UNL     1      -4.988  75.539  23.444  1.00  0.00    -0.082 NA
ENDBRANCH   5  15
TORSDOF 4
ENDMDL
MODEL 5
REMARK VINA RESULT: -6.419382523      2.588      3.470
REMARK  4 active torsions:
REMARK  status: ('A' for Active; 'I' for Inactive)
REMARK    1  A    between atoms: C2_2  and  N1_4 
REMARK    2  A    between atoms: N1_4  and  N2_6 
REMARK    3  A    between atoms: C4_8  and  C5_9 
REMARK    4  A    between atoms: C9_13  and  C10_14 
ROOT
HETATM    1  C5  UNL     1      -4.867  78.672  23.227  1.00  0.00    -0.018 A 
HETATM    2  C6  UNL     1      -4.538  79.872  22.634  1.00  0.00     0.013 A 
HETATM    3  C7  UNL     1      -3.300  80.419  22.900  1.00  0.00     0.002 A 
HETATM    4  C8  UNL     1      -2.425  79.766  23.741  1.00  0.00     0.015 A 
HETATM    5  C9  UNL     1      -2.740  78.543  24.355  1.00  0.00     0.005 A 
HETATM    6  C11 UNL     1      -3.973  78.007  24.085  1.00  0.00     0.027 A 
ENDROOT
BRANCH   1   7
HETATM    7  C4  UNL     1      -6.172  78.099  22.945  1.00  0.00     0.118 C 
HETATM    8  N2  UNL     1      -7.120  78.872  22.549  1.00  0.00    -0.315 N 
ATOM      9  H2  UNL     1      -6.973  79.874  22.430  1.00  0.00     0.185 HD
BRANCH   8  10
HETATM   10  N1  UNL     1      -8.362  78.283  22.287  1.00  0.00    -0.333 N 
ATOM     11  H1  UNL     1      -8.821  77.687  22.975  1.00  0.00     0.180 HD
BRANCH  10  12
HETATM   12  C2  UNL     1      -8.966  78.553  21.007  1.00  0.00     0.091 C 
HETATM   13  C1  UNL     1      -8.778  77.421  20.055  1.00  0.00     0.033 C 
HETATM   14  C3  UNL     1     -10.402  78.987  21.157  1.00  0.00     0.033 C 
ENDBRANCH  10  12
ENDBRANCH   8  10
ENDBRANCH   1   7
BRANCH   5  15
HETATM   15  C10 UNL     1      -1.795  77.891  25.229  1.00  0.00     0.120 C 
HETATM   16  N3  UNL     1      -0.619  78.331  25.381  1.00  0.00    -0.387 N 
ATOM     17  H32 UNL     1      -0.328  79.168  24.876  1.00  0.00     0.157 HD
ATOM     18  H31 UNL     1       0.050  77.870  25.999  1.00  0.00     0.157 HD
HETATM   19  N4  UNL     1      -2.199  76.725  25.932  1.00  0.00    -0.082 NA
ENDBRANCH   5  15
TORSDOF 4
ENDMDL
