MODEL 1
REMARK VINA RESULT: -9.877789320      0.000      0.000
REMARK  4 active torsions:
REMARK  status: ('A' for Active; 'I' for Inactive)
REMARK    1  A    between atoms: C6_6  and  N1_7 
REMARK    2  A    between atoms: C10_14  and  N3_15 
REMARK    3  A    between atoms: C11_18  and  C12_19 
REMARK    4  A    between atoms: C15_22  and  C16_23 
ROOT
HETATM    1  N1  UNL     1      39.871  -5.837  37.659  1.00  0.00    -0.249 N 
HETATM    2  C7  UNL     1      39.947  -6.137  38.984  1.00  0.00     0.333 A 
HETATM    3  O1  UNL     1      40.535  -5.329  39.749  1.00  0.00    -0.246 OA
HETATM    4  N2  UNL     1      39.397  -7.269  39.412  1.00  0.00    -0.307 N 
ATOM      5  H2  UNL     1      39.446  -7.506  40.403  1.00  0.00     0.170 HD
HETATM    6  C8  UNL     1      38.773  -8.112  38.559  1.00  0.00     0.059 A 
HETATM    7  C9  UNL     1      38.671  -7.854  37.218  1.00  0.00     0.028 A 
HETATM    8  C10 UNL     1      39.254  -6.665  36.802  1.00  0.00     0.119 A 
HETATM    9  C11 UNL     1      37.953  -8.930  36.565  1.00  0.00     0.108 A 
HETATM   10  C27 UNL     1      37.615  -9.894  37.629  1.00  0.00     0.035 A 
HETATM   11  N6  UNL     1      36.967 -11.066  37.643  1.00  0.00    -0.368 N 
ATOM     12  H6  UNL     1      36.599 -11.441  36.769  1.00  0.00     0.165 HD
HETATM   13  C28 UNL     1      36.791 -11.754  38.774  1.00  0.00     0.088 A 
HETATM   14  C29 UNL     1      37.256 -11.317  39.997  1.00  0.00     0.018 A 
HETATM   15  C30 UNL     1      37.929 -10.106  39.995  1.00  0.00     0.017 A 
HETATM   16  C31 UNL     1      38.109  -9.391  38.804  1.00  0.00     0.015 A 
ENDROOT
BRANCH   9  17
HETATM   17  C12 UNL     1      38.685  -9.558  35.440  1.00  0.00    -0.043 A 
HETATM   18  C13 UNL     1      39.794 -10.335  35.685  1.00  0.00     0.009 A 
HETATM   19  C14 UNL     1      40.486 -10.942  34.640  1.00  0.00     0.012 A 
HETATM   20  C15 UNL     1      40.113 -10.807  33.327  1.00  0.00    -0.035 A 
HETATM   21  C25 UNL     1      38.981 -10.013  33.084  1.00  0.00     0.012 A 
HETATM   22  C26 UNL     1      38.302  -9.416  34.125  1.00  0.00     0.009 A 
BRANCH  20  23
HETATM   23  C16 UNL     1      40.823 -11.425  32.208  1.00  0.00     0.025 C 
HETATM   24  C17 UNL     1      41.993 -11.018  31.818  1.00  0.00    -0.006 A 
HETATM   25  C18 UNL     1      42.716  -9.913  32.435  1.00  0.00     0.119 A 
HETATM   26  C24 UNL     1      42.691 -11.704  30.717  1.00  0.00     0.004 A 
HETATM   27  N4  UNL     1      43.902  -9.572  32.024  1.00  0.00    -0.311 N 
HETATM   28  N5  UNL     1      44.562 -10.214  30.991  1.00  0.00    -0.300 N 
ATOM     29  H4  UNL     1      44.369  -8.791  32.487  1.00  0.00     0.186 HD
HETATM   30  C19 UNL     1      43.948 -11.319  30.306  1.00  0.00     0.059 A 
ATOM     31  H5  UNL     1      45.493  -9.901  30.714  1.00  0.00     0.187 HD
HETATM   32  C20 UNL     1      44.622 -11.946  29.280  1.00  0.00     0.032 A 
HETATM   33  C21 UNL     1      44.049 -12.991  28.630  1.00  0.00     0.002 A 
HETATM   34  C22 UNL     1      42.809 -13.412  28.997  1.00  0.00     0.001 A 
HETATM   35  C23 UNL     1      42.137 -12.765  30.039  1.00  0.00     0.014 A 
ENDBRANCH  20  23
ENDBRANCH   9  17
BRANCH   8  36
HETATM   36  N3  UNL     1      39.176  -6.398  35.542  1.00  0.00    -0.384 N 
ATOM     37  H32 UNL     1      39.274  -5.418  35.280  1.00  0.00     0.157 HD
ATOM     38  H31 UNL     1      39.021  -7.132  34.850  1.00  0.00     0.157 HD
ENDBRANCH   8  36
BRANCH   1  39
HETATM   39  C6  UNL     1      40.467  -4.617  37.215  1.00  0.00     0.046 A 
HETATM   40  C5  UNL     1      41.789  -4.502  36.835  1.00  0.00     0.030 A 
HETATM   41  C4  UNL     1      42.322  -3.297  36.409  1.00  0.00     0.003 A 
HETATM   42  C3  UNL     1      41.545  -2.168  36.349  1.00  0.00     0.007 A 
HETATM   43  C2  UNL     1      40.209  -2.263  36.728  1.00  0.00    -0.060 A 
HETATM   44  C1  UNL     1      39.367  -1.026  36.656  1.00  0.00     0.048 C 
HETATM   45  C32 UNL     1      39.701  -3.479  37.151  1.00  0.00     0.037 A 
ENDBRANCH   1  39
TORSDOF 4
ENDMDL
MODEL 2
REMARK VINA RESULT: -9.796577121      1.486      1.697
REMARK  4 active torsions:
REMARK  status: ('A' for Active; 'I' for Inactive)
REMARK    1  A    between atoms: C6_6  and  N1_7 
REMARK    2  A    between atoms: C10_14  and  N3_15 
REMARK    3  A    between atoms: C11_18  and  C12_19 
REMARK    4  A    between atoms: C15_22  and  C16_23 
ROOT
HETATM    1  N1  UNL     1      39.876  -5.277  37.754  1.00  0.00    -0.249 N 
HETATM    2  C7  UNL     1      40.089  -5.618  39.054  1.00  0.00     0.333 A 
HETATM    3  O1  UNL     1      40.631  -4.774  39.814  1.00  0.00    -0.246 OA
HETATM    4  N2  UNL     1      39.717  -6.827  39.464  1.00  0.00    -0.307 N 
ATOM      5  H2  UNL     1      39.872  -7.095  40.435  1.00  0.00     0.170 HD
HETATM    6  C8  UNL     1      39.138  -7.707  38.616  1.00  0.00     0.059 A 
HETATM    7  C9  UNL     1      38.902  -7.410  37.300  1.00  0.00     0.028 A 
HETATM    8  C10 UNL     1      39.301  -6.142  36.903  1.00  0.00     0.119 A 
HETATM    9  C11 UNL     1      38.275  -8.541  36.647  1.00  0.00     0.108 A 
HETATM   10  C27 UNL     1      38.141  -9.583  37.684  1.00  0.00     0.035 A 
HETATM   11  N6  UNL     1      37.645 -10.826  37.685  1.00  0.00    -0.368 N 
ATOM     12  H6  UNL     1      37.260 -11.210  36.822  1.00  0.00     0.165 HD
HETATM   13  C28 UNL     1      37.642 -11.576  38.791  1.00  0.00     0.088 A 
HETATM   14  C29 UNL     1      38.143 -11.134  39.997  1.00  0.00     0.018 A 
HETATM   15  C30 UNL     1      38.659  -9.849  40.007  1.00  0.00     0.017 A 
HETATM   16  C31 UNL     1      38.658  -9.068  38.843  1.00  0.00     0.015 A 
ENDROOT
BRANCH   9  17
HETATM   17  C12 UNL     1      38.989  -9.025  35.443  1.00  0.00    -0.043 A 
HETATM   18  C13 UNL     1      40.352  -9.218  35.479  1.00  0.00     0.009 A 
HETATM   19  C14 UNL     1      41.037  -9.684  34.359  1.00  0.00     0.012 A 
HETATM   20  C15 UNL     1      40.410  -9.975  33.175  1.00  0.00    -0.035 A 
HETATM   21  C25 UNL     1      39.020  -9.776  33.145  1.00  0.00     0.012 A 
HETATM   22  C26 UNL     1      38.351  -9.315  34.259  1.00  0.00     0.009 A 
BRANCH  20  23
HETATM   23  C16 UNL     1      41.102 -10.459  31.981  1.00  0.00     0.025 C 
HETATM   24  C17 UNL     1      41.223 -11.724  31.713  1.00  0.00    -0.006 A 
HETATM   25  C18 UNL     1      40.698 -12.788  32.561  1.00  0.00     0.119 A 
HETATM   26  C24 UNL     1      41.885 -12.162  30.472  1.00  0.00     0.004 A 
HETATM   27  N4  UNL     1      40.818 -14.038  32.223  1.00  0.00    -0.311 N 
HETATM   28  N5  UNL     1      41.438 -14.454  31.058  1.00  0.00    -0.300 N 
ATOM     29  H4  UNL     1      40.435 -14.747  32.849  1.00  0.00     0.186 HD
HETATM   30  C19 UNL     1      41.995 -13.495  30.144  1.00  0.00     0.059 A 
ATOM     31  H5  UNL     1      41.501 -15.450  30.848  1.00  0.00     0.187 HD
HETATM   32  C20 UNL     1      42.609 -13.930  28.988  1.00  0.00     0.032 A 
HETATM   33  C21 UNL     1      43.135 -13.029  28.118  1.00  0.00     0.002 A 
HETATM   34  C22 UNL     1      43.053 -11.701  28.395  1.00  0.00     0.001 A 
HETATM   35  C23 UNL     1      42.428 -11.275  29.572  1.00  0.00     0.014 A 
ENDBRANCH  20  23
ENDBRANCH   9  17
BRANCH   8  36
HETATM   36  N3  UNL     1      39.094  -5.836  35.667  1.00  0.00    -0.384 N 
ATOM     37  H32 UNL     1      39.922  -5.648  35.101  1.00  0.00     0.157 HD
ATOM     38  H31 UNL     1      38.151  -5.784  35.281  1.00  0.00     0.157 HD
ENDBRANCH   8  36
BRANCH   1  39
HETATM   39  C6  UNL     1      40.281  -3.975  37.329  1.00  0.00     0.046 A 
HETATM   40  C5  UNL     1      41.562  -3.664  36.924  1.00  0.00     0.030 A 
HETATM   41  C4  UNL     1      41.908  -2.385  36.518  1.00  0.00     0.003 A 
HETATM   42  C3  UNL     1      40.977  -1.377  36.506  1.00  0.00     0.007 A 
HETATM   43  C2  UNL     1      39.679  -1.671  36.912  1.00  0.00    -0.060 A 
HETATM   44  C1  UNL     1      38.668  -0.565  36.892  1.00  0.00     0.048 C 
HETATM   45  C32 UNL     1      39.360  -2.956  37.314  1.00  0.00     0.037 A 
ENDBRANCH   1  39
TORSDOF 4
ENDMDL
MODEL 3
REMARK VINA RESULT: -9.795945197      4.431      9.075
REMARK  4 active torsions:
REMARK  status: ('A' for Active; 'I' for Inactive)
REMARK    1  A    between atoms: C6_6  and  N1_7 
REMARK    2  A    between atoms: C10_14  and  N3_15 
REMARK    3  A    between atoms: C11_18  and  C12_19 
REMARK    4  A    between atoms: C15_22  and  C16_23 
ROOT
HETATM    1  N1  UNL     1      38.500  -9.802  38.338  1.00  0.00    -0.249 N 
HETATM    2  C7  UNL     1      38.556 -10.241  39.625  1.00  0.00     0.333 A 
HETATM    3  O1  UNL     1      37.687 -11.061  40.016  1.00  0.00    -0.246 OA
HETATM    4  N2  UNL     1      39.526  -9.783  40.411  1.00  0.00    -0.307 N 
ATOM      5  H2  UNL     1      39.579 -10.103  41.378  1.00  0.00     0.170 HD
HETATM    6  C8  UNL     1      40.443  -8.900  39.953  1.00  0.00     0.059 A 
HETATM    7  C9  UNL     1      40.428  -8.431  38.667  1.00  0.00     0.028 A 
HETATM    8  C10 UNL     1      39.405  -8.927  37.871  1.00  0.00     0.119 A 
HETATM    9  C11 UNL     1      41.526  -7.506  38.470  1.00  0.00     0.108 A 
HETATM   10  C27 UNL     1      42.234  -7.438  39.763  1.00  0.00     0.035 A 
HETATM   11  N6  UNL     1      43.309  -6.766  40.195  1.00  0.00    -0.368 N 
ATOM     12  H6  UNL     1      43.798  -6.145  39.551  1.00  0.00     0.165 HD
HETATM   13  C28 UNL     1      43.754  -6.891  41.448  1.00  0.00     0.088 A 
HETATM   14  C29 UNL     1      43.150  -7.709  42.380  1.00  0.00     0.018 A 
HETATM   15  C30 UNL     1      42.037  -8.409  41.944  1.00  0.00     0.017 A 
HETATM   16  C31 UNL     1      41.576  -8.273  40.628  1.00  0.00     0.015 A 
ENDROOT
BRANCH   9  17
HETATM   17  C12 UNL     1      41.119  -6.171  37.974  1.00  0.00    -0.043 A 
HETATM   18  C13 UNL     1      40.326  -5.356  38.751  1.00  0.00     0.009 A 
HETATM   19  C14 UNL     1      39.945  -4.094  38.304  1.00  0.00     0.012 A 
HETATM   20  C15 UNL     1      40.328  -3.592  37.087  1.00  0.00    -0.035 A 
HETATM   21  C25 UNL     1      41.137  -4.427  36.299  1.00  0.00     0.012 A 
HETATM   22  C26 UNL     1      41.509  -5.675  36.750  1.00  0.00     0.009 A 
BRANCH  20  23
HETATM   23  C16 UNL     1      39.938  -2.274  36.587  1.00  0.00     0.025 C 
HETATM   24  C17 UNL     1      38.879  -2.093  35.857  1.00  0.00    -0.006 A 
HETATM   25  C18 UNL     1      37.979  -3.166  35.452  1.00  0.00     0.119 A 
HETATM   26  C24 UNL     1      38.499  -0.740  35.418  1.00  0.00     0.004 A 
HETATM   27  N4  UNL     1      36.912  -2.921  34.749  1.00  0.00    -0.311 N 
HETATM   28  N5  UNL     1      36.551  -1.651  34.336  1.00  0.00    -0.300 N 
ATOM     29  H4  UNL     1      36.312  -3.704  34.490  1.00  0.00     0.186 HD
HETATM   30  C19 UNL     1      37.362  -0.513  34.674  1.00  0.00     0.059 A 
ATOM     31  H5  UNL     1      35.701  -1.521  33.786  1.00  0.00     0.187 HD
HETATM   32  C20 UNL     1      36.985   0.744  34.253  1.00  0.00     0.032 A 
HETATM   33  C21 UNL     1      37.745   1.824  34.571  1.00  0.00     0.002 A 
HETATM   34  C22 UNL     1      38.878   1.655  35.304  1.00  0.00     0.001 A 
HETATM   35  C23 UNL     1      39.249   0.373  35.723  1.00  0.00     0.014 A 
ENDBRANCH  20  23
ENDBRANCH   9  17
BRANCH   8  36
HETATM   36  N3  UNL     1      39.365  -8.498  36.655  1.00  0.00    -0.384 N 
ATOM     37  H32 UNL     1      38.522  -8.717  36.124  1.00  0.00     0.157 HD
ATOM     38  H31 UNL     1      40.138  -7.970  36.249  1.00  0.00     0.157 HD
ENDBRANCH   8  36
BRANCH   1  39
HETATM   39  C6  UNL     1      37.453 -10.303  37.506  1.00  0.00     0.046 A 
HETATM   40  C5  UNL     1      36.147  -9.864  37.568  1.00  0.00     0.030 A 
HETATM   41  C4  UNL     1      35.164 -10.379  36.738  1.00  0.00     0.003 A 
HETATM   42  C3  UNL     1      35.463 -11.352  35.818  1.00  0.00     0.007 A 
HETATM   43  C2  UNL     1      36.775 -11.808  35.740  1.00  0.00    -0.060 A 
HETATM   44  C1  UNL     1      37.093 -12.868  34.728  1.00  0.00     0.048 C 
HETATM   45  C32 UNL     1      37.737 -11.278  36.581  1.00  0.00     0.037 A 
ENDBRANCH   1  39
TORSDOF 4
ENDMDL
MODEL 4
REMARK VINA RESULT: -9.499180619      3.944      8.903
REMARK  4 active torsions:
REMARK  status: ('A' for Active; 'I' for Inactive)
REMARK    1  A    between atoms: C6_6  and  N1_7 
REMARK    2  A    between atoms: C10_14  and  N3_15 
REMARK    3  A    between atoms: C11_18  and  C12_19 
REMARK    4  A    between atoms: C15_22  and  C16_23 
ROOT
HETATM    1  N1  UNL     1      37.425 -10.820  35.833  1.00  0.00    -0.249 N 
HETATM    2  C7  UNL     1      37.368 -11.939  35.060  1.00  0.00     0.333 A 
HETATM    3  O1  UNL     1      36.369 -12.696  35.173  1.00  0.00    -0.246 OA
HETATM    4  N2  UNL     1      38.371 -12.184  34.222  1.00  0.00    -0.307 N 
ATOM      5  H2  UNL     1      38.341 -13.019  33.637  1.00  0.00     0.170 HD
HETATM    6  C8  UNL     1      39.428 -11.346  34.129  1.00  0.00     0.059 A 
HETATM    7  C9  UNL     1      39.529 -10.209  34.885  1.00  0.00     0.028 A 
HETATM    8  C10 UNL     1      38.469  -9.981  35.750  1.00  0.00     0.119 A 
HETATM    9  C11 UNL     1      40.763  -9.519  34.568  1.00  0.00     0.108 A 
HETATM   10  C27 UNL     1      41.431 -10.337  33.538  1.00  0.00     0.035 A 
HETATM   11  N6  UNL     1      42.583 -10.217  32.865  1.00  0.00    -0.368 N 
ATOM     12  H6  UNL     1      43.184  -9.414  33.048  1.00  0.00     0.165 HD
HETATM   13  C28 UNL     1      42.961 -11.123  31.959  1.00  0.00     0.088 A 
HETATM   14  C29 UNL     1      42.206 -12.236  31.652  1.00  0.00     0.018 A 
HETATM   15  C30 UNL     1      41.013 -12.371  32.343  1.00  0.00     0.017 A 
HETATM   16  C31 UNL     1      40.623 -11.416  33.292  1.00  0.00     0.015 A 
ENDROOT
BRANCH   9  17
HETATM   17  C12 UNL     1      41.634  -9.255  35.738  1.00  0.00    -0.043 A 
HETATM   18  C13 UNL     1      42.346  -8.079  35.819  1.00  0.00     0.009 A 
HETATM   19  C14 UNL     1      43.159  -7.811  36.917  1.00  0.00     0.012 A 
HETATM   20  C15 UNL     1      43.299  -8.683  37.966  1.00  0.00    -0.035 A 
HETATM   21  C25 UNL     1      42.571  -9.881  37.877  1.00  0.00     0.012 A 
HETATM   22  C26 UNL     1      41.768 -10.137  36.786  1.00  0.00     0.009 A 
BRANCH  20  23
HETATM   23  C16 UNL     1      44.151  -8.434  39.128  1.00  0.00     0.025 C 
HETATM   24  C17 UNL     1      43.794  -7.639  40.093  1.00  0.00    -0.006 A 
HETATM   25  C18 UNL     1      42.531  -6.913  40.121  1.00  0.00     0.119 A 
HETATM   26  C24 UNL     1      44.664  -7.457  41.267  1.00  0.00     0.004 A 
HETATM   27  N4  UNL     1      42.211  -6.158  41.131  1.00  0.00    -0.311 N 
HETATM   28  N5  UNL     1      43.024  -5.985  42.237  1.00  0.00    -0.300 N 
ATOM     29  H4  UNL     1      41.316  -5.669  41.106  1.00  0.00     0.186 HD
HETATM   30  C19 UNL     1      44.296  -6.651  42.321  1.00  0.00     0.059 A 
ATOM     31  H5  UNL     1      42.719  -5.379  42.999  1.00  0.00     0.187 HD
HETATM   32  C20 UNL     1      45.092  -6.466  43.432  1.00  0.00     0.032 A 
HETATM   33  C21 UNL     1      46.293  -7.093  43.519  1.00  0.00     0.002 A 
HETATM   34  C22 UNL     1      46.703  -7.902  42.506  1.00  0.00     0.001 A 
HETATM   35  C23 UNL     1      45.886  -8.079  41.384  1.00  0.00     0.014 A 
ENDBRANCH  20  23
ENDBRANCH   9  17
BRANCH   8  36
HETATM   36  N3  UNL     1      38.540  -8.917  36.477  1.00  0.00    -0.384 N 
ATOM     37  H32 UNL     1      37.967  -8.906  37.321  1.00  0.00     0.157 HD
ATOM     38  H31 UNL     1      39.136  -8.131  36.216  1.00  0.00     0.157 HD
ENDBRANCH   8  36
BRANCH   1  39
HETATM   39  C6  UNL     1      36.340 -10.571  36.729  1.00  0.00     0.046 A 
HETATM   40  C5  UNL     1      35.012 -10.628  36.361  1.00  0.00     0.030 A 
HETATM   41  C4  UNL     1      33.994 -10.380  37.267  1.00  0.00     0.003 A 
HETATM   42  C3  UNL     1      34.277 -10.067  38.573  1.00  0.00     0.007 A 
HETATM   43  C2  UNL     1      35.612 -10.004  38.963  1.00  0.00    -0.060 A 
HETATM   44  C1  UNL     1      35.912  -9.666  40.392  1.00  0.00     0.048 C 
HETATM   45  C32 UNL     1      36.609 -10.255  38.039  1.00  0.00     0.037 A 
ENDBRANCH   1  39
TORSDOF 4
ENDMDL
MODEL 5
REMARK VINA RESULT: -9.355235976      4.788      9.016
REMARK  4 active torsions:
REMARK  status: ('A' for Active; 'I' for Inactive)
REMARK    1  A    between atoms: C6_6  and  N1_7 
REMARK    2  A    between atoms: C10_14  and  N3_15 
REMARK    3  A    between atoms: C11_18  and  C12_19 
REMARK    4  A    between atoms: C15_22  and  C16_23 
ROOT
HETATM    1  N1  UNL     1      38.547  -9.795  38.546  1.00  0.00    -0.249 N 
HETATM    2  C7  UNL     1      38.649 -10.217  39.835  1.00  0.00     0.333 A 
HETATM    3  O1  UNL     1      37.790 -11.028  40.270  1.00  0.00    -0.246 OA
HETATM    4  N2  UNL     1      39.649  -9.754  40.579  1.00  0.00    -0.307 N 
ATOM      5  H2  UNL     1      39.737 -10.062  41.547  1.00  0.00     0.170 HD
HETATM    6  C8  UNL     1      40.552  -8.882  40.075  1.00  0.00     0.059 A 
HETATM    7  C9  UNL     1      40.492  -8.430  38.784  1.00  0.00     0.028 A 
HETATM    8  C10 UNL     1      39.438  -8.931  38.034  1.00  0.00     0.119 A 
HETATM    9  C11 UNL     1      41.587  -7.514  38.535  1.00  0.00     0.108 A 
HETATM   10  C27 UNL     1      42.342  -7.433  39.800  1.00  0.00     0.035 A 
HETATM   11  N6  UNL     1      43.435  -6.761  40.182  1.00  0.00    -0.368 N 
ATOM     12  H6  UNL     1      43.904  -6.151  39.512  1.00  0.00     0.165 HD
HETATM   13  C28 UNL     1      43.927  -6.871  41.419  1.00  0.00     0.088 A 
HETATM   14  C29 UNL     1      43.354  -7.673  42.384  1.00  0.00     0.018 A 
HETATM   15  C30 UNL     1      42.222  -8.373  42.000  1.00  0.00     0.017 A 
HETATM   16  C31 UNL     1      41.713  -8.252  40.700  1.00  0.00     0.015 A 
ENDROOT
BRANCH   9  17
HETATM   17  C12 UNL     1      41.168  -6.183  38.036  1.00  0.00    -0.043 A 
HETATM   18  C13 UNL     1      40.377  -5.370  38.815  1.00  0.00     0.009 A 
HETATM   19  C14 UNL     1      39.984  -4.112  38.366  1.00  0.00     0.012 A 
HETATM   20  C15 UNL     1      40.355  -3.613  37.144  1.00  0.00    -0.035 A 
HETATM   21  C25 UNL     1      41.162  -4.447  36.353  1.00  0.00     0.012 A 
HETATM   22  C26 UNL     1      41.545  -5.691  36.807  1.00  0.00     0.009 A 
BRANCH  20  23
HETATM   23  C16 UNL     1      39.954  -2.299  36.641  1.00  0.00     0.025 C 
HETATM   24  C17 UNL     1      38.893  -2.130  35.909  1.00  0.00    -0.006 A 
HETATM   25  C18 UNL     1      38.005  -3.212  35.505  1.00  0.00     0.119 A 
HETATM   26  C24 UNL     1      38.502  -0.781  35.467  1.00  0.00     0.004 A 
HETATM   27  N4  UNL     1      36.937  -2.978  34.800  1.00  0.00    -0.311 N 
HETATM   28  N5  UNL     1      36.564  -1.712  34.384  1.00  0.00    -0.300 N 
ATOM     29  H4  UNL     1      36.345  -3.767  34.541  1.00  0.00     0.186 HD
HETATM   30  C19 UNL     1      37.364  -0.566  34.722  1.00  0.00     0.059 A 
ATOM     31  H5  UNL     1      35.714  -1.591  33.833  1.00  0.00     0.187 HD
HETATM   32  C20 UNL     1      36.976   0.687  34.298  1.00  0.00     0.032 A 
HETATM   33  C21 UNL     1      37.725   1.774  34.615  1.00  0.00     0.002 A 
HETATM   34  C22 UNL     1      38.858   1.618  35.351  1.00  0.00     0.001 A 
HETATM   35  C23 UNL     1      39.241   0.340  35.772  1.00  0.00     0.014 A 
ENDBRANCH  20  23
ENDBRANCH   9  17
BRANCH   8  36
HETATM   36  N3  UNL     1      39.355  -8.518  36.814  1.00  0.00    -0.384 N 
ATOM     37  H32 UNL     1      38.555  -7.928  36.589  1.00  0.00     0.157 HD
ATOM     38  H31 UNL     1      40.053  -8.774  36.116  1.00  0.00     0.157 HD
ENDBRANCH   8  36
BRANCH   1  39
HETATM   39  C6  UNL     1      37.467 -10.301  37.760  1.00  0.00     0.046 A 
HETATM   40  C5  UNL     1      37.636 -11.082  36.635  1.00  0.00     0.030 A 
HETATM   41  C4  UNL     1      36.557 -11.552  35.905  1.00  0.00     0.003 A 
HETATM   42  C3  UNL     1      35.271 -11.253  36.282  1.00  0.00     0.007 A 
HETATM   43  C2  UNL     1      35.080 -10.466  37.413  1.00  0.00    -0.060 A 
HETATM   44  C1  UNL     1      33.673 -10.147  37.819  1.00  0.00     0.048 C 
HETATM   45  C32 UNL     1      36.175 -10.008  38.124  1.00  0.00     0.037 A 
ENDBRANCH   1  39
TORSDOF 4
ENDMDL
