MODEL 1
REMARK VINA RESULT: -6.958095383      0.000      0.000
REMARK  11 active torsions:
REMARK  status: ('A' for Active; 'I' for Inactive)
REMARK    1  A    between atoms: C5_6  and  C6_7 
REMARK    2  A    between atoms: C10_13  and  N3_14 
REMARK    3  A    between atoms: C13_19  and  C15_22 
REMARK    4  A    between atoms: C15_22  and  C16_23 
REMARK    5  A    between atoms: C17_24  and  C18_25 
REMARK    6  A    between atoms: C19_26  and  C20_27 
REMARK    7  A    between atoms: C21_28  and  C22_29 
REMARK    8  A    between atoms: C23_30  and  C24_31 
REMARK    9  A    between atoms: C24_31  and  O2_32 
REMARK   10  A    between atoms: C24_31  and  C25_34 
REMARK   11  A    between atoms: C25_34  and  O3_37 
ROOT
HETATM    1  N3  UNL     1     -19.840  34.028  -3.864  1.00  0.00    -0.284 N 
HETATM    2  C11 UNL     1     -18.726  33.224  -3.557  1.00  0.00     0.235 C 
HETATM    3  O1  UNL     1     -18.450  32.112  -4.144  1.00  0.00    -0.272 OA
HETATM    4  C12 UNL     1     -17.880  33.787  -2.471  1.00  0.00     0.180 C 
HETATM    5  S1  UNL     1     -19.044  34.927  -1.672  1.00  0.00    -0.112 SA
HETATM    6  C13 UNL     1     -20.548  34.509  -2.698  1.00  0.00     0.188 C 
HETATM    7  C14 UNL     1     -21.276  35.750  -2.967  1.00  0.00     0.104 C 
HETATM    8  N4  UNL     1     -21.837  36.744  -3.186  1.00  0.00    -0.194 NA
ENDROOT
BRANCH   6   9
HETATM    9  C15 UNL     1     -21.311  33.542  -1.896  1.00  0.00     0.154 C 
BRANCH   9  10
HETATM   10  C16 UNL     1     -22.604  33.128  -2.383  1.00  0.00    -0.088 C 
HETATM   11  C17 UNL     1     -23.658  32.702  -2.781  1.00  0.00    -0.015 C 
BRANCH  11  12
HETATM   12  C18 UNL     1     -24.869  32.115  -3.250  1.00  0.00    -0.010 C 
HETATM   13  C19 UNL     1     -25.882  31.547  -3.648  1.00  0.00    -0.064 C 
BRANCH  13  14
HETATM   14  C20 UNL     1     -27.031  30.822  -4.100  1.00  0.00     0.074 C 
HETATM   15  C21 UNL     1     -26.936  29.791  -4.893  1.00  0.00     0.073 C 
BRANCH  15  16
HETATM   16  C22 UNL     1     -28.132  29.100  -5.316  1.00  0.00    -0.075 C 
HETATM   17  C23 UNL     1     -29.158  28.512  -5.644  1.00  0.00    -0.067 C 
BRANCH  17  18
HETATM   18  C24 UNL     1     -30.397  27.804  -6.000  1.00  0.00     0.230 C 
BRANCH  18  19
HETATM   19  O2  UNL     1     -30.476  26.621  -5.312  1.00  0.00    -0.380 OA
ATOM     20  H2  UNL     1     -31.331  26.538  -4.905  1.00  0.00     0.211 HD
ENDBRANCH  18  19
BRANCH  18  21
HETATM   21  C25 UNL     1     -31.612  28.677  -5.694  1.00  0.00     0.087 C 
HETATM   22  C26 UNL     1     -31.580  29.950  -6.471  1.00  0.00     0.049 C 
HETATM   23  C27 UNL     1     -32.866  27.862  -5.905  1.00  0.00     0.049 C 
BRANCH  21  24
HETATM   24  O3  UNL     1     -31.509  29.012  -4.336  1.00  0.00    -0.387 OA
ATOM     25  H3  UNL     1     -32.213  29.628  -4.168  1.00  0.00     0.210 HD
ENDBRANCH  21  24
ENDBRANCH  18  21
ENDBRANCH  17  18
ENDBRANCH  15  16
ENDBRANCH  13  14
ENDBRANCH  11  12
ENDBRANCH   9  10
ENDBRANCH   6   9
BRANCH   1  26
HETATM   26  C10 UNL     1     -20.331  34.423  -5.158  1.00  0.00     0.041 A 
HETATM   27  C9  UNL     1     -21.577  33.997  -5.557  1.00  0.00     0.032 A 
HETATM   28  C8  UNL     1     -22.166  34.391  -6.713  1.00  0.00     0.033 A 
HETATM   29  C7  UNL     1     -21.512  35.276  -7.585  1.00  0.00     0.050 A 
HETATM   30  N2  UNL     1     -21.984  35.754  -8.699  1.00  0.00    -0.352 N 
HETATM   31  C29 UNL     1     -20.262  35.709  -7.200  1.00  0.00     0.035 A 
HETATM   32  C6  UNL     1     -21.293  36.605  -9.408  1.00  0.00     0.058 A 
ATOM     33  H2  UNL     1     -22.906  35.460  -9.023  1.00  0.00     0.166 HD
HETATM   34  S2  UNL     1     -19.860  36.770  -8.476  1.00  0.00    -0.074 SA
HETATM   35  C28 UNL     1     -19.677  35.285  -6.002  1.00  0.00     0.051 A 
BRANCH  32  36
HETATM   36  C5  UNL     1     -21.675  37.307 -10.717  1.00  0.00     0.071 C 
HETATM   37  C4  UNL     1     -20.464  38.001 -11.190  1.00  0.00     0.015 C 
HETATM   38  C3  UNL     1     -20.759  39.050 -12.199  1.00  0.00     0.031 C 
HETATM   39  C2  UNL     1     -22.199  39.117 -12.583  1.00  0.00     0.272 C 
HETATM   40  N1  UNL     1     -23.090  39.121 -11.471  1.00  0.00     0.085 N 
HETATM   41  C1  UNL     1     -23.474  40.465 -11.056  1.00  0.00     0.309 C 
HETATM   42  C30 UNL     1     -22.777  38.281 -10.383  1.00  0.00     0.283 C 
ENDBRANCH  32  36
ENDBRANCH   1  26
TORSDOF 11
ENDMDL
MODEL 2
REMARK VINA RESULT: -6.806919166      0.955      1.225
REMARK  11 active torsions:
REMARK  status: ('A' for Active; 'I' for Inactive)
REMARK    1  A    between atoms: C5_6  and  C6_7 
REMARK    2  A    between atoms: C10_13  and  N3_14 
REMARK    3  A    between atoms: C13_19  and  C15_22 
REMARK    4  A    between atoms: C15_22  and  C16_23 
REMARK    5  A    between atoms: C17_24  and  C18_25 
REMARK    6  A    between atoms: C19_26  and  C20_27 
REMARK    7  A    between atoms: C21_28  and  C22_29 
REMARK    8  A    between atoms: C23_30  and  C24_31 
REMARK    9  A    between atoms: C24_31  and  O2_32 
REMARK   10  A    between atoms: C24_31  and  C25_34 
REMARK   11  A    between atoms: C25_34  and  O3_37 
ROOT
HETATM    1  N3  UNL     1     -19.791  33.999  -3.988  1.00  0.00    -0.284 N 
HETATM    2  C11 UNL     1     -18.669  33.190  -3.730  1.00  0.00     0.235 C 
HETATM    3  O1  UNL     1     -18.392  32.108  -4.368  1.00  0.00    -0.272 OA
HETATM    4  C12 UNL     1     -17.815  33.711  -2.629  1.00  0.00     0.180 C 
HETATM    5  S1  UNL     1     -18.977  34.806  -1.768  1.00  0.00    -0.112 SA
HETATM    6  C13 UNL     1     -20.490  34.423  -2.794  1.00  0.00     0.188 C 
HETATM    7  C14 UNL     1     -21.230  35.669  -3.000  1.00  0.00     0.104 C 
HETATM    8  N4  UNL     1     -21.800  36.667  -3.168  1.00  0.00    -0.194 NA
ENDROOT
BRANCH   6   9
HETATM    9  C15 UNL     1     -21.237  33.415  -2.028  1.00  0.00     0.154 C 
BRANCH   9  10
HETATM   10  C16 UNL     1     -22.590  33.123  -2.432  1.00  0.00    -0.088 C 
HETATM   11  C17 UNL     1     -23.693  32.803  -2.797  1.00  0.00    -0.015 C 
BRANCH  11  12
HETATM   12  C18 UNL     1     -24.961  32.350  -3.265  1.00  0.00    -0.010 C 
HETATM   13  C19 UNL     1     -26.023  31.948  -3.730  1.00  0.00    -0.064 C 
BRANCH  13  14
HETATM   14  C20 UNL     1     -27.227  31.463  -4.334  1.00  0.00     0.074 C 
HETATM   15  C21 UNL     1     -27.320  30.264  -4.837  1.00  0.00     0.073 C 
BRANCH  15  16
HETATM   16  C22 UNL     1     -28.563  29.831  -5.433  1.00  0.00    -0.075 C 
HETATM   17  C23 UNL     1     -29.620  29.492  -5.955  1.00  0.00    -0.067 C 
BRANCH  17  18
HETATM   18  C24 UNL     1     -30.891  29.122  -6.595  1.00  0.00     0.230 C 
BRANCH  18  19
HETATM   19  O2  UNL     1     -30.654  28.324  -7.684  1.00  0.00    -0.380 OA
ATOM     20  H2  UNL     1     -29.804  28.526  -8.057  1.00  0.00     0.211 HD
ENDBRANCH  18  19
BRANCH  18  21
HETATM   21  C25 UNL     1     -31.796  28.402  -5.597  1.00  0.00     0.087 C 
HETATM   22  C26 UNL     1     -33.237  28.585  -5.935  1.00  0.00     0.049 C 
HETATM   23  C27 UNL     1     -31.367  26.956  -5.504  1.00  0.00     0.049 C 
BRANCH  21  24
HETATM   24  O3  UNL     1     -31.572  29.025  -4.361  1.00  0.00    -0.387 OA
ATOM     25  H3  UNL     1     -32.040  28.503  -3.720  1.00  0.00     0.210 HD
ENDBRANCH  21  24
ENDBRANCH  18  21
ENDBRANCH  17  18
ENDBRANCH  15  16
ENDBRANCH  13  14
ENDBRANCH  11  12
ENDBRANCH   9  10
ENDBRANCH   6   9
BRANCH   1  26
HETATM   26  C10 UNL     1     -20.299  34.447  -5.258  1.00  0.00     0.041 A 
HETATM   27  C9  UNL     1     -21.559  34.056  -5.648  1.00  0.00     0.032 A 
HETATM   28  C8  UNL     1     -22.164  34.500  -6.778  1.00  0.00     0.033 A 
HETATM   29  C7  UNL     1     -21.511  35.405  -7.631  1.00  0.00     0.050 A 
HETATM   30  N2  UNL     1     -21.996  35.929  -8.718  1.00  0.00    -0.352 N 
HETATM   31  C29 UNL     1     -20.247  35.804  -7.255  1.00  0.00     0.035 A 
HETATM   32  C6  UNL     1     -21.304  36.793  -9.410  1.00  0.00     0.058 A 
ATOM     33  H2  UNL     1     -22.928  35.662  -9.034  1.00  0.00     0.166 HD
HETATM   34  S2  UNL     1     -19.852  36.903  -8.500  1.00  0.00    -0.074 SA
HETATM   35  C28 UNL     1     -19.648  35.328  -6.083  1.00  0.00     0.051 A 
BRANCH  32  36
HETATM   36  C5  UNL     1     -21.699  37.547 -10.686  1.00  0.00     0.071 C 
HETATM   37  C4  UNL     1     -21.544  36.596 -11.801  1.00  0.00     0.015 C 
HETATM   38  C3  UNL     1     -21.481  37.266 -13.124  1.00  0.00     0.031 C 
HETATM   39  C2  UNL     1     -21.677  38.743 -13.052  1.00  0.00     0.272 C 
HETATM   40  N1  UNL     1     -20.890  39.378 -12.048  1.00  0.00     0.085 N 
HETATM   41  C1  UNL     1     -19.629  39.898 -12.560  1.00  0.00     0.309 C 
HETATM   42  C30 UNL     1     -20.748  38.711 -10.815  1.00  0.00     0.283 C 
ENDBRANCH  32  36
ENDBRANCH   1  26
TORSDOF 11
ENDMDL
MODEL 3
REMARK VINA RESULT: -6.755354494      4.874     10.295
REMARK  11 active torsions:
REMARK  status: ('A' for Active; 'I' for Inactive)
REMARK    1  A    between atoms: C5_6  and  C6_7 
REMARK    2  A    between atoms: C10_13  and  N3_14 
REMARK    3  A    between atoms: C13_19  and  C15_22 
REMARK    4  A    between atoms: C15_22  and  C16_23 
REMARK    5  A    between atoms: C17_24  and  C18_25 
REMARK    6  A    between atoms: C19_26  and  C20_27 
REMARK    7  A    between atoms: C21_28  and  C22_29 
REMARK    8  A    between atoms: C23_30  and  C24_31 
REMARK    9  A    between atoms: C24_31  and  O2_32 
REMARK   10  A    between atoms: C24_31  and  C25_34 
REMARK   11  A    between atoms: C25_34  and  O3_37 
ROOT
HETATM    1  N3  UNL     1     -24.544  38.334 -10.609  1.00  0.00    -0.284 N 
HETATM    2  C11 UNL     1     -24.955  37.710 -11.801  1.00  0.00     0.235 C 
HETATM    3  O1  UNL     1     -24.958  36.437 -11.990  1.00  0.00    -0.272 OA
HETATM    4  C12 UNL     1     -25.396  38.675 -12.843  1.00  0.00     0.180 C 
HETATM    5  S1  UNL     1     -24.608  40.204 -12.265  1.00  0.00    -0.112 SA
HETATM    6  C13 UNL     1     -23.679  39.475 -10.818  1.00  0.00     0.188 C 
HETATM    7  C14 UNL     1     -23.743  40.427  -9.708  1.00  0.00     0.104 C 
HETATM    8  N4  UNL     1     -23.813  41.185  -8.830  1.00  0.00    -0.194 NA
ENDROOT
BRANCH   6   9
HETATM    9  C15 UNL     1     -22.314  39.236 -11.310  1.00  0.00     0.154 C 
BRANCH   9  10
HETATM   10  C16 UNL     1     -21.445  38.402 -10.517  1.00  0.00    -0.088 C 
HETATM   11  C17 UNL     1     -20.785  37.690  -9.803  1.00  0.00    -0.015 C 
BRANCH  11  12
HETATM   12  C18 UNL     1     -20.076  36.842  -8.903  1.00  0.00    -0.010 C 
HETATM   13  C19 UNL     1     -19.523  36.105  -8.093  1.00  0.00    -0.064 C 
BRANCH  13  14
HETATM   14  C20 UNL     1     -18.943  35.235  -7.115  1.00  0.00     0.074 C 
HETATM   15  C21 UNL     1     -19.640  34.332  -6.484  1.00  0.00     0.073 C 
BRANCH  15  16
HETATM   16  C22 UNL     1     -18.998  33.484  -5.507  1.00  0.00    -0.075 C 
HETATM   17  C23 UNL     1     -18.473  32.775  -4.655  1.00  0.00    -0.067 C 
BRANCH  17  18
HETATM   18  C24 UNL     1     -17.863  31.944  -3.605  1.00  0.00     0.230 C 
BRANCH  18  19
HETATM   19  O2  UNL     1     -16.502  32.100  -3.614  1.00  0.00    -0.380 OA
ATOM     20  H2  UNL     1     -16.120  31.676  -2.854  1.00  0.00     0.211 HD
ENDBRANCH  18  19
BRANCH  18  21
HETATM   21  C25 UNL     1     -18.431  32.319  -2.238  1.00  0.00     0.087 C 
HETATM   22  C26 UNL     1     -18.289  31.199  -1.261  1.00  0.00     0.049 C 
HETATM   23  C27 UNL     1     -17.796  33.613  -1.783  1.00  0.00     0.049 C 
BRANCH  21  24
HETATM   24  O3  UNL     1     -19.803  32.529  -2.438  1.00  0.00    -0.387 OA
ATOM     25  H3  UNL     1     -20.208  32.421  -1.586  1.00  0.00     0.210 HD
ENDBRANCH  21  24
ENDBRANCH  18  21
ENDBRANCH  17  18
ENDBRANCH  15  16
ENDBRANCH  13  14
ENDBRANCH  11  12
ENDBRANCH   9  10
ENDBRANCH   6   9
BRANCH   1  26
HETATM   26  C10 UNL     1     -24.881  37.987  -9.253  1.00  0.00     0.041 A 
HETATM   27  C9  UNL     1     -26.161  38.219  -8.805  1.00  0.00     0.032 A 
HETATM   28  C8  UNL     1     -26.603  37.842  -7.579  1.00  0.00     0.033 A 
HETATM   29  C7  UNL     1     -25.750  37.180  -6.682  1.00  0.00     0.050 A 
HETATM   30  N2  UNL     1     -26.063  36.739  -5.499  1.00  0.00    -0.352 N 
HETATM   31  C29 UNL     1     -24.463  36.944  -7.116  1.00  0.00     0.035 A 
HETATM   32  C6  UNL     1     -25.189  36.101  -4.770  1.00  0.00     0.058 A 
ATOM     33  H2  UNL     1     -27.005  36.892  -5.138  1.00  0.00     0.166 HD
HETATM   34  S2  UNL     1     -23.803  36.104  -5.784  1.00  0.00    -0.074 SA
HETATM   35  C28 UNL     1     -24.034  37.345  -8.386  1.00  0.00     0.051 A 
BRANCH  32  36
HETATM   36  C5  UNL     1     -25.362  35.475  -3.380  1.00  0.00     0.071 C 
HETATM   37  C4  UNL     1     -24.206  35.910  -2.577  1.00  0.00     0.015 C 
HETATM   38  C3  UNL     1     -24.000  35.077  -1.366  1.00  0.00     0.031 C 
HETATM   39  C2  UNL     1     -25.054  34.039  -1.173  1.00  0.00     0.272 C 
HETATM   40  N1  UNL     1     -25.339  33.285  -2.348  1.00  0.00     0.085 N 
HETATM   41  C1  UNL     1     -24.584  32.040  -2.421  1.00  0.00     0.309 C 
HETATM   42  C30 UNL     1     -25.369  33.980  -3.575  1.00  0.00     0.283 C 
ENDBRANCH  32  36
ENDBRANCH   1  26
TORSDOF 11
ENDMDL
MODEL 4
REMARK VINA RESULT: -6.679450860      4.424     11.595
REMARK  11 active torsions:
REMARK  status: ('A' for Active; 'I' for Inactive)
REMARK    1  A    between atoms: C5_6  and  C6_7 
REMARK    2  A    between atoms: C10_13  and  N3_14 
REMARK    3  A    between atoms: C13_19  and  C15_22 
REMARK    4  A    between atoms: C15_22  and  C16_23 
REMARK    5  A    between atoms: C17_24  and  C18_25 
REMARK    6  A    between atoms: C19_26  and  C20_27 
REMARK    7  A    between atoms: C21_28  and  C22_29 
REMARK    8  A    between atoms: C23_30  and  C24_31 
REMARK    9  A    between atoms: C24_31  and  O2_32 
REMARK   10  A    between atoms: C24_31  and  C25_34 
REMARK   11  A    between atoms: C25_34  and  O3_37 
ROOT
HETATM    1  N3  UNL     1     -26.857  32.859  -7.009  1.00  0.00    -0.284 N 
HETATM    2  C11 UNL     1     -27.284  31.729  -7.731  1.00  0.00     0.235 C 
HETATM    3  O1  UNL     1     -26.492  30.852  -8.240  1.00  0.00    -0.272 OA
HETATM    4  C12 UNL     1     -28.763  31.639  -7.853  1.00  0.00     0.180 C 
HETATM    5  S1  UNL     1     -29.249  33.357  -7.528  1.00  0.00    -0.112 SA
HETATM    6  C13 UNL     1     -27.533  34.081  -7.386  1.00  0.00     0.188 C 
HETATM    7  C14 UNL     1     -27.541  35.065  -6.303  1.00  0.00     0.104 C 
HETATM    8  N4  UNL     1     -27.557  35.834  -5.433  1.00  0.00    -0.194 NA
ENDROOT
BRANCH   6   9
HETATM    9  C15 UNL     1     -27.243  34.660  -8.706  1.00  0.00     0.154 C 
BRANCH   9  10
HETATM   10  C16 UNL     1     -26.108  35.542  -8.824  1.00  0.00    -0.088 C 
HETATM   11  C17 UNL     1     -25.115  36.213  -8.951  1.00  0.00    -0.015 C 
BRANCH  11  12
HETATM   12  C18 UNL     1     -23.895  36.930  -9.120  1.00  0.00    -0.010 C 
HETATM   13  C19 UNL     1     -22.858  37.549  -9.334  1.00  0.00    -0.064 C 
BRANCH  13  14
HETATM   14  C20 UNL     1     -21.666  38.277  -9.653  1.00  0.00     0.074 C 
HETATM   15  C21 UNL     1     -20.835  37.882 -10.577  1.00  0.00     0.073 C 
BRANCH  15  16
HETATM   16  C22 UNL     1     -19.649  38.659 -10.853  1.00  0.00    -0.075 C 
HETATM   17  C23 UNL     1     -18.656  39.344 -11.074  1.00  0.00    -0.067 C 
BRANCH  17  18
HETATM   18  C24 UNL     1     -17.484  40.197 -11.325  1.00  0.00     0.230 C 
BRANCH  18  19
HETATM   19  O2  UNL     1     -16.355  39.427 -11.421  1.00  0.00    -0.380 OA
ATOM     20  H2  UNL     1     -15.595  39.980 -11.565  1.00  0.00     0.211 HD
ENDBRANCH  18  19
BRANCH  18  21
HETATM   21  C25 UNL     1     -17.684  41.005 -12.606  1.00  0.00     0.087 C 
HETATM   22  C26 UNL     1     -18.775  40.434 -13.448  1.00  0.00     0.049 C 
HETATM   23  C27 UNL     1     -17.889  42.458 -12.240  1.00  0.00     0.049 C 
BRANCH  21  24
HETATM   24  O3  UNL     1     -16.488  40.880 -13.327  1.00  0.00    -0.387 OA
ATOM     25  H3  UNL     1     -15.847  41.400 -12.856  1.00  0.00     0.210 HD
ENDBRANCH  21  24
ENDBRANCH  18  21
ENDBRANCH  17  18
ENDBRANCH  15  16
ENDBRANCH  13  14
ENDBRANCH  11  12
ENDBRANCH   9  10
ENDBRANCH   6   9
BRANCH   1  26
HETATM   26  C10 UNL     1     -25.868  32.934  -5.966  1.00  0.00     0.041 A 
HETATM   27  C9  UNL     1     -26.128  32.336  -4.755  1.00  0.00     0.032 A 
HETATM   28  C8  UNL     1     -25.226  32.270  -3.744  1.00  0.00     0.033 A 
HETATM   29  C7  UNL     1     -23.946  32.828  -3.890  1.00  0.00     0.050 A 
HETATM   30  N2  UNL     1     -22.985  32.798  -3.013  1.00  0.00    -0.352 N 
HETATM   31  C29 UNL     1     -23.671  33.433  -5.097  1.00  0.00     0.035 A 
HETATM   32  C6  UNL     1     -21.819  33.320  -3.279  1.00  0.00     0.058 A 
ATOM     33  H2  UNL     1     -23.145  32.361  -2.105  1.00  0.00     0.166 HD
HETATM   34  S2  UNL     1     -22.048  33.915  -4.875  1.00  0.00    -0.074 SA
HETATM   35  C28 UNL     1     -24.621  33.487  -6.122  1.00  0.00     0.051 A 
BRANCH  32  36
HETATM   36  C5  UNL     1     -20.556  33.361  -2.410  1.00  0.00     0.071 C 
HETATM   37  C4  UNL     1     -20.369  34.765  -2.007  1.00  0.00     0.015 C 
HETATM   38  C3  UNL     1     -18.994  35.046  -1.522  1.00  0.00     0.031 C 
HETATM   39  C2  UNL     1     -18.126  33.834  -1.462  1.00  0.00     0.272 C 
HETATM   40  N1  UNL     1     -18.168  33.039  -2.644  1.00  0.00     0.085 N 
HETATM   41  C1  UNL     1     -17.099  33.360  -3.582  1.00  0.00     0.309 C 
HETATM   42  C30 UNL     1     -19.419  32.876  -3.274  1.00  0.00     0.283 C 
ENDBRANCH  32  36
ENDBRANCH   1  26
TORSDOF 11
ENDMDL
MODEL 5
REMARK VINA RESULT: -6.428362526      1.382      1.716
REMARK  11 active torsions:
REMARK  status: ('A' for Active; 'I' for Inactive)
REMARK    1  A    between atoms: C5_6  and  C6_7 
REMARK    2  A    between atoms: C10_13  and  N3_14 
REMARK    3  A    between atoms: C13_19  and  C15_22 
REMARK    4  A    between atoms: C15_22  and  C16_23 
REMARK    5  A    between atoms: C17_24  and  C18_25 
REMARK    6  A    between atoms: C19_26  and  C20_27 
REMARK    7  A    between atoms: C21_28  and  C22_29 
REMARK    8  A    between atoms: C23_30  and  C24_31 
REMARK    9  A    between atoms: C24_31  and  O2_32 
REMARK   10  A    between atoms: C24_31  and  C25_34 
REMARK   11  A    between atoms: C25_34  and  O3_37 
ROOT
HETATM    1  N3  UNL     1     -19.817  33.988  -3.902  1.00  0.00    -0.284 N 
HETATM    2  C11 UNL     1     -18.681  33.204  -3.624  1.00  0.00     0.235 C 
HETATM    3  O1  UNL     1     -18.391  32.107  -4.231  1.00  0.00    -0.272 OA
HETATM    4  C12 UNL     1     -17.830  33.771  -2.545  1.00  0.00     0.180 C 
HETATM    5  S1  UNL     1     -19.004  34.874  -1.711  1.00  0.00    -0.112 SA
HETATM    6  C13 UNL     1     -20.516  34.438  -2.718  1.00  0.00     0.188 C 
HETATM    7  C14 UNL     1     -21.275  35.666  -2.958  1.00  0.00     0.104 C 
HETATM    8  N4  UNL     1     -21.861  36.650  -3.153  1.00  0.00    -0.194 NA
ENDROOT
BRANCH   6   9
HETATM    9  C15 UNL     1     -21.245  33.443  -1.917  1.00  0.00     0.154 C 
BRANCH   9  10
HETATM   10  C16 UNL     1     -22.576  33.081  -2.335  1.00  0.00    -0.088 C 
HETATM   11  C17 UNL     1     -23.654  32.744  -2.755  1.00  0.00    -0.015 C 
BRANCH  11  12
HETATM   12  C18 UNL     1     -24.889  32.322  -3.329  1.00  0.00    -0.010 C 
HETATM   13  C19 UNL     1     -25.970  32.024  -3.828  1.00  0.00    -0.064 C 
BRANCH  13  14
HETATM   14  C20 UNL     1     -27.244  31.748  -4.420  1.00  0.00     0.074 C 
HETATM   15  C21 UNL     1     -27.991  32.685  -4.935  1.00  0.00     0.073 C 
BRANCH  15  16
HETATM   16  C22 UNL     1     -29.268  32.344  -5.517  1.00  0.00    -0.075 C 
HETATM   17  C23 UNL     1     -30.342  32.024  -6.017  1.00  0.00    -0.067 C 
BRANCH  17  18
HETATM   18  C24 UNL     1     -31.613  31.606  -6.626  1.00  0.00     0.230 C 
BRANCH  18  19
HETATM   19  O2  UNL     1     -31.378  30.716  -7.641  1.00  0.00    -0.380 OA
ATOM     20  H2  UNL     1     -31.759  29.871  -7.428  1.00  0.00     0.211 HD
ENDBRANCH  18  19
BRANCH  18  21
HETATM   21  C25 UNL     1     -32.525  30.981  -5.572  1.00  0.00     0.087 C 
HETATM   22  C26 UNL     1     -31.917  29.751  -4.985  1.00  0.00     0.049 C 
HETATM   23  C27 UNL     1     -32.885  32.034  -4.550  1.00  0.00     0.049 C 
BRANCH  21  24
HETATM   24  O3  UNL     1     -33.686  30.590  -6.254  1.00  0.00    -0.387 OA
ATOM     25  H3  UNL     1     -34.163  30.030  -5.653  1.00  0.00     0.210 HD
ENDBRANCH  21  24
ENDBRANCH  18  21
ENDBRANCH  17  18
ENDBRANCH  15  16
ENDBRANCH  13  14
ENDBRANCH  11  12
ENDBRANCH   9  10
ENDBRANCH   6   9
BRANCH   1  26
HETATM   26  C10 UNL     1     -20.337  34.389  -5.182  1.00  0.00     0.041 A 
HETATM   27  C9  UNL     1     -21.581  33.945  -5.565  1.00  0.00     0.032 A 
HETATM   28  C8  UNL     1     -22.198  34.342  -6.706  1.00  0.00     0.033 A 
HETATM   29  C7  UNL     1     -21.577  35.251  -7.577  1.00  0.00     0.050 A 
HETATM   30  N2  UNL     1     -22.077  35.733  -8.677  1.00  0.00    -0.352 N 
HETATM   31  C29 UNL     1     -20.329  35.703  -7.208  1.00  0.00     0.035 A 
HETATM   32  C6  UNL     1     -21.416  36.607  -9.386  1.00  0.00     0.058 A 
ATOM     33  H2  UNL     1     -22.998  35.425  -8.989  1.00  0.00     0.166 HD
HETATM   34  S2  UNL     1     -19.971  36.789  -8.476  1.00  0.00    -0.074 SA
HETATM   35  C28 UNL     1     -19.716  35.276  -6.025  1.00  0.00     0.051 A 
BRANCH  32  36
HETATM   36  C5  UNL     1     -21.834  37.318 -10.679  1.00  0.00     0.071 C 
HETATM   37  C4  UNL     1     -20.615  37.932 -11.233  1.00  0.00     0.015 C 
HETATM   38  C3  UNL     1     -20.906  38.987 -12.236  1.00  0.00     0.031 C 
HETATM   39  C2  UNL     1     -22.360  39.138 -12.533  1.00  0.00     0.272 C 
HETATM   40  N1  UNL     1     -23.180  39.208 -11.370  1.00  0.00     0.085 N 
HETATM   41  C1  UNL     1     -23.455  40.577 -10.951  1.00  0.00     0.309 C 
HETATM   42  C30 UNL     1     -22.852  38.361 -10.292  1.00  0.00     0.283 C 
ENDBRANCH  32  36
ENDBRANCH   1  26
TORSDOF 11
ENDMDL
