MODEL 1
REMARK VINA RESULT: -9.477675496      0.000      0.000
REMARK  7 active torsions:
REMARK  status: ('A' for Active; 'I' for Inactive)
REMARK    1  A    between atoms: C3_6  and  C4_7 
REMARK    2  A    between atoms: C4_7  and  O1_8 
REMARK    3  A    between atoms: C4_7  and  C5_10 
REMARK    4  A    between atoms: C5_10  and  N2_11 
REMARK    5  A    between atoms: N2_11  and  C6_14 
REMARK       I    between atoms: N3_17  and  C9_18 
REMARK    6  A    between atoms: C9_18  and  C10_20 
REMARK    7  A    between atoms: C10_20  and  C11_21 
ROOT
HETATM    1  C5  UNL     1      11.609  63.092   0.413  1.00  0.00     0.268 C 
ENDROOT
BRANCH   1   2
HETATM    2  C4  UNL     1      12.270  64.372   0.007  1.00  0.00     0.194 C 
BRANCH   2   3
HETATM    3  C3  UNL     1      12.802  65.113   1.238  1.00  0.00     0.318 C 
HETATM    4  N1  UNL     1      11.756  64.949   2.243  1.00  0.00    -0.039 N 
HETATM    5  C2  UNL     1      11.516  66.230   2.848  1.00  0.00     0.275 C 
ATOM      6  H12 UNL     1      11.978  64.225   2.926  1.00  0.00     0.280 HD
ATOM      7  H11 UNL     1      10.909  64.526   1.865  1.00  0.00     0.280 HD
HETATM    8  C1  UNL     1      10.059  66.259   3.271  1.00  0.00     0.050 C 
HETATM    9  C23 UNL     1      12.406  66.433   4.023  1.00  0.00     0.250 C 
HETATM   10  N5  UNL     1      13.375  65.684   4.752  1.00  0.00    -0.342 N 
HETATM   11  O4  UNL     1      12.276  67.582   4.515  1.00  0.00    -0.271 OA
HETATM   12  C20 UNL     1      14.119  64.504   4.442  1.00  0.00     0.174 C 
HETATM   13  C22 UNL     1      13.629  66.251   6.048  1.00  0.00     0.153 C 
HETATM   14  C19 UNL     1      14.610  64.466   3.049  1.00  0.00     0.241 C 
HETATM   15  C21 UNL     1      15.300  64.351   5.386  1.00  0.00     0.042 C 
HETATM   16  N4  UNL     1      14.014  64.504   1.752  1.00  0.00    -0.329 N 
HETATM   17  O3  UNL     1      15.871  64.378   2.952  1.00  0.00    -0.271 OA
ATOM     18  H4  UNL     1      14.549  64.001   1.043  1.00  0.00     0.164 HD
ENDBRANCH   2   3
BRANCH   2  19
HETATM   19  O1  UNL     1      11.400  65.236  -0.633  1.00  0.00    -0.390 OA
ATOM     20  H1  UNL     1      10.996  64.744  -1.337  1.00  0.00     0.210 HD
ENDBRANCH   2  19
ENDBRANCH   1   2
BRANCH   1  21
HETATM   21  N2  UNL     1      10.308  62.976  -0.187  1.00  0.00    -0.068 N 
ATOM     22  H22 UNL     1      10.255  63.533  -1.039  1.00  0.00     0.277 HD
ATOM     23  H21 UNL     1      10.176  62.046  -0.582  1.00  0.00     0.277 HD
BRANCH  21  24
HETATM   24  C6  UNL     1       9.227  63.307   0.703  1.00  0.00     0.189 C 
HETATM   25  C7  UNL     1       7.876  62.889   0.218  1.00  0.00     0.053 C 
HETATM   26  C8  UNL     1       7.218  61.825   1.073  1.00  0.00     0.128 C 
HETATM   27  N3  UNL     1       7.238  62.168   2.487  1.00  0.00    -0.352 N 
HETATM   28  C9  UNL     1       6.299  61.647   3.414  1.00  0.00     0.220 C 
HETATM   29  C17 UNL     1       8.280  63.080   2.925  1.00  0.00     0.128 C 
HETATM   30  O2  UNL     1       6.394  62.006   4.612  1.00  0.00    -0.273 OA
HETATM   31  C18 UNL     1       9.539  62.780   2.105  1.00  0.00     0.053 C 
BRANCH  28  32
HETATM   32  C10 UNL     1       5.285  60.725   2.903  1.00  0.00     0.107 C 
BRANCH  32  33
HETATM   33  C11 UNL     1       5.739  59.334   2.629  1.00  0.00    -0.005 C 
HETATM   34  C12 UNL     1       6.328  58.641   3.831  1.00  0.00     0.011 C 
HETATM   35  C13 UNL     1       7.017  57.385   3.273  1.00  0.00     0.079 C 
HETATM   36  C14 UNL     1       5.947  56.427   2.793  1.00  0.00     0.243 C 
HETATM   37  F1  UNL     1       5.824  55.350   3.642  1.00  0.00    -0.206 F 
HETATM   38  F2  UNL     1       6.299  55.937   1.549  1.00  0.00    -0.206 F 
HETATM   39  C15 UNL     1       4.603  57.102   2.674  1.00  0.00     0.079 C 
HETATM   40  C16 UNL     1       4.724  58.458   1.973  1.00  0.00     0.011 C 
ENDBRANCH  32  33
ENDBRANCH  28  32
ENDBRANCH  21  24
ENDBRANCH   1  21
TORSDOF 7
ENDMDL
MODEL 2
REMARK VINA RESULT: -9.469131077      2.624      4.337
REMARK  7 active torsions:
REMARK  status: ('A' for Active; 'I' for Inactive)
REMARK    1  A    between atoms: C3_6  and  C4_7 
REMARK    2  A    between atoms: C4_7  and  O1_8 
REMARK    3  A    between atoms: C4_7  and  C5_10 
REMARK    4  A    between atoms: C5_10  and  N2_11 
REMARK    5  A    between atoms: N2_11  and  C6_14 
REMARK       I    between atoms: N3_17  and  C9_18 
REMARK    6  A    between atoms: C9_18  and  C10_20 
REMARK    7  A    between atoms: C10_20  and  C11_21 
ROOT
HETATM    1  C5  UNL     1      12.105  64.820   3.074  1.00  0.00     0.268 C 
ENDROOT
BRANCH   1   2
HETATM    2  C4  UNL     1      11.735  65.912   4.027  1.00  0.00     0.194 C 
BRANCH   2   3
HETATM    3  C3  UNL     1      10.620  66.782   3.438  1.00  0.00     0.318 C 
HETATM    4  N1  UNL     1       9.446  66.467   4.247  1.00  0.00    -0.039 N 
HETATM    5  C2  UNL     1       8.339  66.247   3.358  1.00  0.00     0.275 C 
ATOM      6  H12 UNL     1       9.251  67.179   4.951  1.00  0.00     0.280 HD
ATOM      7  H11 UNL     1       9.603  65.686   4.883  1.00  0.00     0.280 HD
HETATM    8  C1  UNL     1       7.414  65.250   4.032  1.00  0.00     0.050 C 
HETATM    9  C23 UNL     1       7.622  67.521   3.082  1.00  0.00     0.250 C 
HETATM   10  N5  UNL     1       7.687  68.879   3.510  1.00  0.00    -0.342 N 
HETATM   11  O4  UNL     1       6.705  67.369   2.238  1.00  0.00    -0.271 OA
HETATM   12  C20 UNL     1       8.702  69.638   4.170  1.00  0.00     0.174 C 
HETATM   13  C22 UNL     1       6.480  69.598   3.205  1.00  0.00     0.153 C 
HETATM   14  C19 UNL     1      10.066  69.352   3.679  1.00  0.00     0.241 C 
HETATM   15  C21 UNL     1       8.431  71.128   4.035  1.00  0.00     0.042 C 
HETATM   16  N4  UNL     1      10.901  68.197   3.593  1.00  0.00    -0.329 N 
HETATM   17  O3  UNL     1      10.667  70.366   3.213  1.00  0.00    -0.271 OA
ATOM     18  H4  UNL     1      11.897  68.410   3.651  1.00  0.00     0.164 HD
ENDBRANCH   2   3
BRANCH   2  19
HETATM   19  O1  UNL     1      12.795  66.758   4.300  1.00  0.00    -0.390 OA
ATOM     20  H1  UNL     1      13.255  66.387   5.045  1.00  0.00     0.210 HD
ENDBRANCH   2  19
ENDBRANCH   1   2
BRANCH   1  21
HETATM   21  N2  UNL     1      11.606  65.101   1.756  1.00  0.00    -0.068 N 
ATOM     22  H22 UNL     1      11.056  65.960   1.756  1.00  0.00     0.277 HD
ATOM     23  H21 UNL     1      12.365  65.383   1.137  1.00  0.00     0.277 HD
BRANCH  21  24
HETATM   24  C6  UNL     1      10.855  64.019   1.177  1.00  0.00     0.189 C 
HETATM   25  C7  UNL     1      10.693  62.831   2.070  1.00  0.00     0.053 C 
HETATM   26  C8  UNL     1       9.261  62.566   2.488  1.00  0.00     0.128 C 
HETATM   27  N3  UNL     1       8.352  62.556   1.351  1.00  0.00    -0.352 N 
HETATM   28  C9  UNL     1       7.113  61.865   1.368  1.00  0.00     0.220 C 
HETATM   29  C17 UNL     1       8.766  63.300   0.175  1.00  0.00     0.128 C 
HETATM   30  O2  UNL     1       6.400  61.911   0.339  1.00  0.00    -0.273 OA
HETATM   31  C18 UNL     1       9.519  64.546   0.650  1.00  0.00     0.053 C 
BRANCH  28  32
HETATM   32  C10 UNL     1       6.757  61.147   2.593  1.00  0.00     0.107 C 
BRANCH  32  33
HETATM   33  C11 UNL     1       6.795  59.660   2.517  1.00  0.00    -0.005 C 
HETATM   34  C12 UNL     1       6.927  58.989   3.860  1.00  0.00     0.011 C 
HETATM   35  C13 UNL     1       7.274  57.525   3.545  1.00  0.00     0.079 C 
HETATM   36  C14 UNL     1       6.056  56.867   2.932  1.00  0.00     0.243 C 
HETATM   37  F1  UNL     1       5.463  55.993   3.815  1.00  0.00    -0.206 F 
HETATM   38  F2  UNL     1       6.442  56.137   1.823  1.00  0.00    -0.206 F 
HETATM   39  C15 UNL     1       5.029  57.884   2.498  1.00  0.00     0.079 C 
HETATM   40  C16 UNL     1       5.683  59.041   1.737  1.00  0.00     0.011 C 
ENDBRANCH  32  33
ENDBRANCH  28  32
ENDBRANCH  21  24
ENDBRANCH   1  21
TORSDOF 7
ENDMDL
MODEL 3
REMARK VINA RESULT: -9.433851720      2.770      4.590
REMARK  7 active torsions:
REMARK  status: ('A' for Active; 'I' for Inactive)
REMARK    1  A    between atoms: C3_6  and  C4_7 
REMARK    2  A    between atoms: C4_7  and  O1_8 
REMARK    3  A    between atoms: C4_7  and  C5_10 
REMARK    4  A    between atoms: C5_10  and  N2_11 
REMARK    5  A    between atoms: N2_11  and  C6_14 
REMARK       I    between atoms: N3_17  and  C9_18 
REMARK    6  A    between atoms: C9_18  and  C10_20 
REMARK    7  A    between atoms: C10_20  and  C11_21 
ROOT
HETATM    1  C5  UNL     1      11.286  65.231   3.317  1.00  0.00     0.268 C 
ENDROOT
BRANCH   1   2
HETATM    2  C4  UNL     1      11.502  66.629   3.803  1.00  0.00     0.194 C 
BRANCH   2   3
HETATM    3  C3  UNL     1      10.170  67.264   4.216  1.00  0.00     0.318 C 
HETATM    4  N1  UNL     1       9.883  68.230   3.161  1.00  0.00    -0.039 N 
HETATM    5  C2  UNL     1       9.488  69.463   3.782  1.00  0.00     0.275 C 
ATOM      6  H12 UNL     1       9.195  67.888   2.490  1.00  0.00     0.280 HD
ATOM      7  H11 UNL     1      10.661  68.347   2.511  1.00  0.00     0.280 HD
HETATM    8  C1  UNL     1       9.910  70.589   2.856  1.00  0.00     0.050 C 
HETATM    9  C23 UNL     1       8.016  69.494   4.005  1.00  0.00     0.250 C 
HETATM   10  N5  UNL     1       6.890  68.673   3.709  1.00  0.00    -0.342 N 
HETATM   11  O4  UNL     1       7.658  70.525   4.628  1.00  0.00    -0.271 OA
HETATM   12  C20 UNL     1       6.766  67.299   3.334  1.00  0.00     0.174 C 
HETATM   13  C22 UNL     1       5.653  69.398   3.815  1.00  0.00     0.153 C 
HETATM   14  C19 UNL     1       7.679  66.402   4.070  1.00  0.00     0.241 C 
HETATM   15  C21 UNL     1       5.337  66.818   3.527  1.00  0.00     0.042 C 
HETATM   16  N4  UNL     1       9.093  66.292   4.236  1.00  0.00    -0.329 N 
HETATM   17  O3  UNL     1       7.087  65.495   4.729  1.00  0.00    -0.271 OA
ATOM     18  H4  UNL     1       9.410  65.336   4.401  1.00  0.00     0.164 HD
ENDBRANCH   2   3
BRANCH   2  19
HETATM   19  O1  UNL     1      12.048  67.449   2.831  1.00  0.00    -0.390 OA
ATOM     20  H1  UNL     1      12.220  66.898   2.076  1.00  0.00     0.210 HD
ENDBRANCH   2  19
ENDBRANCH   1   2
BRANCH   1  21
HETATM   21  N2  UNL     1      11.358  65.171   1.882  1.00  0.00    -0.068 N 
ATOM     22  H22 UNL     1      11.126  66.076   1.473  1.00  0.00     0.277 HD
ATOM     23  H21 UNL     1      12.327  65.088   1.575  1.00  0.00     0.277 HD
BRANCH  21  24
HETATM   24  C6  UNL     1      10.551  64.131   1.304  1.00  0.00     0.189 C 
HETATM   25  C7  UNL     1      10.503  62.868   2.102  1.00  0.00     0.053 C 
HETATM   26  C8  UNL     1       9.132  62.545   2.660  1.00  0.00     0.128 C 
HETATM   27  N3  UNL     1       8.095  62.618   1.642  1.00  0.00    -0.352 N 
HETATM   28  C9  UNL     1       6.871  61.908   1.744  1.00  0.00     0.220 C 
HETATM   29  C17 UNL     1       8.363  63.466   0.495  1.00  0.00     0.128 C 
HETATM   30  O2  UNL     1       6.041  62.030   0.813  1.00  0.00    -0.273 OA
HETATM   31  C18 UNL     1       9.159  64.679   0.985  1.00  0.00     0.053 C 
BRANCH  28  32
HETATM   32  C10 UNL     1       6.667  61.081   2.934  1.00  0.00     0.107 C 
BRANCH  32  33
HETATM   33  C11 UNL     1       6.729  59.608   2.730  1.00  0.00    -0.005 C 
HETATM   34  C12 UNL     1       6.888  58.826   4.009  1.00  0.00     0.011 C 
HETATM   35  C13 UNL     1       7.256  57.401   3.564  1.00  0.00     0.079 C 
HETATM   36  C14 UNL     1       6.043  56.777   2.908  1.00  0.00     0.243 C 
HETATM   37  F1  UNL     1       5.475  55.819   3.718  1.00  0.00    -0.206 F 
HETATM   38  F2  UNL     1       6.429  56.152   1.737  1.00  0.00    -0.206 F 
HETATM   39  C15 UNL     1       4.994  57.808   2.573  1.00  0.00     0.079 C 
HETATM   40  C16 UNL     1       5.620  59.038   1.910  1.00  0.00     0.011 C 
ENDBRANCH  32  33
ENDBRANCH  28  32
ENDBRANCH  21  24
ENDBRANCH   1  21
TORSDOF 7
ENDMDL
MODEL 4
REMARK VINA RESULT: -9.422215089      2.720      4.852
REMARK  7 active torsions:
REMARK  status: ('A' for Active; 'I' for Inactive)
REMARK    1  A    between atoms: C3_6  and  C4_7 
REMARK    2  A    between atoms: C4_7  and  O1_8 
REMARK    3  A    between atoms: C4_7  and  C5_10 
REMARK    4  A    between atoms: C5_10  and  N2_11 
REMARK    5  A    between atoms: N2_11  and  C6_14 
REMARK       I    between atoms: N3_17  and  C9_18 
REMARK    6  A    between atoms: C9_18  and  C10_20 
REMARK    7  A    between atoms: C10_20  and  C11_21 
ROOT
HETATM    1  C5  UNL     1      12.070  66.318   2.472  1.00  0.00     0.268 C 
ENDROOT
BRANCH   1   2
HETATM    2  C4  UNL     1      11.790  66.228   3.939  1.00  0.00     0.194 C 
BRANCH   2   3
HETATM    3  C3  UNL     1      10.489  66.962   4.282  1.00  0.00     0.318 C 
HETATM    4  N1  UNL     1      10.338  67.952   3.220  1.00  0.00    -0.039 N 
HETATM    5  C2  UNL     1      10.003  69.209   3.829  1.00  0.00     0.275 C 
ATOM      6  H12 UNL     1       9.665  67.666   2.509  1.00  0.00     0.280 HD
ATOM      7  H11 UNL     1      11.158  68.011   2.617  1.00  0.00     0.280 HD
HETATM    8  C1  UNL     1      10.563  70.302   2.938  1.00  0.00     0.050 C 
HETATM    9  C23 UNL     1       8.528  69.352   3.968  1.00  0.00     0.250 C 
HETATM   10  N5  UNL     1       7.361  68.621   3.600  1.00  0.00    -0.342 N 
HETATM   11  O4  UNL     1       8.214  70.404   4.578  1.00  0.00    -0.271 OA
HETATM   12  C20 UNL     1       7.153  67.263   3.207  1.00  0.00     0.174 C 
HETATM   13  C22 UNL     1       6.179  69.438   3.642  1.00  0.00     0.153 C 
HETATM   14  C19 UNL     1       7.952  66.295   3.987  1.00  0.00     0.241 C 
HETATM   15  C21 UNL     1       5.683  66.892   3.315  1.00  0.00     0.042 C 
HETATM   16  N4  UNL     1       9.341  66.075   4.231  1.00  0.00    -0.329 N 
HETATM   17  O3  UNL     1       7.255  65.433   4.603  1.00  0.00    -0.271 OA
ATOM     18  H4  UNL     1       9.574  65.097   4.406  1.00  0.00     0.164 HD
ENDBRANCH   2   3
BRANCH   2  19
HETATM   19  O1  UNL     1      12.786  66.808   4.704  1.00  0.00    -0.390 OA
ATOM     20  H1  UNL     1      13.473  66.158   4.794  1.00  0.00     0.210 HD
ENDBRANCH   2  19
ENDBRANCH   1   2
BRANCH   1  21
HETATM   21  N2  UNL     1      12.871  65.207   2.036  1.00  0.00    -0.068 N 
ATOM     22  H22 UNL     1      13.648  65.529   1.460  1.00  0.00     0.277 HD
ATOM     23  H21 UNL     1      13.390  64.809   2.818  1.00  0.00     0.277 HD
BRANCH  21  24
HETATM   24  C6  UNL     1      12.123  64.186   1.352  1.00  0.00     0.189 C 
HETATM   25  C7  UNL     1      11.391  63.246   2.254  1.00  0.00     0.053 C 
HETATM   26  C8  UNL     1       9.883  63.331   2.139  1.00  0.00     0.128 C 
HETATM   27  N3  UNL     1       9.435  63.263   0.756  1.00  0.00    -0.352 N 
HETATM   28  C9  UNL     1       8.135  62.824   0.394  1.00  0.00     0.220 C 
HETATM   29  C17 UNL     1      10.385  63.673  -0.261  1.00  0.00     0.128 C 
HETATM   30  O2  UNL     1       7.843  62.795  -0.825  1.00  0.00    -0.273 OA
HETATM   31  C18 UNL     1      11.209  64.832   0.308  1.00  0.00     0.053 C 
BRANCH  28  32
HETATM   32  C10 UNL     1       7.227  62.436   1.474  1.00  0.00     0.107 C 
BRANCH  32  33
HETATM   33  C11 UNL     1       7.196  60.988   1.818  1.00  0.00    -0.005 C 
HETATM   34  C12 UNL     1       8.104  60.618   2.963  1.00  0.00     0.011 C 
HETATM   35  C13 UNL     1       8.175  59.082   2.939  1.00  0.00     0.079 C 
HETATM   36  C14 UNL     1       6.827  58.536   3.358  1.00  0.00     0.243 C 
HETATM   37  F1  UNL     1       6.877  58.001   4.626  1.00  0.00    -0.206 F 
HETATM   38  F2  UNL     1       6.458  57.521   2.495  1.00  0.00    -0.206 F 
HETATM   39  C15 UNL     1       5.756  59.600   3.326  1.00  0.00     0.079 C 
HETATM   40  C16 UNL     1       5.832  60.422   2.038  1.00  0.00     0.011 C 
ENDBRANCH  32  33
ENDBRANCH  28  32
ENDBRANCH  21  24
ENDBRANCH   1  21
TORSDOF 7
ENDMDL
MODEL 5
REMARK VINA RESULT: -9.079272606      2.960      4.876
REMARK  7 active torsions:
REMARK  status: ('A' for Active; 'I' for Inactive)
REMARK    1  A    between atoms: C3_6  and  C4_7 
REMARK    2  A    between atoms: C4_7  and  O1_8 
REMARK    3  A    between atoms: C4_7  and  C5_10 
REMARK    4  A    between atoms: C5_10  and  N2_11 
REMARK    5  A    between atoms: N2_11  and  C6_14 
REMARK       I    between atoms: N3_17  and  C9_18 
REMARK    6  A    between atoms: C9_18  and  C10_20 
REMARK    7  A    between atoms: C10_20  and  C11_21 
ROOT
HETATM    1  C5  UNL     1      11.462  65.462   3.614  1.00  0.00     0.268 C 
ENDROOT
BRANCH   1   2
HETATM    2  C4  UNL     1      11.564  66.927   3.900  1.00  0.00     0.194 C 
BRANCH   2   3
HETATM    3  C3  UNL     1      10.193  67.495   4.282  1.00  0.00     0.318 C 
HETATM    4  N1  UNL     1       9.880  68.442   3.217  1.00  0.00    -0.039 N 
HETATM    5  C2  UNL     1       9.409  69.656   3.825  1.00  0.00     0.275 C 
ATOM      6  H12 UNL     1       9.226  68.064   2.532  1.00  0.00     0.280 HD
ATOM      7  H11 UNL     1      10.665  68.597   2.584  1.00  0.00     0.280 HD
HETATM    8  C1  UNL     1       9.795  70.798   2.904  1.00  0.00     0.050 C 
HETATM    9  C23 UNL     1       7.934  69.612   4.015  1.00  0.00     0.250 C 
HETATM   10  N5  UNL     1       6.858  68.734   3.696  1.00  0.00    -0.342 N 
HETATM   11  O4  UNL     1       7.510  70.625   4.625  1.00  0.00    -0.271 OA
HETATM   12  C20 UNL     1       6.811  67.355   3.324  1.00  0.00     0.174 C 
HETATM   13  C22 UNL     1       5.583  69.396   3.772  1.00  0.00     0.153 C 
HETATM   14  C19 UNL     1       7.752  66.507   4.084  1.00  0.00     0.241 C 
HETATM   15  C21 UNL     1       5.405  66.803   3.488  1.00  0.00     0.042 C 
HETATM   16  N4  UNL     1       9.166  66.469   4.281  1.00  0.00    -0.329 N 
HETATM   17  O3  UNL     1       7.192  65.573   4.733  1.00  0.00    -0.271 OA
ATOM     18  H4  UNL     1       9.527  65.531   4.457  1.00  0.00     0.164 HD
ENDBRANCH   2   3
BRANCH   2  19
HETATM   19  O1  UNL     1      12.002  67.651   2.806  1.00  0.00    -0.390 OA
ATOM     20  H1  UNL     1      12.795  67.226   2.499  1.00  0.00     0.210 HD
ENDBRANCH   2  19
ENDBRANCH   1   2
BRANCH   1  21
HETATM   21  N2  UNL     1      11.609  65.205   2.208  1.00  0.00    -0.068 N 
ATOM     22  H22 UNL     1      11.280  66.000   1.661  1.00  0.00     0.277 HD
ATOM     23  H21 UNL     1      12.594  65.210   1.943  1.00  0.00     0.277 HD
BRANCH  21  24
HETATM   24  C6  UNL     1      10.974  63.991   1.771  1.00  0.00     0.189 C 
HETATM   25  C7  UNL     1      10.248  63.249   2.847  1.00  0.00     0.053 C 
HETATM   26  C8  UNL     1       8.748  63.185   2.646  1.00  0.00     0.128 C 
HETATM   27  N3  UNL     1       8.393  62.741   1.306  1.00  0.00    -0.352 N 
HETATM   28  C9  UNL     1       7.150  62.126   1.008  1.00  0.00     0.220 C 
HETATM   29  C17 UNL     1       9.378  62.960   0.262  1.00  0.00     0.128 C 
HETATM   30  O2  UNL     1       6.938  61.772  -0.176  1.00  0.00    -0.273 OA
HETATM   31  C18 UNL     1      10.088  64.284   0.558  1.00  0.00     0.053 C 
BRANCH  28  32
HETATM   32  C10 UNL     1       6.202  61.948   2.109  1.00  0.00     0.107 C 
BRANCH  32  33
HETATM   33  C11 UNL     1       6.241  60.633   2.804  1.00  0.00    -0.005 C 
HETATM   34  C12 UNL     1       5.718  59.491   1.970  1.00  0.00     0.011 C 
HETATM   35  C13 UNL     1       5.538  58.324   2.954  1.00  0.00     0.079 C 
HETATM   36  C14 UNL     1       6.908  57.853   3.392  1.00  0.00     0.243 C 
HETATM   37  F1  UNL     1       7.225  56.640   2.821  1.00  0.00    -0.206 F 
HETATM   38  F2  UNL     1       6.913  57.678   4.764  1.00  0.00    -0.206 F 
HETATM   39  C15 UNL     1       7.984  58.849   3.036  1.00  0.00     0.079 C 
HETATM   40  C16 UNL     1       7.561  60.274   3.401  1.00  0.00     0.011 C 
ENDBRANCH  32  33
ENDBRANCH  28  32
ENDBRANCH  21  24
ENDBRANCH   1  21
TORSDOF 7
ENDMDL
