MODEL 1
REMARK VINA RESULT: -6.273200912      0.000      0.000
REMARK  8 active torsions:
REMARK  status: ('A' for Active; 'I' for Inactive)
REMARK    1  A    between atoms: C2_2  and  O1_3 
REMARK    2  A    between atoms: O1_3  and  C3_4 
REMARK    3  A    between atoms: C3_4  and  C4_5 
REMARK    4  A    between atoms: C4_5  and  O2_6 
REMARK    5  A    between atoms: O2_6  and  C5_7 
REMARK    6  A    between atoms: C5_7  and  N1_8 
REMARK    7  A    between atoms: C12_20  and  N3_21 
REMARK    8  A    between atoms: N3_21  and  N4_23 
ROOT
HETATM    1  N1  UNL     1      12.250  65.380   3.062  1.00  0.00    -0.250 N 
HETATM    2  N2  UNL     1      11.661  66.454   3.583  1.00  0.00    -0.294 N 
ATOM      3  H2  UNL     1      12.132  67.286   3.939  1.00  0.00     0.187 HD
HETATM    4  C6  UNL     1      10.339  66.247   3.554  1.00  0.00     0.065 A 
HETATM    5  C7  UNL     1       9.262  67.039   3.970  1.00  0.00     0.052 A 
HETATM    6  C8  UNL     1       8.005  66.547   3.808  1.00  0.00     0.032 A 
HETATM    7 BR1  UNL     1       6.530  67.628   4.376  1.00  0.00    -0.050 Br
HETATM    8  C9  UNL     1       7.710  65.315   3.260  1.00  0.00     0.046 A 
HETATM    9 BR2  UNL     1       5.923  64.677   3.059  1.00  0.00    -0.048 Br
HETATM   10  C10 UNL     1       8.781  64.545   2.855  1.00  0.00     0.046 A 
HETATM   11 BR3  UNL     1       8.531  62.825   2.081  1.00  0.00    -0.049 Br
HETATM   12  C11 UNL     1      10.070  65.014   3.004  1.00  0.00     0.058 A 
HETATM   13  C12 UNL     1      11.327  64.483   2.698  1.00  0.00     0.152 A 
ENDROOT
BRANCH   1  14
HETATM   14  C5  UNL     1      13.704  65.278   2.947  1.00  0.00     0.318 C 
BRANCH  14  15
HETATM   15  O2  UNL     1      14.028  63.975   3.260  1.00  0.00    -0.368 OA
BRANCH  15  16
HETATM   16  C4  UNL     1      14.994  63.816   4.218  1.00  0.00     0.196 C 
BRANCH  16  17
HETATM   17  C3  UNL     1      14.743  64.616   5.477  1.00  0.00     0.193 C 
BRANCH  17  18
HETATM   18  O1  UNL     1      14.413  63.833   6.552  1.00  0.00    -0.389 OA
BRANCH  18  19
HETATM   19  C2  UNL     1      15.414  63.677   7.478  1.00  0.00     0.163 C 
HETATM   20  C1  UNL     1      16.294  62.478   7.205  1.00  0.00     0.033 C 
ENDBRANCH  18  19
ENDBRANCH  17  18
ENDBRANCH  16  17
ENDBRANCH  15  16
ENDBRANCH  14  15
ENDBRANCH   1  14
BRANCH  13  21
HETATM   21  N3  UNL     1      11.461  63.346   2.163  1.00  0.00    -0.290 N 
ATOM     22  H3  UNL     1      10.920  62.605   2.608  1.00  0.00     0.188 HD
BRANCH  21  23
HETATM   23  N4  UNL     1      12.203  62.938   1.094  1.00  0.00    -0.344 N 
ATOM     24  H42 UNL     1      12.628  63.711   0.582  1.00  0.00     0.176 HD
ATOM     25  H41 UNL     1      12.399  62.006   0.729  1.00  0.00     0.176 HD
ENDBRANCH  21  23
ENDBRANCH  13  21
TORSDOF 8
ENDMDL
MODEL 2
REMARK VINA RESULT: -6.237465074      1.709      3.239
REMARK  8 active torsions:
REMARK  status: ('A' for Active; 'I' for Inactive)
REMARK    1  A    between atoms: C2_2  and  O1_3 
REMARK    2  A    between atoms: O1_3  and  C3_4 
REMARK    3  A    between atoms: C3_4  and  C4_5 
REMARK    4  A    between atoms: C4_5  and  O2_6 
REMARK    5  A    between atoms: O2_6  and  C5_7 
REMARK    6  A    between atoms: C5_7  and  N1_8 
REMARK    7  A    between atoms: C12_20  and  N3_21 
REMARK    8  A    between atoms: N3_21  and  N4_23 
ROOT
HETATM    1  N1  UNL     1      11.165  63.903   2.515  1.00  0.00    -0.250 N 
HETATM    2  N2  UNL     1      10.744  62.785   1.927  1.00  0.00    -0.294 N 
ATOM      3  H2  UNL     1      11.331  62.087   1.471  1.00  0.00     0.187 HD
HETATM    4  C6  UNL     1       9.411  62.741   2.044  1.00  0.00     0.065 A 
HETATM    5  C7  UNL     1       8.468  61.801   1.613  1.00  0.00     0.052 A 
HETATM    6  C8  UNL     1       7.157  62.037   1.885  1.00  0.00     0.032 A 
HETATM    7 BR1  UNL     1       5.865  60.752   1.297  1.00  0.00    -0.050 Br
HETATM    8  C9  UNL     1       6.684  63.144   2.561  1.00  0.00     0.046 A 
HETATM    9 BR2  UNL     1       4.830  63.422   2.913  1.00  0.00    -0.048 Br
HETATM   10  C10 UNL     1       7.625  64.062   2.979  1.00  0.00     0.046 A 
HETATM   11 BR3  UNL     1       7.124  65.638   3.922  1.00  0.00    -0.049 Br
HETATM   12  C11 UNL     1       8.964  63.854   2.720  1.00  0.00     0.058 A 
HETATM   13  C12 UNL     1      10.123  64.581   3.008  1.00  0.00     0.152 A 
ENDROOT
BRANCH   1  14
HETATM   14  C5  UNL     1      12.582  64.262   2.562  1.00  0.00     0.318 C 
BRANCH  14  15
HETATM   15  O2  UNL     1      12.942  64.244   3.893  1.00  0.00    -0.368 OA
BRANCH  15  16
HETATM   16  C4  UNL     1      14.289  64.215   4.144  1.00  0.00     0.196 C 
BRANCH  16  17
HETATM   17  C3  UNL     1      14.676  64.826   5.471  1.00  0.00     0.193 C 
BRANCH  17  18
HETATM   18  O1  UNL     1      14.184  64.131   6.545  1.00  0.00    -0.389 OA
BRANCH  18  19
HETATM   19  C2  UNL     1      15.118  63.809   7.498  1.00  0.00     0.163 C 
HETATM   20  C1  UNL     1      16.043  62.693   7.069  1.00  0.00     0.033 C 
ENDBRANCH  18  19
ENDBRANCH  17  18
ENDBRANCH  16  17
ENDBRANCH  15  16
ENDBRANCH  14  15
ENDBRANCH   1  14
BRANCH  13  21
HETATM   21  N3  UNL     1      10.087  65.675   3.639  1.00  0.00    -0.290 N 
ATOM     22  H3  UNL     1       9.512  66.395   3.201  1.00  0.00     0.188 HD
BRANCH  21  23
HETATM   23  N4  UNL     1      10.682  66.060   4.804  1.00  0.00    -0.344 N 
ATOM     24  H42 UNL     1      11.161  65.297   5.281  1.00  0.00     0.176 HD
ATOM     25  H41 UNL     1      10.727  66.968   5.267  1.00  0.00     0.176 HD
ENDBRANCH  21  23
ENDBRANCH  13  21
TORSDOF 8
ENDMDL
MODEL 3
REMARK VINA RESULT: -6.163811303      1.844      3.181
REMARK  8 active torsions:
REMARK  status: ('A' for Active; 'I' for Inactive)
REMARK    1  A    between atoms: C2_2  and  O1_3 
REMARK    2  A    between atoms: O1_3  and  C3_4 
REMARK    3  A    between atoms: C3_4  and  C4_5 
REMARK    4  A    between atoms: C4_5  and  O2_6 
REMARK    5  A    between atoms: O2_6  and  C5_7 
REMARK    6  A    between atoms: C5_7  and  N1_8 
REMARK    7  A    between atoms: C12_20  and  N3_21 
REMARK    8  A    between atoms: N3_21  and  N4_23 
ROOT
HETATM    1  N1  UNL     1      12.750  64.004   2.912  1.00  0.00    -0.250 N 
HETATM    2  N2  UNL     1      12.579  63.513   1.686  1.00  0.00    -0.294 N 
ATOM      3  H2  UNL     1      13.247  62.942   1.168  1.00  0.00     0.187 HD
HETATM    4  C6  UNL     1      11.372  63.902   1.257  1.00  0.00     0.065 A 
HETATM    5  C7  UNL     1      10.691  63.671   0.057  1.00  0.00     0.052 A 
HETATM    6  C8  UNL     1       9.451  64.210  -0.091  1.00  0.00     0.032 A 
HETATM    7 BR1  UNL     1       8.517  63.895  -1.733  1.00  0.00    -0.050 Br
HETATM    8  C9  UNL     1       8.810  64.972   0.864  1.00  0.00     0.046 A 
HETATM    9 BR2  UNL     1       7.067  65.703   0.600  1.00  0.00    -0.048 Br
HETATM   10  C10 UNL     1       9.493  65.192   2.043  1.00  0.00     0.046 A 
HETATM   11 BR3  UNL     1       8.737  66.224   3.451  1.00  0.00    -0.049 Br
HETATM   12  C11 UNL     1      10.753  64.660   2.225  1.00  0.00     0.058 A 
HETATM   13  C12 UNL     1      11.671  64.705   3.279  1.00  0.00     0.152 A 
ENDROOT
BRANCH   1  14
HETATM   14  C5  UNL     1      13.976  63.766   3.673  1.00  0.00     0.318 C 
BRANCH  14  15
HETATM   15  O2  UNL     1      14.292  64.962   4.282  1.00  0.00    -0.368 OA
BRANCH  15  16
HETATM   16  C4  UNL     1      15.025  64.866   5.436  1.00  0.00     0.196 C 
BRANCH  16  17
HETATM   17  C3  UNL     1      14.192  64.605   6.670  1.00  0.00     0.193 C 
BRANCH  17  18
HETATM   18  O1  UNL     1      14.674  63.574   7.433  1.00  0.00    -0.389 OA
BRANCH  18  19
HETATM   19  C2  UNL     1      16.038  63.428   7.405  1.00  0.00     0.163 C 
HETATM   20  C1  UNL     1      16.478  62.025   7.052  1.00  0.00     0.033 C 
ENDBRANCH  18  19
ENDBRANCH  17  18
ENDBRANCH  16  17
ENDBRANCH  15  16
ENDBRANCH  14  15
ENDBRANCH   1  14
BRANCH  13  21
HETATM   21  N3  UNL     1      11.426  65.321   4.354  1.00  0.00    -0.290 N 
ATOM     22  H3  UNL     1      10.802  64.826   4.991  1.00  0.00     0.188 HD
BRANCH  21  23
HETATM   23  N4  UNL     1      11.851  66.533   4.811  1.00  0.00    -0.344 N 
ATOM     24  H42 UNL     1      12.320  66.479   5.715  1.00  0.00     0.176 HD
ATOM     25  H41 UNL     1      11.778  67.467   4.407  1.00  0.00     0.176 HD
ENDBRANCH  21  23
ENDBRANCH  13  21
TORSDOF 8
ENDMDL
MODEL 4
REMARK VINA RESULT: -6.146576985      5.001      6.857
REMARK  8 active torsions:
REMARK  status: ('A' for Active; 'I' for Inactive)
REMARK    1  A    between atoms: C2_2  and  O1_3 
REMARK    2  A    between atoms: O1_3  and  C3_4 
REMARK    3  A    between atoms: C3_4  and  C4_5 
REMARK    4  A    between atoms: C4_5  and  O2_6 
REMARK    5  A    between atoms: O2_6  and  C5_7 
REMARK    6  A    between atoms: C5_7  and  N1_8 
REMARK    7  A    between atoms: C12_20  and  N3_21 
REMARK    8  A    between atoms: N3_21  and  N4_23 
ROOT
HETATM    1  N1  UNL     1       7.985  62.193   1.419  1.00  0.00    -0.250 N 
HETATM    2  N2  UNL     1       8.540  61.355   2.292  1.00  0.00    -0.294 N 
ATOM      3  H2  UNL     1       9.439  61.480   2.758  1.00  0.00     0.187 HD
HETATM    4  C6  UNL     1       7.706  60.320   2.448  1.00  0.00     0.065 A 
HETATM    5  C7  UNL     1       7.789  59.167   3.237  1.00  0.00     0.052 A 
HETATM    6  C8  UNL     1       6.762  58.278   3.182  1.00  0.00     0.032 A 
HETATM    7 BR1  UNL     1       6.873  56.699   4.262  1.00  0.00    -0.050 Br
HETATM    8  C9  UNL     1       5.635  58.429   2.401  1.00  0.00     0.046 A 
HETATM    9 BR2  UNL     1       4.224  57.145   2.365  1.00  0.00    -0.048 Br
HETATM   10  C10 UNL     1       5.566  59.570   1.628  1.00  0.00     0.046 A 
HETATM   11 BR3  UNL     1       4.074  59.917   0.499  1.00  0.00    -0.049 Br
HETATM   12  C11 UNL     1       6.591  60.494   1.659  1.00  0.00     0.058 A 
HETATM   13  C12 UNL     1       6.806  61.713   1.009  1.00  0.00     0.152 A 
ENDROOT
BRANCH   1  14
HETATM   14  C5  UNL     1       8.645  63.435   1.017  1.00  0.00     0.318 C 
BRANCH  14  15
HETATM   15  O2  UNL     1       8.945  63.300  -0.321  1.00  0.00    -0.368 OA
BRANCH  15  16
HETATM   16  C4  UNL     1      10.228  63.623  -0.678  1.00  0.00     0.196 C 
BRANCH  16  17
HETATM   17  C3  UNL     1      11.286  62.854   0.081  1.00  0.00     0.193 C 
BRANCH  17  18
HETATM   18  O1  UNL     1      12.400  63.604   0.355  1.00  0.00    -0.389 OA
BRANCH  18  19
HETATM   19  C2  UNL     1      12.194  64.640   1.231  1.00  0.00     0.163 C 
HETATM   20  C1  UNL     1      12.000  64.180   2.659  1.00  0.00     0.033 C 
ENDBRANCH  18  19
ENDBRANCH  17  18
ENDBRANCH  16  17
ENDBRANCH  15  16
ENDBRANCH  14  15
ENDBRANCH   1  14
BRANCH  13  21
HETATM   21  N3  UNL     1       5.965  62.196   0.199  1.00  0.00    -0.290 N 
ATOM     22  H3  UNL     1       5.049  62.387   0.606  1.00  0.00     0.188 HD
BRANCH  21  23
HETATM   23  N4  UNL     1       6.070  62.507  -1.124  1.00  0.00    -0.344 N 
ATOM     24  H42 UNL     1       6.790  61.970  -1.607  1.00  0.00     0.176 HD
ATOM     25  H41 UNL     1       5.557  63.176  -1.700  1.00  0.00     0.176 HD
ENDBRANCH  21  23
ENDBRANCH  13  21
TORSDOF 8
ENDMDL
MODEL 5
REMARK VINA RESULT: -6.123325831      1.875      2.499
REMARK  8 active torsions:
REMARK  status: ('A' for Active; 'I' for Inactive)
REMARK    1  A    between atoms: C2_2  and  O1_3 
REMARK    2  A    between atoms: O1_3  and  C3_4 
REMARK    3  A    between atoms: C3_4  and  C4_5 
REMARK    4  A    between atoms: C4_5  and  O2_6 
REMARK    5  A    between atoms: O2_6  and  C5_7 
REMARK    6  A    between atoms: C5_7  and  N1_8 
REMARK    7  A    between atoms: C12_20  and  N3_21 
REMARK    8  A    between atoms: N3_21  and  N4_23 
ROOT
HETATM    1  N1  UNL     1      11.833  65.408   3.640  1.00  0.00    -0.250 N 
HETATM    2  N2  UNL     1      10.544  65.486   3.961  1.00  0.00    -0.294 N 
ATOM      3  H2  UNL     1      10.165  65.747   4.871  1.00  0.00     0.187 HD
HETATM    4  C6  UNL     1       9.833  65.163   2.873  1.00  0.00     0.065 A 
HETATM    5  C7  UNL     1       8.454  65.083   2.651  1.00  0.00     0.052 A 
HETATM    6  C8  UNL     1       8.024  64.718   1.414  1.00  0.00     0.032 A 
HETATM    7 BR1  UNL     1       6.137  64.609   1.107  1.00  0.00    -0.050 Br
HETATM    8  C9  UNL     1       8.854  64.419   0.352  1.00  0.00     0.046 A 
HETATM    9 BR2  UNL     1       8.193  63.913  -1.364  1.00  0.00    -0.048 Br
HETATM   10  C10 UNL     1      10.212  64.502   0.586  1.00  0.00     0.046 A 
HETATM   11 BR3  UNL     1      11.480  64.120  -0.781  1.00  0.00    -0.049 Br
HETATM   12  C11 UNL     1      10.682  64.869   1.830  1.00  0.00     0.058 A 
HETATM   13  C12 UNL     1      11.965  65.038   2.361  1.00  0.00     0.152 A 
ENDROOT
BRANCH   1  14
HETATM   14  C5  UNL     1      12.888  65.697   4.610  1.00  0.00     0.318 C 
BRANCH  14  15
HETATM   15  O2  UNL     1      13.923  64.832   4.327  1.00  0.00    -0.368 OA
BRANCH  15  16
HETATM   16  C4  UNL     1      14.851  64.669   5.322  1.00  0.00     0.196 C 
BRANCH  16  17
HETATM   17  C3  UNL     1      14.257  64.637   6.712  1.00  0.00     0.193 C 
BRANCH  17  18
HETATM   18  O1  UNL     1      14.704  63.580   7.461  1.00  0.00    -0.389 OA
BRANCH  18  19
HETATM   19  C2  UNL     1      16.064  63.398   7.444  1.00  0.00     0.163 C 
HETATM   20  C1  UNL     1      16.472  61.999   7.043  1.00  0.00     0.033 C 
ENDBRANCH  18  19
ENDBRANCH  17  18
ENDBRANCH  16  17
ENDBRANCH  15  16
ENDBRANCH  14  15
ENDBRANCH   1  14
BRANCH  13  21
HETATM   21  N3  UNL     1      13.005  64.856   1.667  1.00  0.00    -0.290 N 
ATOM     22  H3  UNL     1      13.101  63.913   1.291  1.00  0.00     0.188 HD
BRANCH  21  23
HETATM   23  N4  UNL     1      14.021  65.702   1.334  1.00  0.00    -0.344 N 
ATOM     24  H42 UNL     1      13.727  66.463   0.722  1.00  0.00     0.176 HD
ATOM     25  H41 UNL     1      15.009  65.700   1.591  1.00  0.00     0.176 HD
ENDBRANCH  21  23
ENDBRANCH  13  21
TORSDOF 8
ENDMDL
