MODEL 1
REMARK VINA RESULT: -4.104617984      0.000      0.000
REMARK  4 active torsions:
REMARK  status: ('A' for Active; 'I' for Inactive)
REMARK    1  A    between atoms: C2_3  and  N2_4 
REMARK    2  A    between atoms: C2_3  and  C3_8 
REMARK    3  A    between atoms: C3_8  and  C4_9 
REMARK    4  A    between atoms: C6_15  and  N5_16 
ROOT
HETATM    1  N1  UNL     1      30.555  -1.954   8.420  1.00  0.00    -0.195 NA
HETATM    2  C1  UNL     1      29.512  -1.927   7.910  1.00  0.00     0.092 C 
HETATM    3  C2  UNL     1      28.188  -1.899   7.284  1.00  0.00     0.292 C 
ENDROOT
BRANCH   3   4
HETATM    4  N2  UNL     1      27.364  -2.909   7.898  1.00  0.00    -0.062 N 
ATOM      5  H23 UNL     1      27.913  -3.639   8.350  1.00  0.00     0.275 HD
ATOM      6  H22 UNL     1      26.877  -2.564   8.726  1.00  0.00     0.275 HD
ATOM      7  H21 UNL     1      26.724  -3.281   7.196  1.00  0.00     0.275 HD
ENDBRANCH   3   4
BRANCH   3   8
HETATM    8  C3  UNL     1      28.361  -2.177   5.812  1.00  0.00     0.094 C 
BRANCH   8   9
HETATM    9  C4  UNL     1      29.193  -1.146   5.113  1.00  0.00     0.183 C 
HETATM   10  N3  UNL     1      29.999  -1.707   4.048  1.00  0.00    -0.365 N 
HETATM   11  C5  UNL     1      29.324  -2.008   2.834  1.00  0.00     0.175 C 
ATOM     12  H3  UNL     1      30.998  -1.877   4.164  1.00  0.00     0.162 HD
HETATM   13  N4  UNL     1      28.284  -1.325   2.538  1.00  0.00    -0.343 N 
HETATM   14  C6  UNL     1      27.757  -0.273   3.358  1.00  0.00     0.384 C 
ATOM     15  H4  UNL     1      27.800  -1.541   1.667  1.00  0.00     0.164 HD
HETATM   16  N6  UNL     1      28.354  -0.101   4.631  1.00  0.00    -0.359 N 
ATOM     17  H6  UNL     1      28.189   0.742   5.182  1.00  0.00     0.159 HD
BRANCH  14  18
HETATM   18  N5  UNL     1      27.895   1.015   2.653  1.00  0.00    -0.041 N 
ATOM     19  H53 UNL     1      28.511   0.947   1.843  1.00  0.00     0.279 HD
ATOM     20  H52 UNL     1      27.039   1.279   2.164  1.00  0.00     0.279 HD
ATOM     21  H51 UNL     1      28.200   1.732   3.312  1.00  0.00     0.279 HD
ENDBRANCH  14  18
ENDBRANCH   8   9
ENDBRANCH   3   8
TORSDOF 4
ENDMDL
MODEL 2
REMARK VINA RESULT: -4.080922475      1.488      2.330
REMARK  4 active torsions:
REMARK  status: ('A' for Active; 'I' for Inactive)
REMARK    1  A    between atoms: C2_3  and  N2_4 
REMARK    2  A    between atoms: C2_3  and  C3_8 
REMARK    3  A    between atoms: C3_8  and  C4_9 
REMARK    4  A    between atoms: C6_15  and  N5_16 
ROOT
HETATM    1  N1  UNL     1      25.744  -1.582   8.008  1.00  0.00    -0.195 NA
HETATM    2  C1  UNL     1      26.769  -1.899   7.563  1.00  0.00     0.092 C 
HETATM    3  C2  UNL     1      28.068  -2.301   7.020  1.00  0.00     0.292 C 
ENDROOT
BRANCH   3   4
HETATM    4  N2  UNL     1      29.078  -2.089   8.026  1.00  0.00    -0.062 N 
ATOM      5  H23 UNL     1      29.972  -2.511   7.776  1.00  0.00     0.275 HD
ATOM      6  H22 UNL     1      29.387  -1.118   8.069  1.00  0.00     0.275 HD
ATOM      7  H21 UNL     1      28.724  -2.426   8.921  1.00  0.00     0.275 HD
ENDBRANCH   3   4
BRANCH   3   8
HETATM    8  C3  UNL     1      28.347  -1.457   5.801  1.00  0.00     0.094 C 
BRANCH   8   9
HETATM    9  C4  UNL     1      29.483  -1.976   4.975  1.00  0.00     0.183 C 
HETATM   10  N3  UNL     1      29.042  -2.570   3.730  1.00  0.00    -0.365 N 
HETATM   11  C5  UNL     1      28.677  -1.670   2.692  1.00  0.00     0.175 C 
ATOM     12  H3  UNL     1      28.995  -3.581   3.605  1.00  0.00     0.162 HD
HETATM   13  N4  UNL     1      29.231  -0.517   2.673  1.00  0.00    -0.343 N 
HETATM   14  C6  UNL     1      30.198  -0.078   3.637  1.00  0.00     0.384 C 
ATOM     15  H4  UNL     1      28.969   0.129   1.928  1.00  0.00     0.164 HD
HETATM   16  N6  UNL     1      30.424  -0.931   4.744  1.00  0.00    -0.359 N 
ATOM     17  H6  UNL     1      31.231  -0.803   5.354  1.00  0.00     0.159 HD
BRANCH  14  18
HETATM   18  N5  UNL     1      31.503   0.105   2.975  1.00  0.00    -0.041 N 
ATOM     19  H53 UNL     1      31.813  -0.739   2.492  1.00  0.00     0.279 HD
ATOM     20  H52 UNL     1      31.441   0.722   2.165  1.00  0.00     0.279 HD
ATOM     21  H51 UNL     1      32.187   0.432   3.658  1.00  0.00     0.279 HD
ENDBRANCH  14  18
ENDBRANCH   8   9
ENDBRANCH   3   8
TORSDOF 4
ENDMDL
MODEL 3
REMARK VINA RESULT: -4.076831498      1.625      2.827
REMARK  4 active torsions:
REMARK  status: ('A' for Active; 'I' for Inactive)
REMARK    1  A    between atoms: C2_3  and  N2_4 
REMARK    2  A    between atoms: C2_3  and  C3_8 
REMARK    3  A    between atoms: C3_8  and  C4_9 
REMARK    4  A    between atoms: C6_15  and  N5_16 
ROOT
HETATM    1  N1  UNL     1      26.017  -0.514   6.774  1.00  0.00    -0.195 NA
HETATM    2  C1  UNL     1      26.916  -1.247   6.832  1.00  0.00     0.092 C 
HETATM    3  C2  UNL     1      28.047  -2.174   6.922  1.00  0.00     0.292 C 
ENDROOT
BRANCH   3   4
HETATM    4  N2  UNL     1      28.511  -2.206   8.286  1.00  0.00    -0.062 N 
ATOM      5  H23 UNL     1      29.495  -2.465   8.357  1.00  0.00     0.275 HD
ATOM      6  H22 UNL     1      28.581  -1.274   8.696  1.00  0.00     0.275 HD
ATOM      7  H21 UNL     1      27.906  -2.825   8.824  1.00  0.00     0.275 HD
ENDBRANCH   3   4
BRANCH   3   8
HETATM    8  C3  UNL     1      29.134  -1.678   6.002  1.00  0.00     0.094 C 
BRANCH   8   9
HETATM    9  C4  UNL     1      28.678  -1.526   4.584  1.00  0.00     0.183 C 
HETATM   10  N3  UNL     1      28.925  -0.200   4.057  1.00  0.00    -0.365 N 
HETATM   11  C5  UNL     1      30.263   0.092   3.675  1.00  0.00     0.175 C 
ATOM     12  H3  UNL     1      28.178   0.488   3.964  1.00  0.00     0.162 HD
HETATM   13  N4  UNL     1      31.007  -0.879   3.300  1.00  0.00    -0.343 N 
HETATM   14  C6  UNL     1      30.573  -2.244   3.242  1.00  0.00     0.384 C 
ATOM     15  H4  UNL     1      31.967  -0.669   3.026  1.00  0.00     0.164 HD
HETATM   16  N6  UNL     1      29.291  -2.526   3.775  1.00  0.00    -0.359 N 
ATOM     17  H6  UNL     1      28.824  -3.413   3.586  1.00  0.00     0.159 HD
BRANCH  14  18
HETATM   18  N5  UNL     1      30.551  -2.693   1.837  1.00  0.00    -0.041 N 
ATOM     19  H53 UNL     1      29.794  -3.354   1.655  1.00  0.00     0.279 HD
ATOM     20  H52 UNL     1      30.254  -1.953   1.201  1.00  0.00     0.279 HD
ATOM     21  H51 UNL     1      31.464  -3.074   1.588  1.00  0.00     0.279 HD
ENDBRANCH  14  18
ENDBRANCH   8   9
ENDBRANCH   3   8
TORSDOF 4
ENDMDL
MODEL 4
REMARK VINA RESULT: -4.066739837      2.154      3.929
REMARK  4 active torsions:
REMARK  status: ('A' for Active; 'I' for Inactive)
REMARK    1  A    between atoms: C2_3  and  N2_4 
REMARK    2  A    between atoms: C2_3  and  C3_8 
REMARK    3  A    between atoms: C3_8  and  C4_9 
REMARK    4  A    between atoms: C6_15  and  N5_16 
ROOT
HETATM    1  N1  UNL     1      27.048  -0.541   6.269  1.00  0.00    -0.195 NA
HETATM    2  C1  UNL     1      27.502  -0.136   5.279  1.00  0.00     0.092 C 
HETATM    3  C2  UNL     1      28.057   0.375   4.024  1.00  0.00     0.292 C 
ENDROOT
BRANCH   3   4
HETATM    4  N2  UNL     1      27.230  -0.077   2.934  1.00  0.00    -0.062 N 
ATOM      5  H23 UNL     1      26.268  -0.256   3.222  1.00  0.00     0.275 HD
ATOM      6  H22 UNL     1      27.039   0.661   2.257  1.00  0.00     0.275 HD
ATOM      7  H21 UNL     1      27.667  -0.895   2.508  1.00  0.00     0.275 HD
ENDBRANCH   3   4
BRANCH   3   8
HETATM    8  C3  UNL     1      29.461  -0.157   3.882  1.00  0.00     0.094 C 
BRANCH   8   9
HETATM    9  C4  UNL     1      29.665  -1.468   4.575  1.00  0.00     0.183 C 
HETATM   10  N3  UNL     1      29.463  -2.601   3.696  1.00  0.00    -0.365 N 
HETATM   11  C5  UNL     1      30.519  -2.898   2.791  1.00  0.00     0.175 C 
ATOM     12  H3  UNL     1      28.609  -3.158   3.724  1.00  0.00     0.162 HD
HETATM   13  N4  UNL     1      31.709  -2.570   3.127  1.00  0.00    -0.343 N 
HETATM   14  C6  UNL     1      32.042  -1.922   4.362  1.00  0.00     0.384 C 
ATOM     15  H4  UNL     1      32.466  -2.783   2.478  1.00  0.00     0.164 HD
HETATM   16  N6  UNL     1      30.958  -1.500   5.170  1.00  0.00    -0.359 N 
ATOM     17  H6  UNL     1      31.100  -1.228   6.143  1.00  0.00     0.159 HD
BRANCH  14  18
HETATM   18  N5  UNL     1      32.853  -2.833   5.192  1.00  0.00    -0.041 N 
ATOM     19  H53 UNL     1      33.790  -2.971   4.810  1.00  0.00     0.279 HD
ATOM     20  H52 UNL     1      33.120  -2.410   6.081  1.00  0.00     0.279 HD
ATOM     21  H51 UNL     1      32.354  -3.713   5.317  1.00  0.00     0.279 HD
ENDBRANCH  14  18
ENDBRANCH   8   9
ENDBRANCH   3   8
TORSDOF 4
ENDMDL
MODEL 5
REMARK VINA RESULT: -4.024372158      1.894      2.594
REMARK  4 active torsions:
REMARK  status: ('A' for Active; 'I' for Inactive)
REMARK    1  A    between atoms: C2_3  and  N2_4 
REMARK    2  A    between atoms: C2_3  and  C3_8 
REMARK    3  A    between atoms: C3_8  and  C4_9 
REMARK    4  A    between atoms: C6_15  and  N5_16 
ROOT
HETATM    1  N1  UNL     1      27.427  -2.709   7.430  1.00  0.00    -0.195 NA
HETATM    2  C1  UNL     1      27.525  -1.718   6.831  1.00  0.00     0.092 C 
HETATM    3  C2  UNL     1      27.635  -0.463   6.085  1.00  0.00     0.292 C 
ENDROOT
BRANCH   3   4
HETATM    4  N2  UNL     1      26.348   0.186   6.079  1.00  0.00    -0.062 N 
ATOM      5  H23 UNL     1      26.152   0.655   5.195  1.00  0.00     0.275 HD
ATOM      6  H22 UNL     1      25.576  -0.481   6.059  1.00  0.00     0.275 HD
ATOM      7  H21 UNL     1      26.296   0.819   6.877  1.00  0.00     0.275 HD
ENDBRANCH   3   4
BRANCH   3   8
HETATM    8  C3  UNL     1      28.072  -0.790   4.679  1.00  0.00     0.094 C 
BRANCH   8   9
HETATM    9  C4  UNL     1      29.270  -1.686   4.631  1.00  0.00     0.183 C 
HETATM   10  N3  UNL     1      29.138  -2.742   3.649  1.00  0.00    -0.365 N 
HETATM   11  C5  UNL     1      29.338  -2.374   2.290  1.00  0.00     0.175 C 
ATOM     12  H3  UNL     1      28.913  -3.700   3.917  1.00  0.00     0.162 HD
HETATM   13  N4  UNL     1      30.108  -1.383   2.043  1.00  0.00    -0.343 N 
HETATM   14  C6  UNL     1      30.780  -0.619   3.054  1.00  0.00     0.384 C 
ATOM     15  H4  UNL     1      30.252  -1.118   1.069  1.00  0.00     0.164 HD
HETATM   16  N6  UNL     1      30.440  -0.908   4.398  1.00  0.00    -0.359 N 
ATOM     17  H6  UNL     1      31.013  -0.570   5.172  1.00  0.00     0.159 HD
BRANCH  14  18
HETATM   18  N5  UNL     1      32.236  -0.824   2.937  1.00  0.00    -0.041 N 
ATOM     19  H53 UNL     1      32.669  -1.045   3.834  1.00  0.00     0.279 HD
ATOM     20  H52 UNL     1      32.465  -1.690   2.448  1.00  0.00     0.279 HD
ATOM     21  H51 UNL     1      32.660  -0.008   2.495  1.00  0.00     0.279 HD
ENDBRANCH  14  18
ENDBRANCH   8   9
ENDBRANCH   3   8
TORSDOF 4
ENDMDL
