MODEL 1
REMARK VINA RESULT: -5.086193161      0.000      0.000
REMARK  5 active torsions:
REMARK  status: ('A' for Active; 'I' for Inactive)
REMARK    1  A    between atoms: N1_2  and  N2_4 
REMARK    2  A    between atoms: N2_4  and  C2_6 
REMARK    3  A    between atoms: N5_13  and  N6_14 
REMARK    4  A    between atoms: N6_14  and  N7_16 
REMARK    5  A    between atoms: N7_16  and  N8_17 
ROOT
HETATM    1  C2  UNL     1      28.256  -1.172   5.440  1.00  0.00     0.186 A 
HETATM    2  C3  UNL     1      29.165  -1.061   4.385  1.00  0.00     0.072 A 
HETATM    3  C4  UNL     1      30.338  -1.945   4.106  1.00  0.00     0.074 C 
HETATM    4  N3  UNL     1      28.771   0.004   3.676  1.00  0.00    -0.285 N 
ATOM      5  H3  UNL     1      29.222   0.362   2.834  1.00  0.00     0.188 HD
HETATM    6  N4  UNL     1      27.703   0.507   4.250  1.00  0.00    -0.218 N 
ATOM      7  H4  UNL     1      27.199   1.326   3.909  1.00  0.00     0.210 HD
HETATM    8  N5  UNL     1      27.362  -0.185   5.330  1.00  0.00    -0.149 N 
ENDROOT
BRANCH   8   9
HETATM    9  N6  UNL     1      26.267   0.153   6.146  1.00  0.00    -0.203 N 
ATOM     10  H6  UNL     1      25.892   1.101   6.171  1.00  0.00     0.208 HD
BRANCH   9  11
HETATM   11  N7  UNL     1      25.712  -0.885   6.931  1.00  0.00    -0.012 NA
BRANCH  11  12
HETATM   12  N8  UNL     1      24.456  -0.578   7.416  1.00  0.00    -0.327 N 
ATOM     13  H82 UNL     1      23.885   0.175   7.031  1.00  0.00     0.174 HD
ATOM     14  H81 UNL     1      24.172  -1.179   8.189  1.00  0.00     0.174 HD
ENDBRANCH  11  12
ENDBRANCH   9  11
ENDBRANCH   8   9
BRANCH   1  15
HETATM   15  N2  UNL     1      28.333  -2.085   6.310  1.00  0.00    -0.286 N 
ATOM     16  H2  UNL     1      28.156  -3.029   5.966  1.00  0.00     0.188 HD
BRANCH  15  17
HETATM   17  N1  UNL     1      28.621  -1.995   7.658  1.00  0.00    -0.339 N 
HETATM   18  C1  UNL     1      27.867  -2.732   8.660  1.00  0.00     0.167 C 
ATOM     19  H1  UNL     1      29.387  -1.393   7.960  1.00  0.00     0.179 HD
ENDBRANCH  15  17
ENDBRANCH   1  15
TORSDOF 5
ENDMDL
MODEL 2
REMARK VINA RESULT: -4.966698461      1.518      2.074
REMARK  5 active torsions:
REMARK  status: ('A' for Active; 'I' for Inactive)
REMARK    1  A    between atoms: N1_2  and  N2_4 
REMARK    2  A    between atoms: N2_4  and  C2_6 
REMARK    3  A    between atoms: N5_13  and  N6_14 
REMARK    4  A    between atoms: N6_14  and  N7_16 
REMARK    5  A    between atoms: N7_16  and  N8_17 
ROOT
HETATM    1  C2  UNL     1      27.484  -1.336   6.564  1.00  0.00     0.186 A 
HETATM    2  C3  UNL     1      27.981  -0.625   5.469  1.00  0.00     0.072 A 
HETATM    3  C4  UNL     1      29.270  -0.860   4.749  1.00  0.00     0.074 C 
HETATM    4  N3  UNL     1      27.066   0.314   5.199  1.00  0.00    -0.285 N 
ATOM      5  H3  UNL     1      27.123   1.006   4.453  1.00  0.00     0.188 HD
HETATM    6  N4  UNL     1      26.083   0.189   6.060  1.00  0.00    -0.218 N 
ATOM      7  H4  UNL     1      25.254   0.782   6.075  1.00  0.00     0.210 HD
HETATM    8  N5  UNL     1      26.307  -0.808   6.908  1.00  0.00    -0.149 N 
ENDROOT
BRANCH   8   9
HETATM    9  N6  UNL     1      25.421  -1.145   7.949  1.00  0.00    -0.203 N 
ATOM     10  H6  UNL     1      24.487  -0.739   8.009  1.00  0.00     0.208 HD
BRANCH   9  11
HETATM   11  N7  UNL     1      25.888  -2.074   8.908  1.00  0.00    -0.012 NA
BRANCH  11  12
HETATM   12  N8  UNL     1      25.216  -1.987  10.111  1.00  0.00    -0.327 N 
ATOM     13  H82 UNL     1      25.207  -1.139  10.677  1.00  0.00     0.174 HD
ATOM     14  H81 UNL     1      24.740  -2.853  10.362  1.00  0.00     0.174 HD
ENDBRANCH  11  12
ENDBRANCH   9  11
ENDBRANCH   8   9
BRANCH   1  15
HETATM   15  N2  UNL     1      28.103  -2.309   7.081  1.00  0.00    -0.286 N 
ATOM     16  H2  UNL     1      27.980  -3.204   6.608  1.00  0.00     0.188 HD
BRANCH  15  17
HETATM   17  N1  UNL     1      28.923  -2.340   8.193  1.00  0.00    -0.339 N 
HETATM   18  C1  UNL     1      30.354  -2.093   8.104  1.00  0.00     0.167 C 
ATOM     19  H1  UNL     1      28.512  -2.542   9.104  1.00  0.00     0.179 HD
ENDBRANCH  15  17
ENDBRANCH   1  15
TORSDOF 5
ENDMDL
MODEL 3
REMARK VINA RESULT: -4.839977821      1.537      3.220
REMARK  5 active torsions:
REMARK  status: ('A' for Active; 'I' for Inactive)
REMARK    1  A    between atoms: N1_2  and  N2_4 
REMARK    2  A    between atoms: N2_4  and  C2_6 
REMARK    3  A    between atoms: N5_13  and  N6_14 
REMARK    4  A    between atoms: N6_14  and  N7_16 
REMARK    5  A    between atoms: N7_16  and  N8_17 
ROOT
HETATM    1  C2  UNL     1      28.220  -0.351   4.606  1.00  0.00     0.186 A 
HETATM    2  C3  UNL     1      29.417  -1.071   4.609  1.00  0.00     0.072 A 
HETATM    3  C4  UNL     1      30.467  -1.083   3.545  1.00  0.00     0.074 C 
HETATM    4  N3  UNL     1      29.429  -1.753   5.761  1.00  0.00    -0.285 N 
ATOM      5  H3  UNL     1      30.168  -2.381   6.076  1.00  0.00     0.188 HD
HETATM    6  N4  UNL     1      28.326  -1.472   6.415  1.00  0.00    -0.218 N 
ATOM      7  H4  UNL     1      28.085  -1.859   7.328  1.00  0.00     0.210 HD
HETATM    8  N5  UNL     1      27.565  -0.621   5.738  1.00  0.00    -0.149 N 
ENDROOT
BRANCH   8   9
HETATM    9  N6  UNL     1      26.315  -0.171   6.202  1.00  0.00    -0.203 N 
ATOM     10  H6  UNL     1      25.908   0.706   5.877  1.00  0.00     0.208 HD
BRANCH   9  11
HETATM   11  N7  UNL     1      25.649  -0.994   7.140  1.00  0.00    -0.012 NA
BRANCH  11  12
HETATM   12  N8  UNL     1      24.365  -0.566   7.413  1.00  0.00    -0.327 N 
ATOM     13  H82 UNL     1      23.898   0.159   6.869  1.00  0.00     0.174 HD
ATOM     14  H81 UNL     1      23.947  -1.050   8.208  1.00  0.00     0.174 HD
ENDBRANCH  11  12
ENDBRANCH   9  11
ENDBRANCH   8   9
BRANCH   1  15
HETATM   15  N2  UNL     1      27.888   0.411   3.654  1.00  0.00    -0.286 N 
ATOM     16  H2  UNL     1      28.264   1.358   3.705  1.00  0.00     0.188 HD
BRANCH  15  17
HETATM   17  N1  UNL     1      27.091   0.152   2.555  1.00  0.00    -0.339 N 
HETATM   18  C1  UNL     1      27.600  -0.532   1.377  1.00  0.00     0.167 C 
ATOM     19  H1  UNL     1      26.116   0.451   2.571  1.00  0.00     0.179 HD
ENDBRANCH  15  17
ENDBRANCH   1  15
TORSDOF 5
ENDMDL
MODEL 4
REMARK VINA RESULT: -4.657301559      2.311      3.812
REMARK  5 active torsions:
REMARK  status: ('A' for Active; 'I' for Inactive)
REMARK    1  A    between atoms: N1_2  and  N2_4 
REMARK    2  A    between atoms: N2_4  and  C2_6 
REMARK    3  A    between atoms: N5_13  and  N6_14 
REMARK    4  A    between atoms: N6_14  and  N7_16 
REMARK    5  A    between atoms: N7_16  and  N8_17 
ROOT
HETATM    1  C2  UNL     1      28.139  -1.051   3.235  1.00  0.00     0.186 A 
HETATM    2  C3  UNL     1      28.726  -1.941   2.332  1.00  0.00     0.072 A 
HETATM    3  C4  UNL     1      28.681  -1.874   0.839  1.00  0.00     0.074 C 
HETATM    4  N3  UNL     1      29.335  -2.869   3.079  1.00  0.00    -0.285 N 
ATOM      5  H3  UNL     1      29.861  -3.669   2.728  1.00  0.00     0.188 HD
HETATM    6  N4  UNL     1      29.138  -2.573   4.343  1.00  0.00    -0.218 N 
ATOM      7  H4  UNL     1      29.499  -3.120   5.125  1.00  0.00     0.210 HD
HETATM    8  N5  UNL     1      28.411  -1.470   4.474  1.00  0.00    -0.149 N 
ENDROOT
BRANCH   8   9
HETATM    9  N6  UNL     1      28.034  -0.941   5.723  1.00  0.00    -0.203 N 
ATOM     10  H6  UNL     1      28.226  -1.437   6.593  1.00  0.00     0.208 HD
BRANCH   9  11
HETATM   11  N7  UNL     1      27.377   0.311   5.713  1.00  0.00    -0.012 NA
BRANCH  11  12
HETATM   12  N8  UNL     1      26.084   0.243   6.192  1.00  0.00    -0.327 N 
ATOM     13  H82 UNL     1      25.474   1.058   6.251  1.00  0.00     0.174 HD
ATOM     14  H81 UNL     1      25.816  -0.699   6.473  1.00  0.00     0.174 HD
ENDBRANCH  11  12
ENDBRANCH   9  11
ENDBRANCH   8   9
BRANCH   1  15
HETATM   15  N2  UNL     1      27.480  -0.040   2.862  1.00  0.00    -0.286 N 
ATOM     16  H2  UNL     1      26.518  -0.228   2.578  1.00  0.00     0.188 HD
BRANCH  15  17
HETATM   17  N1  UNL     1      27.868   1.284   2.781  1.00  0.00    -0.339 N 
HETATM   18  C1  UNL     1      29.228   1.671   2.436  1.00  0.00     0.167 C 
ATOM     19  H1  UNL     1      27.180   2.013   2.970  1.00  0.00     0.179 HD
ENDBRANCH  15  17
ENDBRANCH   1  15
TORSDOF 5
ENDMDL
MODEL 5
REMARK VINA RESULT: -4.594863358      2.262      4.555
REMARK  5 active torsions:
REMARK  status: ('A' for Active; 'I' for Inactive)
REMARK    1  A    between atoms: N1_2  and  N2_4 
REMARK    2  A    between atoms: N2_4  and  C2_6 
REMARK    3  A    between atoms: N5_13  and  N6_14 
REMARK    4  A    between atoms: N6_14  and  N7_16 
REMARK    5  A    between atoms: N7_16  and  N8_17 
ROOT
HETATM    1  C2  UNL     1      26.871  -2.352   8.713  1.00  0.00     0.186 A 
HETATM    2  C3  UNL     1      26.230  -2.622   9.924  1.00  0.00     0.072 A 
HETATM    3  C4  UNL     1      26.772  -3.398  11.081  1.00  0.00     0.074 C 
HETATM    4  N3  UNL     1      25.026  -2.044   9.835  1.00  0.00    -0.285 N 
ATOM      5  H3  UNL     1      24.304  -2.052  10.555  1.00  0.00     0.188 HD
HETATM    6  N4  UNL     1      24.935  -1.464   8.661  1.00  0.00    -0.218 N 
ATOM      7  H4  UNL     1      24.117  -0.948   8.336  1.00  0.00     0.210 HD
HETATM    8  N5  UNL     1      26.044  -1.634   7.950  1.00  0.00    -0.149 N 
ENDROOT
BRANCH   8   9
HETATM    9  N6  UNL     1      26.204  -1.133   6.645  1.00  0.00    -0.203 N 
ATOM     10  H6  UNL     1      25.601  -1.433   5.879  1.00  0.00     0.208 HD
BRANCH   9  11
HETATM   11  N7  UNL     1      27.242  -0.193   6.446  1.00  0.00    -0.012 NA
BRANCH  11  12
HETATM   12  N8  UNL     1      27.388   0.174   5.123  1.00  0.00    -0.327 N 
ATOM     13  H82 UNL     1      27.977   0.953   4.828  1.00  0.00     0.174 HD
ATOM     14  H81 UNL     1      26.848  -0.413   4.487  1.00  0.00     0.174 HD
ENDBRANCH  11  12
ENDBRANCH   9  11
ENDBRANCH   8   9
BRANCH   1  15
HETATM   15  N2  UNL     1      28.043  -2.753   8.461  1.00  0.00    -0.286 N 
ATOM     16  H2  UNL     1      28.272  -3.679   8.823  1.00  0.00     0.188 HD
BRANCH  15  17
HETATM   17  N1  UNL     1      29.059  -2.125   7.767  1.00  0.00    -0.339 N 
HETATM   18  C1  UNL     1      30.440  -2.154   8.225  1.00  0.00     0.167 C 
ATOM     19  H1  UNL     1      28.834  -1.624   6.908  1.00  0.00     0.179 HD
ENDBRANCH  15  17
ENDBRANCH   1  15
TORSDOF 5
ENDMDL
