MODEL 1
REMARK VINA RESULT: -4.727151445      0.000      0.000
REMARK  5 active torsions:
REMARK  status: ('A' for Active; 'I' for Inactive)
REMARK    1  A    between atoms: N2_4  and  N3_6 
REMARK    2  A    between atoms: C1_8  and  N4_9 
REMARK    3  A    between atoms: N4_9  and  C2_11 
REMARK    4  A    between atoms: C2_11  and  C3_12 
REMARK    5  A    between atoms: C3_12  and  N5_13 
ROOT
HETATM    1  N4  UNL     1      18.541  41.908  57.658  1.00  0.00    -0.383 N 
ATOM      2  H4  UNL     1      19.012  42.390  58.422  1.00  0.00     0.160 HD
ENDROOT
BRANCH   1   3
HETATM    3  C1  UNL     1      19.252  40.903  56.950  1.00  0.00     0.194 C 
HETATM    4  N3  UNL     1      20.535  40.912  56.987  1.00  0.00    -0.283 N 
ATOM      5  H3  UNL     1      21.063  40.198  56.485  1.00  0.00     0.189 HD
BRANCH   4   6
HETATM    6  N2  UNL     1      21.212  41.899  57.717  1.00  0.00    -0.248 N 
HETATM    7  N1  UNL     1      22.464  41.871  57.750  1.00  0.00    -0.331 N 
ATOM      8  H12 UNL     1      22.966  41.137  57.251  1.00  0.00     0.178 HD
ATOM      9  H11 UNL     1      22.956  42.589  58.281  1.00  0.00     0.178 HD
ATOM     10  H2  UNL     1      20.696  42.626  58.211  1.00  0.00     0.207 HD
ENDBRANCH   4   6
ENDBRANCH   1   3
BRANCH   1  11
HETATM   11  C2  UNL     1      17.181  42.277  57.344  1.00  0.00     0.140 C 
BRANCH  11  12
HETATM   12  C3  UNL     1      16.798  41.817  55.951  1.00  0.00     0.148 C 
BRANCH  12  13
HETATM   13  N5  UNL     1      16.372  42.945  55.147  1.00  0.00    -0.350 N 
HETATM   14  C4  UNL     1      15.856  44.104  55.619  1.00  0.00     0.108 A 
HETATM   15  C5  UNL     1      15.595  44.877  54.509  1.00  0.00     0.106 A 
HETATM   16  N6  UNL     1      15.942  44.214  53.388  1.00  0.00    -0.361 N 
HETATM   17  C6  UNL     1      16.414  43.033  53.810  1.00  0.00     0.182 A 
ATOM     18  H6  UNL     1      15.863  44.541  52.425  1.00  0.00     0.166 HD
ENDBRANCH  12  13
ENDBRANCH  11  12
ENDBRANCH   1  11
TORSDOF 5
ENDMDL
MODEL 2
REMARK VINA RESULT: -4.538000207      0.989      1.235
REMARK  5 active torsions:
REMARK  status: ('A' for Active; 'I' for Inactive)
REMARK    1  A    between atoms: N2_4  and  N3_6 
REMARK    2  A    between atoms: C1_8  and  N4_9 
REMARK    3  A    between atoms: N4_9  and  C2_11 
REMARK    4  A    between atoms: C2_11  and  C3_12 
REMARK    5  A    between atoms: C3_12  and  N5_13 
ROOT
HETATM    1  N4  UNL     1      18.393  40.130  56.081  1.00  0.00    -0.383 N 
ATOM      2  H4  UNL     1      18.042  39.795  56.978  1.00  0.00     0.160 HD
ENDROOT
BRANCH   1   3
HETATM    3  C1  UNL     1      19.720  39.795  55.704  1.00  0.00     0.194 C 
HETATM    4  N3  UNL     1      20.697  40.352  56.322  1.00  0.00    -0.283 N 
ATOM      5  H3  UNL     1      21.658  40.123  56.065  1.00  0.00     0.189 HD
BRANCH   4   6
HETATM    6  N2  UNL     1      20.448  41.273  57.349  1.00  0.00    -0.248 N 
HETATM    7  N1  UNL     1      21.367  42.049  57.698  1.00  0.00    -0.331 N 
ATOM      8  H12 UNL     1      22.274  42.000  57.233  1.00  0.00     0.178 HD
ATOM      9  H11 UNL     1      21.186  42.720  58.445  1.00  0.00     0.178 HD
ATOM     10  H2  UNL     1      19.536  41.310  57.804  1.00  0.00     0.207 HD
ENDBRANCH   4   6
ENDBRANCH   1   3
BRANCH   1  11
HETATM   11  C2  UNL     1      17.517  40.925  55.253  1.00  0.00     0.140 C 
BRANCH  11  12
HETATM   12  C3  UNL     1      16.715  41.903  56.088  1.00  0.00     0.148 C 
BRANCH  12  13
HETATM   13  N5  UNL     1      16.301  43.032  55.281  1.00  0.00    -0.350 N 
HETATM   14  C4  UNL     1      15.772  44.188  55.749  1.00  0.00     0.108 A 
HETATM   15  C5  UNL     1      15.530  44.966  54.637  1.00  0.00     0.106 A 
HETATM   16  N6  UNL     1      15.899  44.309  53.520  1.00  0.00    -0.361 N 
HETATM   17  C6  UNL     1      16.367  43.127  53.946  1.00  0.00     0.182 A 
ATOM     18  H6  UNL     1      15.837  44.640  52.558  1.00  0.00     0.166 HD
ENDBRANCH  12  13
ENDBRANCH  11  12
ENDBRANCH   1  11
TORSDOF 5
ENDMDL
MODEL 3
REMARK VINA RESULT: -4.297219655      1.550      2.320
REMARK  5 active torsions:
REMARK  status: ('A' for Active; 'I' for Inactive)
REMARK    1  A    between atoms: N2_4  and  N3_6 
REMARK    2  A    between atoms: C1_8  and  N4_9 
REMARK    3  A    between atoms: N4_9  and  C2_11 
REMARK    4  A    between atoms: C2_11  and  C3_12 
REMARK    5  A    between atoms: C3_12  and  N5_13 
ROOT
HETATM    1  N4  UNL     1      18.601  40.580  56.921  1.00  0.00    -0.383 N 
ATOM      2  H4  UNL     1      18.130  40.260  57.767  1.00  0.00     0.160 HD
ENDROOT
BRANCH   1   3
HETATM    3  C1  UNL     1      20.020  40.621  56.910  1.00  0.00     0.194 C 
HETATM    4  N3  UNL     1      20.668  39.534  56.693  1.00  0.00    -0.283 N 
ATOM      5  H3  UNL     1      21.688  39.543  56.681  1.00  0.00     0.189 HD
BRANCH   4   6
HETATM    6  N2  UNL     1      19.977  38.334  56.473  1.00  0.00    -0.248 N 
HETATM    7  N1  UNL     1      20.185  37.369  57.244  1.00  0.00    -0.331 N 
ATOM      8  H12 UNL     1      20.847  37.471  58.012  1.00  0.00     0.178 HD
ATOM      9  H11 UNL     1      19.682  36.496  57.083  1.00  0.00     0.178 HD
ATOM     10  H2  UNL     1      19.317  38.249  55.700  1.00  0.00     0.207 HD
ENDBRANCH   4   6
ENDBRANCH   1   3
BRANCH   1  11
HETATM   11  C2  UNL     1      17.795  40.972  55.789  1.00  0.00     0.140 C 
BRANCH  11  12
HETATM   12  C3  UNL     1      16.693  41.926  56.208  1.00  0.00     0.148 C 
BRANCH  12  13
HETATM   13  N5  UNL     1      16.396  42.854  55.137  1.00  0.00    -0.350 N 
HETATM   14  C4  UNL     1      16.653  42.655  53.822  1.00  0.00     0.108 A 
HETATM   15  C5  UNL     1      16.208  43.790  53.178  1.00  0.00     0.106 A 
HETATM   16  N6  UNL     1      15.692  44.659  54.070  1.00  0.00    -0.361 N 
HETATM   17  C6  UNL     1      15.822  44.059  55.262  1.00  0.00     0.182 A 
ATOM     18  H6  UNL     1      15.288  45.576  53.879  1.00  0.00     0.166 HD
ENDBRANCH  12  13
ENDBRANCH  11  12
ENDBRANCH   1  11
TORSDOF 5
ENDMDL
MODEL 4
REMARK VINA RESULT: -4.226845778      1.602      2.181
REMARK  5 active torsions:
REMARK  status: ('A' for Active; 'I' for Inactive)
REMARK    1  A    between atoms: N2_4  and  N3_6 
REMARK    2  A    between atoms: C1_8  and  N4_9 
REMARK    3  A    between atoms: N4_9  and  C2_11 
REMARK    4  A    between atoms: C2_11  and  C3_12 
REMARK    5  A    between atoms: C3_12  and  N5_13 
ROOT
HETATM    1  N4  UNL     1      18.502  40.372  56.624  1.00  0.00    -0.383 N 
ATOM      2  H4  UNL     1      17.962  39.813  57.284  1.00  0.00     0.160 HD
ENDROOT
BRANCH   1   3
HETATM    3  C1  UNL     1      19.911  40.439  56.788  1.00  0.00     0.194 C 
HETATM    4  N3  UNL     1      20.600  39.364  56.656  1.00  0.00    -0.283 N 
ATOM      5  H3  UNL     1      21.613  39.393  56.770  1.00  0.00     0.189 HD
BRANCH   4   6
HETATM    6  N2  UNL     1      19.963  38.151  56.358  1.00  0.00    -0.248 N 
HETATM    7  N1  UNL     1      20.060  37.204  57.172  1.00  0.00    -0.331 N 
ATOM      8  H12 UNL     1      20.594  37.329  58.031  1.00  0.00     0.178 HD
ATOM      9  H11 UNL     1      19.596  36.322  56.954  1.00  0.00     0.178 HD
ATOM     10  H2  UNL     1      19.432  38.042  55.494  1.00  0.00     0.207 HD
ENDBRANCH   4   6
ENDBRANCH   1   3
BRANCH   1  11
HETATM   11  C2  UNL     1      17.799  41.059  55.566  1.00  0.00     0.140 C 
BRANCH  11  12
HETATM   12  C3  UNL     1      16.639  41.865  56.116  1.00  0.00     0.148 C 
BRANCH  12  13
HETATM   13  N5  UNL     1      16.306  42.948  55.214  1.00  0.00    -0.350 N 
HETATM   14  C4  UNL     1      15.788  44.147  55.573  1.00  0.00     0.108 A 
HETATM   15  C5  UNL     1      15.633  44.854  54.400  1.00  0.00     0.106 A 
HETATM   16  N6  UNL     1      16.043  44.112  53.352  1.00  0.00    -0.361 N 
HETATM   17  C6  UNL     1      16.449  42.950  53.881  1.00  0.00     0.182 A 
ATOM     18  H6  UNL     1      16.045  44.379  52.367  1.00  0.00     0.166 HD
ENDBRANCH  12  13
ENDBRANCH  11  12
ENDBRANCH   1  11
TORSDOF 5
ENDMDL
MODEL 5
REMARK VINA RESULT: -4.175103650      1.735      5.647
REMARK  5 active torsions:
REMARK  status: ('A' for Active; 'I' for Inactive)
REMARK    1  A    between atoms: N2_4  and  N3_6 
REMARK    2  A    between atoms: C1_8  and  N4_9 
REMARK    3  A    between atoms: N4_9  and  C2_11 
REMARK    4  A    between atoms: C2_11  and  C3_12 
REMARK    5  A    between atoms: C3_12  and  N5_13 
ROOT
HETATM    1  N4  UNL     1      16.761  42.271  54.022  1.00  0.00    -0.383 N 
ATOM      2  H4  UNL     1      16.357  42.276  54.958  1.00  0.00     0.160 HD
ENDROOT
BRANCH   1   3
HETATM    3  C1  UNL     1      16.430  43.328  53.134  1.00  0.00     0.194 C 
HETATM    4  N3  UNL     1      15.857  44.374  53.606  1.00  0.00    -0.283 N 
ATOM      5  H3  UNL     1      15.611  45.144  52.984  1.00  0.00     0.189 HD
BRANCH   4   6
HETATM    6  N2  UNL     1      15.566  44.462  54.975  1.00  0.00    -0.248 N 
HETATM    7  N1  UNL     1      14.697  45.279  55.355  1.00  0.00    -0.331 N 
ATOM      8  H12 UNL     1      14.217  45.862  54.669  1.00  0.00     0.178 HD
ATOM      9  H11 UNL     1      14.486  45.343  56.351  1.00  0.00     0.178 HD
ATOM     10  H2  UNL     1      16.054  43.872  55.649  1.00  0.00     0.207 HD
ENDBRANCH   4   6
ENDBRANCH   1   3
BRANCH   1  11
HETATM   11  C2  UNL     1      17.645  41.188  53.660  1.00  0.00     0.140 C 
BRANCH  11  12
HETATM   12  C3  UNL     1      17.714  40.149  54.761  1.00  0.00     0.148 C 
BRANCH  12  13
HETATM   13  N5  UNL     1      18.729  40.508  55.731  1.00  0.00    -0.350 N 
HETATM   14  C4  UNL     1      20.045  40.195  55.653  1.00  0.00     0.108 A 
HETATM   15  C5  UNL     1      20.624  40.733  56.781  1.00  0.00     0.106 A 
HETATM   16  N6  UNL     1      19.694  41.359  57.529  1.00  0.00    -0.361 N 
HETATM   17  C6  UNL     1      18.542  41.203  56.861  1.00  0.00     0.182 A 
ATOM     18  H6  UNL     1      19.836  41.847  58.414  1.00  0.00     0.166 HD
ENDBRANCH  12  13
ENDBRANCH  11  12
ENDBRANCH   1  11
TORSDOF 5
ENDMDL
