MODEL 1
REMARK VINA RESULT: -4.325579227      0.000      0.000
REMARK  5 active torsions:
REMARK  status: ('A' for Active; 'I' for Inactive)
REMARK    1  A    between atoms: N2_4  and  N3_6 
REMARK    2  A    between atoms: C1_8  and  N4_9 
REMARK    3  A    between atoms: C4_12  and  C5_13 
REMARK    4  A    between atoms: C5_13  and  N5_14 
REMARK    5  A    between atoms: N5_14  and  C6_16 
ROOT
HETATM    1  N4  UNL     1      16.852  41.815  52.516  1.00  0.00    -0.319 N 
HETATM    2  C2  UNL     1      16.524  40.972  51.437  1.00  0.00     0.100 A 
HETATM    3  C3  UNL     1      17.236  39.950  52.179  1.00  0.00     0.045 A 
HETATM    4  C4  UNL     1      17.509  40.769  53.147  1.00  0.00     0.036 A 
ENDROOT
BRANCH   1   5
HETATM    5  C1  UNL     1      16.617  43.178  52.850  1.00  0.00     0.206 C 
HETATM    6  N3  UNL     1      15.848  43.443  53.842  1.00  0.00    -0.282 N 
ATOM      7  H3  UNL     1      15.429  42.670  54.360  1.00  0.00     0.189 HD
BRANCH   6   8
HETATM    8  N2  UNL     1      15.565  44.754  54.238  1.00  0.00    -0.248 N 
HETATM    9  N1  UNL     1      14.923  45.005  55.303  1.00  0.00    -0.331 N 
ATOM     10  H12 UNL     1      14.613  44.219  55.875  1.00  0.00     0.178 HD
ATOM     11  H11 UNL     1      14.717  45.962  55.591  1.00  0.00     0.178 HD
ATOM     12  H2  UNL     1      15.882  45.529  53.654  1.00  0.00     0.207 HD
ENDBRANCH   6   8
ENDBRANCH   1   5
BRANCH   4  13
HETATM   13  C5  UNL     1      18.255  40.640  54.459  1.00  0.00     0.179 C 
BRANCH  13  14
HETATM   14  N5  UNL     1      17.348  40.652  55.565  1.00  0.00    -0.363 N 
ATOM     15  H5  UNL     1      16.638  39.925  55.657  1.00  0.00     0.162 HD
BRANCH  14  16
HETATM   16  C6  UNL     1      17.446  41.681  56.529  1.00  0.00     0.348 C 
HETATM   17  O1  UNL     1      16.857  42.788  56.391  1.00  0.00    -0.284 OA
ENDBRANCH  14  16
ENDBRANCH  13  14
ENDBRANCH   4  13
TORSDOF 5
ENDMDL
MODEL 2
REMARK VINA RESULT: -4.148731280      2.138      4.604
REMARK  5 active torsions:
REMARK  status: ('A' for Active; 'I' for Inactive)
REMARK    1  A    between atoms: N2_4  and  N3_6 
REMARK    2  A    between atoms: C1_8  and  N4_9 
REMARK    3  A    between atoms: C4_12  and  C5_13 
REMARK    4  A    between atoms: C5_13  and  N5_14 
REMARK    5  A    between atoms: N5_14  and  C6_16 
ROOT
HETATM    1  N4  UNL     1      15.901  43.643  55.484  1.00  0.00    -0.319 N 
HETATM    2  C2  UNL     1      15.343  44.803  56.055  1.00  0.00     0.100 A 
HETATM    3  C3  UNL     1      15.478  45.372  54.728  1.00  0.00     0.045 A 
HETATM    4  C4  UNL     1      15.987  44.277  54.254  1.00  0.00     0.036 A 
ENDROOT
BRANCH   1   5
HETATM    5  C1  UNL     1      16.244  42.343  55.951  1.00  0.00     0.206 C 
HETATM    6  N3  UNL     1      17.391  41.861  55.635  1.00  0.00    -0.282 N 
ATOM      7  H3  UNL     1      18.021  42.423  55.062  1.00  0.00     0.189 HD
BRANCH   6   8
HETATM    8  N2  UNL     1      17.807  40.593  56.052  1.00  0.00    -0.248 N 
HETATM    9  N1  UNL     1      17.734  39.583  55.289  1.00  0.00    -0.331 N 
ATOM     10  H12 UNL     1      17.359  39.717  54.349  1.00  0.00     0.178 HD
ATOM     11  H11 UNL     1      18.037  38.657  55.593  1.00  0.00     0.178 HD
ATOM     12  H2  UNL     1      18.180  40.477  56.995  1.00  0.00     0.207 HD
ENDBRANCH   6   8
ENDBRANCH   1   5
BRANCH   4  13
HETATM   13  C5  UNL     1      16.484  43.852  52.888  1.00  0.00     0.179 C 
BRANCH  13  14
HETATM   14  N5  UNL     1      15.902  42.604  52.499  1.00  0.00    -0.363 N 
ATOM     15  H5  UNL     1      14.889  42.481  52.510  1.00  0.00     0.162 HD
BRANCH  14  16
HETATM   16  C6  UNL     1      16.745  41.541  52.100  1.00  0.00     0.348 C 
HETATM   17  O1  UNL     1      17.687  41.122  52.827  1.00  0.00    -0.284 OA
ENDBRANCH  14  16
ENDBRANCH  13  14
ENDBRANCH   4  13
TORSDOF 5
ENDMDL
MODEL 3
REMARK VINA RESULT: -3.843193180      1.289      3.300
REMARK  5 active torsions:
REMARK  status: ('A' for Active; 'I' for Inactive)
REMARK    1  A    between atoms: N2_4  and  N3_6 
REMARK    2  A    between atoms: C1_8  and  N4_9 
REMARK    3  A    between atoms: C4_12  and  C5_13 
REMARK    4  A    between atoms: C5_13  and  N5_14 
REMARK    5  A    between atoms: N5_14  and  C6_16 
ROOT
HETATM    1  N4  UNL     1      17.628  40.625  53.155  1.00  0.00    -0.319 N 
HETATM    2  C2  UNL     1      17.305  39.747  52.103  1.00  0.00     0.100 A 
HETATM    3  C3  UNL     1      16.587  40.877  51.545  1.00  0.00     0.045 A 
HETATM    4  C4  UNL     1      16.916  41.642  52.540  1.00  0.00     0.036 A 
ENDROOT
BRANCH   1   5
HETATM    5  C1  UNL     1      18.377  40.534  54.362  1.00  0.00     0.206 C 
HETATM    6  N3  UNL     1      17.745  40.562  55.479  1.00  0.00    -0.282 N 
ATOM      7  H3  UNL     1      16.729  40.650  55.468  1.00  0.00     0.189 HD
BRANCH   6   8
HETATM    8  N2  UNL     1      18.403  40.478  56.711  1.00  0.00    -0.248 N 
HETATM    9  N1  UNL     1      18.760  41.515  57.347  1.00  0.00    -0.331 N 
ATOM     10  H12 UNL     1      18.555  42.427  56.937  1.00  0.00     0.178 HD
ATOM     11  H11 UNL     1      19.240  41.454  58.246  1.00  0.00     0.178 HD
ATOM     12  H2  UNL     1      18.599  39.559  57.107  1.00  0.00     0.207 HD
ENDBRANCH   6   8
ENDBRANCH   1   5
BRANCH   4  13
HETATM   13  C5  UNL     1      16.633  43.087  52.895  1.00  0.00     0.179 C 
BRANCH  13  14
HETATM   14  N5  UNL     1      15.604  43.178  53.884  1.00  0.00    -0.363 N 
ATOM     15  H5  UNL     1      14.658  42.856  53.675  1.00  0.00     0.162 HD
BRANCH  14  16
HETATM   16  C6  UNL     1      15.909  43.718  55.155  1.00  0.00     0.348 C 
HETATM   17  O1  UNL     1      16.586  43.084  56.009  1.00  0.00    -0.284 OA
ENDBRANCH  14  16
ENDBRANCH  13  14
ENDBRANCH   4  13
TORSDOF 5
ENDMDL
MODEL 4
REMARK VINA RESULT: -3.831190180      2.499      4.795
REMARK  5 active torsions:
REMARK  status: ('A' for Active; 'I' for Inactive)
REMARK    1  A    between atoms: N2_4  and  N3_6 
REMARK    2  A    between atoms: C1_8  and  N4_9 
REMARK    3  A    between atoms: C4_12  and  C5_13 
REMARK    4  A    between atoms: C5_13  and  N5_14 
REMARK    5  A    between atoms: N5_14  and  C6_16 
ROOT
HETATM    1  N4  UNL     1      15.947  43.589  55.475  1.00  0.00    -0.319 N 
HETATM    2  C2  UNL     1      15.399  44.784  55.979  1.00  0.00     0.100 A 
HETATM    3  C3  UNL     1      15.531  45.272  54.620  1.00  0.00     0.045 A 
HETATM    4  C4  UNL     1      16.031  44.148  54.209  1.00  0.00     0.036 A 
ENDROOT
BRANCH   1   5
HETATM    5  C1  UNL     1      16.285  42.317  56.017  1.00  0.00     0.206 C 
HETATM    6  N3  UNL     1      17.449  41.836  55.772  1.00  0.00    -0.282 N 
ATOM      7  H3  UNL     1      18.095  42.377  55.198  1.00  0.00     0.189 HD
BRANCH   6   8
HETATM    8  N2  UNL     1      17.862  40.594  56.265  1.00  0.00    -0.248 N 
HETATM    9  N1  UNL     1      18.868  40.481  57.030  1.00  0.00    -0.331 N 
ATOM     10  H12 UNL     1      19.378  41.328  57.282  1.00  0.00     0.178 HD
ATOM     11  H11 UNL     1      19.169  39.575  57.390  1.00  0.00     0.178 HD
ATOM     12  H2  UNL     1      17.340  39.757  56.004  1.00  0.00     0.207 HD
ENDBRANCH   6   8
ENDBRANCH   1   5
BRANCH   4  13
HETATM   13  C5  UNL     1      16.518  43.639  52.869  1.00  0.00     0.179 C 
BRANCH  13  14
HETATM   14  N5  UNL     1      15.854  42.423  52.512  1.00  0.00    -0.363 N 
ATOM     15  H5  UNL     1      14.906  42.238  52.842  1.00  0.00     0.162 HD
BRANCH  14  16
HETATM   16  C6  UNL     1      16.524  41.480  51.700  1.00  0.00     0.348 C 
HETATM   17  O1  UNL     1      15.927  40.820  50.805  1.00  0.00    -0.284 OA
ENDBRANCH  14  16
ENDBRANCH  13  14
ENDBRANCH   4  13
TORSDOF 5
ENDMDL
MODEL 5
REMARK VINA RESULT: -3.813073586      1.619      3.317
REMARK  5 active torsions:
REMARK  status: ('A' for Active; 'I' for Inactive)
REMARK    1  A    between atoms: N2_4  and  N3_6 
REMARK    2  A    between atoms: C1_8  and  N4_9 
REMARK    3  A    between atoms: C4_12  and  C5_13 
REMARK    4  A    between atoms: C5_13  and  N5_14 
REMARK    5  A    between atoms: N5_14  and  C6_16 
ROOT
HETATM    1  N4  UNL     1      17.720  41.316  55.971  1.00  0.00    -0.319 N 
HETATM    2  C2  UNL     1      18.793  41.046  56.840  1.00  0.00     0.100 A 
HETATM    3  C3  UNL     1      19.270  40.176  55.782  1.00  0.00     0.045 A 
HETATM    4  C4  UNL     1      18.259  40.462  55.021  1.00  0.00     0.036 A 
ENDROOT
BRANCH   1   5
HETATM    5  C1  UNL     1      16.551  42.128  56.019  1.00  0.00     0.206 C 
HETATM    6  N3  UNL     1      16.428  43.077  55.163  1.00  0.00    -0.282 N 
ATOM      7  H3  UNL     1      17.169  43.221  54.477  1.00  0.00     0.189 HD
BRANCH   6   8
HETATM    8  N2  UNL     1      15.313  43.920  55.141  1.00  0.00    -0.248 N 
HETATM    9  N1  UNL     1      15.283  44.967  54.425  1.00  0.00    -0.331 N 
ATOM     10  H12 UNL     1      16.103  45.185  53.857  1.00  0.00     0.178 HD
ATOM     11  H11 UNL     1      14.470  45.582  54.408  1.00  0.00     0.178 HD
ATOM     12  H2  UNL     1      14.502  43.687  55.714  1.00  0.00     0.207 HD
ENDBRANCH   6   8
ENDBRANCH   1   5
BRANCH   4  13
HETATM   13  C5  UNL     1      17.830  40.033  53.633  1.00  0.00     0.179 C 
BRANCH  13  14
HETATM   14  N5  UNL     1      17.909  41.126  52.714  1.00  0.00    -0.363 N 
ATOM     15  H5  UNL     1      18.794  41.612  52.565  1.00  0.00     0.162 HD
BRANCH  14  16
HETATM   16  C6  UNL     1      16.748  41.527  52.013  1.00  0.00     0.348 C 
HETATM   17  O1  UNL     1      16.032  42.492  52.396  1.00  0.00    -0.284 OA
ENDBRANCH  14  16
ENDBRANCH  13  14
ENDBRANCH   4  13
TORSDOF 5
ENDMDL
