MODEL 1
REMARK VINA RESULT: -7.285578235      0.000      0.000
REMARK  6 active torsions:
REMARK  status: ('A' for Active; 'I' for Inactive)
REMARK       I    between atoms: N2_6  and  C4_8 
REMARK       I    between atoms: C4_8  and  N3_9 
REMARK       I    between atoms: C4_8  and  N4_13 
REMARK    1  A    between atoms: N6_19  and  O1_20 
REMARK    2  A    between atoms: C5_22  and  C6_23 
REMARK    3  A    between atoms: C6_23  and  C7_24 
REMARK    4  A    between atoms: C8_29  and  C9_30 
REMARK       I    between atoms: C9_30  and  N9_32 
REMARK    5  A    between atoms: N9_32  and  O3_33 
REMARK    6  A    between atoms: O3_33  and  C10_34 
ROOT
HETATM    1  C1  UNL     1       1.922  10.496   7.027  1.00  0.00     0.071 C 
HETATM    2  C2  UNL     1       1.882  11.093   5.639  1.00  0.00     0.050 A 
HETATM    3  N1  UNL     1       2.749  10.565   4.751  1.00  0.00    -0.193 N 
ATOM      4  H1  UNL     1       3.317   9.762   5.020  1.00  0.00     0.184 HD
HETATM    5  C3  UNL     1       2.875  11.079   3.527  1.00  0.00     0.698 A 
HETATM    6  N2  UNL     1       3.596  10.553   2.688  1.00  0.00    -0.172 N 
ATOM      7  H2  UNL     1       3.531  11.111   1.836  1.00  0.00     0.181 HD
HETATM    8  C4  UNL     1       4.454   9.516   2.434  1.00  0.00     0.494 C 
HETATM    9  N3  UNL     1       5.891   9.715   2.721  1.00  0.00    -0.032 N 
ATOM     10  H31 UNL     1       6.530   8.943   2.532  1.00  0.00     0.278 HD
ATOM     11  H32 UNL     1       6.000  10.008   3.692  1.00  0.00     0.278 HD
ATOM     12  H33 UNL     1       6.218  10.547   2.229  1.00  0.00     0.278 HD
HETATM   13  N4  UNL     1       4.378   9.278   0.959  1.00  0.00    -0.032 N 
ATOM     14  H41 UNL     1       5.017   8.505   0.770  1.00  0.00     0.278 HD
ATOM     15  H42 UNL     1       4.567  10.110   0.401  1.00  0.00     0.278 HD
ATOM     16  H43 UNL     1       3.430   9.115   0.620  1.00  0.00     0.278 HD
HETATM   17  N5  UNL     1       2.081  12.179   3.206  1.00  0.00    -0.106 N 
ATOM     18  H5  UNL     1       2.158  12.596   2.279  1.00  0.00     0.208 HD
HETATM   19  N6  UNL     1       1.248  12.683   4.062  1.00  0.00    -0.151 N 
HETATM   20  C5  UNL     1       1.110  12.159   5.314  1.00  0.00     0.089 A 
ENDROOT
BRANCH  20  21
HETATM   21  C6  UNL     1       0.007  12.624   6.146  1.00  0.00     0.141 C 
BRANCH  21  22
HETATM   22  C7  UNL     1       0.449  13.683   7.102  1.00  0.00     0.103 A 
HETATM   23  N7  UNL     1       0.777  13.656   8.384  1.00  0.00    -0.287 N 
HETATM   24  N8  UNL     1       1.043  14.927   8.744  1.00  0.00    -0.279 N 
ATOM     25  H7  UNL     1       0.821  12.832   8.984  1.00  0.00     0.188 HD
HETATM   26  C8  UNL     1       0.883  15.723   7.699  1.00  0.00     0.208 A 
ATOM     27  H8  UNL     1       1.325  15.229   9.677  1.00  0.00     0.189 HD
HETATM   28  N12 UNL     1       0.518  14.931   6.691  1.00  0.00    -0.324 N 
ATOM     29  H12 UNL     1       0.320  15.247   5.741  1.00  0.00     0.169 HD
BRANCH  26  30
HETATM   30  C9  UNL     1       1.011  17.227   7.606  1.00  0.00     0.389 C 
HETATM   31  O2  UNL     1       2.145  17.645   7.315  1.00  0.00    -0.245 OA
HETATM   32  N9  UNL     1      -0.099  17.940   7.842  1.00  0.00    -0.225 NA
BRANCH  32  33
HETATM   33  O3  UNL     1      -1.188  18.647   8.073  1.00  0.00    -0.128 OA
BRANCH  33  34
HETATM   34  C10 UNL     1      -2.433  18.039   8.350  1.00  0.00     0.264 C 
HETATM   35  N10 UNL     1      -3.166  17.866   7.332  1.00  0.00    -0.365 N 
ATOM     36 2H10 UNL     1      -2.905  18.128   6.382  1.00  0.00     0.159 HD
ATOM     37 1H10 UNL     1      -4.065  17.426   7.533  1.00  0.00     0.159 HD
HETATM   38  N11 UNL     1      -2.794  17.676   9.668  1.00  0.00    -0.054 NA
ENDBRANCH  33  34
ENDBRANCH  32  33
ENDBRANCH  26  30
ENDBRANCH  21  22
ENDBRANCH  20  21
BRANCH  19  39
HETATM   39  O1  UNL     1       0.487  13.773   3.678  1.00  0.00    -0.267 OA
ATOM     40  H1  UNL     1       0.104  14.318   4.355  1.00  0.00     0.247 HD
ENDBRANCH  19  39
TORSDOF 6
ENDMDL
MODEL 2
REMARK VINA RESULT: -7.091742787      1.948      2.949
REMARK  6 active torsions:
REMARK  status: ('A' for Active; 'I' for Inactive)
REMARK       I    between atoms: N2_6  and  C4_8 
REMARK       I    between atoms: C4_8  and  N3_9 
REMARK       I    between atoms: C4_8  and  N4_13 
REMARK    1  A    between atoms: N6_19  and  O1_20 
REMARK    2  A    between atoms: C5_22  and  C6_23 
REMARK    3  A    between atoms: C6_23  and  C7_24 
REMARK    4  A    between atoms: C8_29  and  C9_30 
REMARK       I    between atoms: C9_30  and  N9_32 
REMARK    5  A    between atoms: N9_32  and  O3_33 
REMARK    6  A    between atoms: O3_33  and  C10_34 
ROOT
HETATM    1  C1  UNL     1       3.138   9.680   6.413  1.00  0.00     0.071 C 
HETATM    2  C2  UNL     1       3.506   9.771   4.950  1.00  0.00     0.050 A 
HETATM    3  N1  UNL     1       4.690   9.221   4.610  1.00  0.00    -0.193 N 
ATOM      4  H1  UNL     1       5.229   8.714   5.312  1.00  0.00     0.184 HD
HETATM    5  C3  UNL     1       5.165   9.330   3.368  1.00  0.00     0.698 A 
HETATM    6  N2  UNL     1       6.196   8.760   3.031  1.00  0.00    -0.172 N 
ATOM      7  H2  UNL     1       6.359   8.981   2.048  1.00  0.00     0.181 HD
HETATM    8  C4  UNL     1       7.216   7.945   3.442  1.00  0.00     0.494 C 
HETATM    9  N3  UNL     1       8.424   8.577   4.016  1.00  0.00    -0.032 N 
ATOM     10  H31 UNL     1       9.185   7.970   4.323  1.00  0.00     0.278 HD
ATOM     11  H32 UNL     1       8.149   9.183   4.790  1.00  0.00     0.278 HD
ATOM     12  H33 UNL     1       8.790   9.262   3.354  1.00  0.00     0.278 HD
HETATM   13  N4  UNL     1       7.692   7.236   2.214  1.00  0.00    -0.032 N 
ATOM     14  H41 UNL     1       8.452   6.629   2.520  1.00  0.00     0.278 HD
ATOM     15  H42 UNL     1       7.952   7.865   1.455  1.00  0.00     0.278 HD
ATOM     16  H43 UNL     1       6.951   6.743   1.715  1.00  0.00     0.278 HD
HETATM   17  N5  UNL     1       4.396  10.034   2.444  1.00  0.00    -0.106 N 
ATOM     18  H5  UNL     1       4.735  10.138   1.488  1.00  0.00     0.208 HD
HETATM   19  N6  UNL     1       3.259  10.562   2.774  1.00  0.00    -0.151 N 
HETATM   20  C5  UNL     1       2.763  10.449   4.041  1.00  0.00     0.089 A 
ENDROOT
BRANCH  20  21
HETATM   21  C6  UNL     1       1.389  10.865   4.291  1.00  0.00     0.141 C 
BRANCH  21  22
HETATM   22  C7  UNL     1       1.299  12.332   4.560  1.00  0.00     0.103 A 
HETATM   23  N7  UNL     1       1.661  13.397   3.863  1.00  0.00    -0.287 N 
HETATM   24  N8  UNL     1       1.387  14.473   4.628  1.00  0.00    -0.279 N 
ATOM     25  H7  UNL     1       2.067  13.403   2.928  1.00  0.00     0.188 HD
HETATM   26  C8  UNL     1       0.864  14.075   5.776  1.00  0.00     0.208 A 
ATOM     27  H8  UNL     1       1.557  15.443   4.362  1.00  0.00     0.189 HD
HETATM   28  N12 UNL     1       0.815  12.744   5.713  1.00  0.00    -0.324 N 
ATOM     29  H12 UNL     1       0.456  12.136   6.449  1.00  0.00     0.169 HD
BRANCH  26  30
HETATM   30  C9  UNL     1       0.442  14.892   6.977  1.00  0.00     0.389 C 
HETATM   31  O2  UNL     1       1.178  14.788   7.973  1.00  0.00    -0.245 OA
HETATM   32  N9  UNL     1      -0.667  15.632   6.840  1.00  0.00    -0.225 NA
BRANCH  32  33
HETATM   33  O3  UNL     1      -1.757  16.362   6.711  1.00  0.00    -0.128 OA
BRANCH  33  34
HETATM   34  C10 UNL     1      -1.900  17.617   7.343  1.00  0.00     0.264 C 
HETATM   35  N10 UNL     1      -3.067  18.105   7.275  1.00  0.00    -0.365 N 
ATOM     36 2H10 UNL     1      -3.856  17.651   6.815  1.00  0.00     0.159 HD
ATOM     37 1H10 UNL     1      -3.169  19.011   7.732  1.00  0.00     0.159 HD
HETATM   38  N11 UNL     1      -0.806  18.246   7.980  1.00  0.00    -0.054 NA
ENDBRANCH  33  34
ENDBRANCH  32  33
ENDBRANCH  26  30
ENDBRANCH  21  22
ENDBRANCH  20  21
BRANCH  19  39
HETATM   39  O1  UNL     1       2.543  11.245   1.808  1.00  0.00    -0.267 OA
ATOM     40  H1  UNL     1       1.601  11.316   1.908  1.00  0.00     0.247 HD
ENDBRANCH  19  39
TORSDOF 6
ENDMDL
MODEL 3
REMARK VINA RESULT: -7.072690053      1.376      1.931
REMARK  6 active torsions:
REMARK  status: ('A' for Active; 'I' for Inactive)
REMARK       I    between atoms: N2_6  and  C4_8 
REMARK       I    between atoms: C4_8  and  N3_9 
REMARK       I    between atoms: C4_8  and  N4_13 
REMARK    1  A    between atoms: N6_19  and  O1_20 
REMARK    2  A    between atoms: C5_22  and  C6_23 
REMARK    3  A    between atoms: C6_23  and  C7_24 
REMARK    4  A    between atoms: C8_29  and  C9_30 
REMARK       I    between atoms: C9_30  and  N9_32 
REMARK    5  A    between atoms: N9_32  and  O3_33 
REMARK    6  A    between atoms: O3_33  and  C10_34 
ROOT
HETATM    1  C1  UNL     1       0.969  13.609   2.666  1.00  0.00     0.071 C 
HETATM    2  C2  UNL     1       1.338  12.385   3.472  1.00  0.00     0.050 A 
HETATM    3  N1  UNL     1       2.408  11.694   3.029  1.00  0.00    -0.193 N 
ATOM      4  H1  UNL     1       2.953  12.058   2.247  1.00  0.00     0.184 HD
HETATM    5  C3  UNL     1       2.764  10.542   3.599  1.00  0.00     0.698 A 
HETATM    6  N2  UNL     1       3.784   9.953   3.258  1.00  0.00    -0.172 N 
ATOM      7  H2  UNL     1       3.854   9.110   3.827  1.00  0.00     0.181 HD
HETATM    8  C4  UNL     1       4.867   9.974   2.421  1.00  0.00     0.494 C 
HETATM    9  N3  UNL     1       4.734   9.336   1.093  1.00  0.00    -0.032 N 
ATOM     10  H31 UNL     1       5.541   9.351   0.470  1.00  0.00     0.278 HD
ATOM     11  H32 UNL     1       3.930   9.737   0.609  1.00  0.00     0.278 HD
ATOM     12  H33 UNL     1       4.425   8.372   1.215  1.00  0.00     0.278 HD
HETATM   13  N4  UNL     1       5.938   9.199   3.122  1.00  0.00    -0.032 N 
ATOM     14  H41 UNL     1       6.745   9.215   2.498  1.00  0.00     0.278 HD
ATOM     15  H42 UNL     1       5.650   8.260   3.394  1.00  0.00     0.278 HD
ATOM     16  H43 UNL     1       6.141   9.542   4.061  1.00  0.00     0.278 HD
HETATM   17  N5  UNL     1       1.989  10.082   4.661  1.00  0.00    -0.106 N 
ATOM     18  H5  UNL     1       2.235   9.202   5.114  1.00  0.00     0.208 HD
HETATM   19  N6  UNL     1       0.961  10.749   5.085  1.00  0.00    -0.151 N 
HETATM   20  C5  UNL     1       0.594  11.931   4.511  1.00  0.00     0.089 A 
ENDROOT
BRANCH  20  21
HETATM   21  C6  UNL     1      -0.425  12.738   5.170  1.00  0.00     0.141 C 
BRANCH  21  22
HETATM   22  C7  UNL     1       0.113  13.411   6.390  1.00  0.00     0.103 A 
HETATM   23  N7  UNL     1       0.268  13.012   7.642  1.00  0.00    -0.287 N 
HETATM   24  N8  UNL     1       0.753  14.065   8.329  1.00  0.00    -0.279 N 
ATOM     25  H7  UNL     1       0.061  12.086   8.015  1.00  0.00     0.188 HD
HETATM   26  C8  UNL     1       0.895  15.095   7.512  1.00  0.00     0.208 A 
ATOM     27  H8  UNL     1       0.977  14.067   9.325  1.00  0.00     0.189 HD
HETATM   28  N12 UNL     1       0.496  14.669   6.314  1.00  0.00    -0.324 N 
ATOM     29  H12 UNL     1       0.487  15.233   5.464  1.00  0.00     0.169 HD
BRANCH  26  30
HETATM   30  C9  UNL     1       1.352  16.506   7.811  1.00  0.00     0.389 C 
HETATM   31  O2  UNL     1       2.578  16.647   7.955  1.00  0.00    -0.245 OA
HETATM   32  N9  UNL     1       0.397  17.443   7.886  1.00  0.00    -0.225 NA
BRANCH  32  33
HETATM   33  O3  UNL     1      -0.539  18.370   7.962  1.00  0.00    -0.128 OA
BRANCH  33  34
HETATM   34  C10 UNL     1      -1.891  18.051   8.216  1.00  0.00     0.264 C 
HETATM   35  N10 UNL     1      -2.644  18.123   7.200  1.00  0.00    -0.365 N 
ATOM     36 2H10 UNL     1      -2.328  18.381   6.265  1.00  0.00     0.159 HD
ATOM     37 1H10 UNL     1      -3.620  17.893   7.384  1.00  0.00     0.159 HD
HETATM   38  N11 UNL     1      -2.329  17.694   9.512  1.00  0.00    -0.054 NA
ENDBRANCH  33  34
ENDBRANCH  32  33
ENDBRANCH  26  30
ENDBRANCH  21  22
ENDBRANCH  20  21
BRANCH  19  39
HETATM   39  O1  UNL     1       0.236  10.239   6.147  1.00  0.00    -0.267 OA
ATOM     40  H1  UNL     1      -0.669   9.992   6.000  1.00  0.00     0.247 HD
ENDBRANCH  19  39
TORSDOF 6
ENDMDL
MODEL 4
REMARK VINA RESULT: -6.857877894      5.072      7.076
REMARK  6 active torsions:
REMARK  status: ('A' for Active; 'I' for Inactive)
REMARK       I    between atoms: N2_6  and  C4_8 
REMARK       I    between atoms: C4_8  and  N3_9 
REMARK       I    between atoms: C4_8  and  N4_13 
REMARK    1  A    between atoms: N6_19  and  O1_20 
REMARK    2  A    between atoms: C5_22  and  C6_23 
REMARK    3  A    between atoms: C6_23  and  C7_24 
REMARK    4  A    between atoms: C8_29  and  C9_30 
REMARK       I    between atoms: C9_30  and  N9_32 
REMARK    5  A    between atoms: N9_32  and  O3_33 
REMARK    6  A    between atoms: O3_33  and  C10_34 
ROOT
HETATM    1  C1  UNL     1      -5.408  14.943   9.343  1.00  0.00     0.071 C 
HETATM    2  C2  UNL     1      -4.606  15.482   8.182  1.00  0.00     0.050 A 
HETATM    3  N1  UNL     1      -4.960  15.023   6.963  1.00  0.00    -0.193 N 
ATOM      4  H1  UNL     1      -5.776  14.418   6.872  1.00  0.00     0.184 HD
HETATM    5  C3  UNL     1      -4.259  15.351   5.877  1.00  0.00     0.698 A 
HETATM    6  N2  UNL     1      -4.624  15.009   4.758  1.00  0.00    -0.172 N 
ATOM      7  H2  UNL     1      -3.944  15.372   4.091  1.00  0.00     0.181 HD
HETATM    8  C4  UNL     1      -5.580  14.336   4.045  1.00  0.00     0.494 C 
HETATM    9  N3  UNL     1      -5.380  12.890   3.803  1.00  0.00    -0.032 N 
ATOM     10  H31 UNL     1      -6.091  12.389   3.271  1.00  0.00     0.278 HD
ATOM     11  H32 UNL     1      -5.237  12.419   4.696  1.00  0.00     0.278 HD
ATOM     12  H33 UNL     1      -4.471  12.749   3.361  1.00  0.00     0.278 HD
HETATM   13  N4  UNL     1      -5.590  14.963   2.687  1.00  0.00    -0.032 N 
ATOM     14  H41 UNL     1      -6.302  14.461   2.155  1.00  0.00     0.278 HD
ATOM     15  H42 UNL     1      -4.676  14.973   2.236  1.00  0.00     0.278 HD
ATOM     16  H43 UNL     1      -5.730  15.973   2.704  1.00  0.00     0.278 HD
HETATM   17  N5  UNL     1      -3.150  16.176   6.050  1.00  0.00    -0.106 N 
ATOM     18  H5  UNL     1      -2.592  16.441   5.239  1.00  0.00     0.208 HD
HETATM   19  N6  UNL     1      -2.813  16.616   7.222  1.00  0.00    -0.151 N 
HETATM   20  C5  UNL     1      -3.528  16.291   8.338  1.00  0.00     0.089 A 
ENDROOT
BRANCH  20  21
HETATM   21  C6  UNL     1      -3.235  16.990   9.582  1.00  0.00     0.141 C 
BRANCH  21  22
HETATM   22  C7  UNL     1      -2.286  16.216  10.437  1.00  0.00     0.103 A 
HETATM   23  N7  UNL     1      -2.422  15.598  11.599  1.00  0.00    -0.287 N 
HETATM   24  N8  UNL     1      -1.208  15.112  11.925  1.00  0.00    -0.279 N 
ATOM     25  H7  UNL     1      -3.280  15.506  12.142  1.00  0.00     0.188 HD
HETATM   26  C8  UNL     1      -0.339  15.425  10.978  1.00  0.00     0.208 A 
ATOM     27  H8  UNL     1      -0.992  14.583  12.771  1.00  0.00     0.189 HD
HETATM   28  N12 UNL     1      -1.028  16.107  10.063  1.00  0.00    -0.324 N 
ATOM     29  H12 UNL     1      -0.638  16.489   9.201  1.00  0.00     0.169 HD
BRANCH  26  30
HETATM   30  C9  UNL     1       1.147  15.154  10.906  1.00  0.00     0.389 C 
HETATM   31  O2  UNL     1       1.613  14.500  11.854  1.00  0.00    -0.245 OA
HETATM   32  N9  UNL     1       1.796  15.642   9.840  1.00  0.00    -0.225 NA
BRANCH  32  33
HETATM   33  O3  UNL     1       2.439  16.121   8.792  1.00  0.00    -0.128 OA
BRANCH  33  34
HETATM   34  C10 UNL     1       1.760  16.644   7.669  1.00  0.00     0.264 C 
HETATM   35  N10 UNL     1       0.985  15.820   7.098  1.00  0.00    -0.365 N 
ATOM     36 2H10 UNL     1       0.840  14.858   7.404  1.00  0.00     0.159 HD
ATOM     37 1H10 UNL     1       0.495  16.199   6.287  1.00  0.00     0.159 HD
HETATM   38  N11 UNL     1       1.962  17.978   7.246  1.00  0.00    -0.054 NA
ENDBRANCH  33  34
ENDBRANCH  32  33
ENDBRANCH  26  30
ENDBRANCH  21  22
ENDBRANCH  20  21
BRANCH  19  39
HETATM   39  O1  UNL     1      -1.703  17.436   7.325  1.00  0.00    -0.267 OA
ATOM     40  H1  UNL     1      -1.272  17.511   8.168  1.00  0.00     0.247 HD
ENDBRANCH  19  39
TORSDOF 6
ENDMDL
MODEL 5
REMARK VINA RESULT: -6.800373767      3.093      7.164
REMARK  6 active torsions:
REMARK  status: ('A' for Active; 'I' for Inactive)
REMARK       I    between atoms: N2_6  and  C4_8 
REMARK       I    between atoms: C4_8  and  N3_9 
REMARK       I    between atoms: C4_8  and  N4_13 
REMARK    1  A    between atoms: N6_19  and  O1_20 
REMARK    2  A    between atoms: C5_22  and  C6_23 
REMARK    3  A    between atoms: C6_23  and  C7_24 
REMARK    4  A    between atoms: C8_29  and  C9_30 
REMARK       I    between atoms: C9_30  and  N9_32 
REMARK    5  A    between atoms: N9_32  and  O3_33 
REMARK    6  A    between atoms: O3_33  and  C10_34 
ROOT
HETATM    1  C1  UNL     1      -2.520  16.723  10.440  1.00  0.00     0.071 C 
HETATM    2  C2  UNL     1      -1.189  16.473   9.768  1.00  0.00     0.050 A 
HETATM    3  N1  UNL     1      -0.379  15.590  10.388  1.00  0.00    -0.193 N 
ATOM      4  H1  UNL     1      -0.718  15.086  11.208  1.00  0.00     0.184 HD
HETATM    5  C3  UNL     1       0.858  15.366   9.944  1.00  0.00     0.698 A 
HETATM    6  N2  UNL     1       1.568  14.504  10.448  1.00  0.00    -0.172 N 
ATOM      7  H2  UNL     1       2.457  14.509   9.949  1.00  0.00     0.181 HD
HETATM    8  C4  UNL     1       1.647  13.535  11.413  1.00  0.00     0.494 C 
HETATM    9  N3  UNL     1       2.142  13.925  12.752  1.00  0.00    -0.032 N 
ATOM     10  H31 UNL     1       2.200  13.203  13.471  1.00  0.00     0.278 HD
ATOM     11  H32 UNL     1       1.580  14.701  13.103  1.00  0.00     0.278 HD
ATOM     12  H33 UNL     1       3.052  14.373  12.654  1.00  0.00     0.278 HD
HETATM   13  N4  UNL     1       2.636  12.534  10.906  1.00  0.00    -0.032 N 
ATOM     14  H41 UNL     1       2.694  11.813  11.625  1.00  0.00     0.278 HD
ATOM     15  H42 UNL     1       3.538  12.941  10.661  1.00  0.00     0.278 HD
ATOM     16  H43 UNL     1       2.410  12.171   9.980  1.00  0.00     0.278 HD
HETATM   17  N5  UNL     1       1.279  16.079   8.823  1.00  0.00    -0.106 N 
ATOM     18  H5  UNL     1       2.222  15.932   8.463  1.00  0.00     0.208 HD
HETATM   19  N6  UNL     1       0.498  16.927   8.230  1.00  0.00    -0.151 N 
HETATM   20  C5  UNL     1      -0.772  17.157   8.675  1.00  0.00     0.089 A 
ENDROOT
BRANCH  20  21
HETATM   21  C6  UNL     1      -1.670  17.945   7.841  1.00  0.00     0.141 C 
BRANCH  21  22
HETATM   22  C7  UNL     1      -2.595  17.075   7.055  1.00  0.00     0.103 A 
HETATM   23  N7  UNL     1      -3.885  17.157   6.775  1.00  0.00    -0.287 N 
HETATM   24  N8  UNL     1      -4.201  16.054   6.068  1.00  0.00    -0.279 N 
ATOM     25  H7  UNL     1      -4.519  17.910   7.042  1.00  0.00     0.188 HD
HETATM   26  C8  UNL     1      -3.121  15.306   5.915  1.00  0.00     0.208 A 
ATOM     27  H8  UNL     1      -5.129  15.830   5.707  1.00  0.00     0.189 HD
HETATM   28  N12 UNL     1      -2.135  15.958   6.531  1.00  0.00    -0.324 N 
ATOM     29  H12 UNL     1      -1.168  15.639   6.589  1.00  0.00     0.169 HD
BRANCH  26  30
HETATM   30  C9  UNL     1      -2.969  13.958   5.246  1.00  0.00     0.389 C 
HETATM   31  O2  UNL     1      -3.985  13.240   5.263  1.00  0.00    -0.245 OA
HETATM   32  N9  UNL     1      -1.772  13.682   4.712  1.00  0.00    -0.225 NA
BRANCH  32  33
HETATM   33  O3  UNL     1      -0.594  13.407   4.185  1.00  0.00    -0.128 OA
BRANCH  33  34
HETATM   34  C10 UNL     1       0.608  13.905   4.733  1.00  0.00     0.264 C 
HETATM   35  N10 UNL     1       1.637  13.668   4.033  1.00  0.00    -0.365 N 
ATOM     36 2H10 UNL     1       1.627  13.169   3.144  1.00  0.00     0.159 HD
ATOM     37 1H10 UNL     1       2.506  14.028   4.429  1.00  0.00     0.159 HD
HETATM   38  N11 UNL     1       0.621  14.597   5.966  1.00  0.00    -0.054 NA
ENDBRANCH  33  34
ENDBRANCH  32  33
ENDBRANCH  26  30
ENDBRANCH  21  22
ENDBRANCH  20  21
BRANCH  19  39
HETATM   39  O1  UNL     1       0.976  17.599   7.120  1.00  0.00    -0.267 OA
ATOM     40  H1  UNL     1       0.621  17.376   6.267  1.00  0.00     0.247 HD
ENDBRANCH  19  39
TORSDOF 6
ENDMDL
