MODEL 1
REMARK VINA RESULT: -6.744379341      0.000      0.000
REMARK  8 active torsions:
REMARK  status: ('A' for Active; 'I' for Inactive)
REMARK    1  A    between atoms: N4_14  and  C7_15 
REMARK    2  A    between atoms: C7_15  and  C8_16 
REMARK    3  A    between atoms: C8_16  and  O2_17 
REMARK    4  A    between atoms: C8_16  and  O3_19 
REMARK    5  A    between atoms: C8_16  and  C9_21 
REMARK    6  A    between atoms: C9_21  and  O4_22 
REMARK    7  A    between atoms: C9_21  and  N5_24 
REMARK    8  A    between atoms: N5_24  and  O5_25 
ROOT
HETATM    1  N1  UNL     1      -4.746  13.285   2.891  1.00  0.00    -0.083 NA
HETATM    2  C1  UNL     1      -4.104  13.837   4.055  1.00  0.00     0.121 A 
HETATM    3  C2  UNL     1      -4.764  14.627   4.935  1.00  0.00     0.077 A 
HETATM    4  C3  UNL     1      -4.097  15.141   6.049  1.00  0.00     0.070 A 
HETATM    5  N2  UNL     1      -4.774  15.879   6.930  1.00  0.00    -0.338 N 
ATOM      6  H2  UNL     1      -5.758  16.096   6.771  1.00  0.00     0.167 HD
HETATM    7  C4  UNL     1      -4.131  16.352   8.063  1.00  0.00     0.144 A 
HETATM    8  N3  UNL     1      -4.710  17.046   9.017  1.00  0.00    -0.301 N 
ATOM      9  H3  UNL     1      -5.692  17.308   8.942  1.00  0.00     0.171 HD
HETATM   10  C5  UNL     1      -3.998  17.401  10.077  1.00  0.00     0.291 A 
HETATM   11  O1  UNL     1      -4.365  18.064  11.093  1.00  0.00    -0.260 OA
HETATM   12  S1  UNL     1      -2.474  16.746   9.732  1.00  0.00    -0.007 SA
HETATM   13  C6  UNL     1      -2.823  16.023   8.194  1.00  0.00     0.130 A 
HETATM   14  N4  UNL     1      -2.069  15.270   7.319  1.00  0.00    -0.305 N 
HETATM   15  C10 UNL     1      -2.753  14.815   6.216  1.00  0.00     0.135 A 
HETATM   16  C11 UNL     1      -2.151  14.023   5.311  1.00  0.00     0.276 A 
HETATM   17  O6  UNL     1      -0.959  13.714   5.456  1.00  0.00    -0.266 OA
HETATM   18  N6  UNL     1      -2.828  13.544   4.243  1.00  0.00    -0.310 N 
ATOM     19  H6  UNL     1      -2.347  12.946   3.571  1.00  0.00     0.170 HD
ENDROOT
BRANCH  14  20
HETATM   20  C7  UNL     1      -0.700  15.066   7.561  1.00  0.00     0.143 C 
BRANCH  20  21
HETATM   21  C8  UNL     1       0.340  16.088   7.269  1.00  0.00     0.238 C 
BRANCH  21  22
HETATM   22  O2  UNL     1       1.244  15.515   6.288  1.00  0.00    -0.358 OA
ATOM     23  H2  UNL     1       1.471  16.205   5.676  1.00  0.00     0.213 HD
ENDBRANCH  21  22
BRANCH  21  24
HETATM   24  O3  UNL     1      -0.037  17.356   6.893  1.00  0.00    -0.358 OA
ATOM     25  H3  UNL     1       0.532  18.092   7.084  1.00  0.00     0.213 HD
ENDBRANCH  21  24
BRANCH  21  26
HETATM   26  C9  UNL     1       1.350  16.351   8.406  1.00  0.00     0.306 C 
BRANCH  26  27
HETATM   27  O4  UNL     1       2.639  16.546   7.850  1.00  0.00    -0.372 OA
ATOM     28  H4  UNL     1       3.070  17.260   8.304  1.00  0.00     0.212 HD
ENDBRANCH  26  27
BRANCH  26  29
HETATM   29  N5  UNL     1       1.576  15.087   9.151  1.00  0.00    -0.065 NA
BRANCH  29  30
HETATM   30  O5  UNL     1       2.496  15.323  10.071  1.00  0.00    -0.294 OA
ATOM     31  H5  UNL     1       2.113  15.128  10.919  1.00  0.00     0.238 HD
ENDBRANCH  29  30
ENDBRANCH  26  29
ENDBRANCH  21  26
ENDBRANCH  20  21
ENDBRANCH  14  20
TORSDOF 8
ENDMDL
MODEL 2
REMARK VINA RESULT: -6.742797486      0.904      1.434
REMARK  8 active torsions:
REMARK  status: ('A' for Active; 'I' for Inactive)
REMARK    1  A    between atoms: N4_14  and  C7_15 
REMARK    2  A    between atoms: C7_15  and  C8_16 
REMARK    3  A    between atoms: C8_16  and  O2_17 
REMARK    4  A    between atoms: C8_16  and  O3_19 
REMARK    5  A    between atoms: C8_16  and  C9_21 
REMARK    6  A    between atoms: C9_21  and  O4_22 
REMARK    7  A    between atoms: C9_21  and  N5_24 
REMARK    8  A    between atoms: N5_24  and  O5_25 
ROOT
HETATM    1  N1  UNL     1      -4.280  13.214   2.893  1.00  0.00    -0.083 NA
HETATM    2  C1  UNL     1      -3.710  13.733   4.108  1.00  0.00     0.121 A 
HETATM    3  C2  UNL     1      -4.355  14.645   4.874  1.00  0.00     0.077 A 
HETATM    4  C3  UNL     1      -3.760  15.120   6.045  1.00  0.00     0.070 A 
HETATM    5  N2  UNL     1      -4.428  15.982   6.812  1.00  0.00    -0.338 N 
ATOM      6  H2  UNL     1      -5.348  16.318   6.526  1.00  0.00     0.167 HD
HETATM    7  C4  UNL     1      -3.864  16.421   7.999  1.00  0.00     0.144 A 
HETATM    8  N3  UNL     1      -4.450  17.230   8.852  1.00  0.00    -0.301 N 
ATOM      9  H3  UNL     1      -5.373  17.615   8.649  1.00  0.00     0.171 HD
HETATM   10  C5  UNL     1      -3.826  17.540   9.979  1.00  0.00     0.291 A 
HETATM   11  O1  UNL     1      -4.216  18.293  10.921  1.00  0.00    -0.260 OA
HETATM   12  S1  UNL     1      -2.375  16.675   9.845  1.00  0.00    -0.007 SA
HETATM   13  C6  UNL     1      -2.637  15.930   8.299  1.00  0.00     0.130 A 
HETATM   14  N4  UNL     1      -1.896  15.044   7.549  1.00  0.00    -0.305 N 
HETATM   15  C10 UNL     1      -2.501  14.629   6.385  1.00  0.00     0.135 A 
HETATM   16  C11 UNL     1      -1.911  13.722   5.587  1.00  0.00     0.276 A 
HETATM   17  O6  UNL     1      -0.797  13.267   5.887  1.00  0.00    -0.266 OA
HETATM   18  N6  UNL     1      -2.517  13.285   4.460  1.00  0.00    -0.310 N 
ATOM     19  H6  UNL     1      -2.046  12.597   3.871  1.00  0.00     0.170 HD
ENDROOT
BRANCH  14  20
HETATM   20  C7  UNL     1      -0.604  14.674   7.963  1.00  0.00     0.143 C 
BRANCH  20  21
HETATM   21  C8  UNL     1       0.626  15.386   7.527  1.00  0.00     0.238 C 
BRANCH  21  22
HETATM   22  O2  UNL     1       1.721  14.895   8.345  1.00  0.00    -0.358 OA
ATOM     23  H2  UNL     1       1.715  15.392   9.154  1.00  0.00     0.213 HD
ENDBRANCH  21  22
BRANCH  21  24
HETATM   24  O3  UNL     1       0.980  15.383   6.197  1.00  0.00    -0.358 OA
ATOM     25  H3  UNL     1       1.892  15.274   5.954  1.00  0.00     0.213 HD
ENDBRANCH  21  24
BRANCH  21  26
HETATM   26  C9  UNL     1       0.695  16.881   7.900  1.00  0.00     0.306 C 
BRANCH  26  27
HETATM   27  O4  UNL     1       0.115  17.649   6.859  1.00  0.00    -0.372 OA
ATOM     28  H4  UNL     1       0.791  17.902   6.243  1.00  0.00     0.212 HD
ENDBRANCH  26  27
BRANCH  26  29
HETATM   29  N5  UNL     1       2.105  17.337   7.806  1.00  0.00    -0.065 NA
BRANCH  29  30
HETATM   30  O5  UNL     1       2.162  18.272   6.871  1.00  0.00    -0.294 OA
ATOM     31  H5  UNL     1       2.925  18.810   7.049  1.00  0.00     0.238 HD
ENDBRANCH  29  30
ENDBRANCH  26  29
ENDBRANCH  21  26
ENDBRANCH  20  21
ENDBRANCH  14  20
TORSDOF 8
ENDMDL
MODEL 3
REMARK VINA RESULT: -6.589357632      2.001      4.709
REMARK  8 active torsions:
REMARK  status: ('A' for Active; 'I' for Inactive)
REMARK    1  A    between atoms: N4_14  and  C7_15 
REMARK    2  A    between atoms: C7_15  and  C8_16 
REMARK    3  A    between atoms: C8_16  and  O2_17 
REMARK    4  A    between atoms: C8_16  and  O3_19 
REMARK    5  A    between atoms: C8_16  and  C9_21 
REMARK    6  A    between atoms: C9_21  and  O4_22 
REMARK    7  A    between atoms: C9_21  and  N5_24 
REMARK    8  A    between atoms: N5_24  and  O5_25 
ROOT
HETATM    1  N1  UNL     1      -4.744  18.134  11.293  1.00  0.00    -0.083 NA
HETATM    2  C1  UNL     1      -4.086  17.218  10.398  1.00  0.00     0.121 A 
HETATM    3  C2  UNL     1      -4.545  16.979   9.147  1.00  0.00     0.077 A 
HETATM    4  C3  UNL     1      -3.872  16.079   8.316  1.00  0.00     0.070 A 
HETATM    5  N2  UNL     1      -4.310  15.890   7.071  1.00  0.00    -0.338 N 
ATOM      6  H2  UNL     1      -5.147  16.371   6.742  1.00  0.00     0.167 HD
HETATM    7  C4  UNL     1      -3.620  15.036   6.226  1.00  0.00     0.144 A 
HETATM    8  N3  UNL     1      -3.932  14.813   4.970  1.00  0.00    -0.301 N 
ATOM      9  H3  UNL     1      -4.754  15.252   4.556  1.00  0.00     0.171 HD
HETATM   10  C5  UNL     1      -3.164  14.009   4.248  1.00  0.00     0.291 A 
HETATM   11  O1  UNL     1      -3.292  13.669   3.034  1.00  0.00    -0.260 OA
HETATM   12  S1  UNL     1      -1.968  13.550   5.358  1.00  0.00    -0.007 SA
HETATM   13  C6  UNL     1      -2.522  14.435   6.745  1.00  0.00     0.130 A 
HETATM   14  N4  UNL     1      -2.023  14.584   8.021  1.00  0.00    -0.305 N 
HETATM   15  C10 UNL     1      -2.735  15.450   8.818  1.00  0.00     0.135 A 
HETATM   16  C11 UNL     1      -2.326  15.729  10.069  1.00  0.00     0.276 A 
HETATM   17  O6  UNL     1      -1.307  15.186  10.521  1.00  0.00    -0.266 OA
HETATM   18  N6  UNL     1      -3.002  16.606  10.845  1.00  0.00    -0.310 N 
ATOM     19  H6  UNL     1      -2.671  16.799  11.790  1.00  0.00     0.170 HD
ENDROOT
BRANCH  14  20
HETATM   20  C7  UNL     1      -0.905  13.840   8.435  1.00  0.00     0.143 C 
BRANCH  20  21
HETATM   21  C8  UNL     1       0.493  14.204   8.080  1.00  0.00     0.238 C 
BRANCH  21  22
HETATM   22  O2  UNL     1       1.274  14.161   9.302  1.00  0.00    -0.358 OA
ATOM     23  H2  UNL     1       2.003  14.760   9.193  1.00  0.00     0.213 HD
ENDBRANCH  21  22
BRANCH  21  24
HETATM   24  O3  UNL     1       1.138  13.525   7.072  1.00  0.00    -0.358 OA
ATOM     25  H3  UNL     1       1.810  12.890   7.289  1.00  0.00     0.213 HD
ENDBRANCH  21  24
BRANCH  21  26
HETATM   26  C9  UNL     1       0.717  15.682   7.699  1.00  0.00     0.306 C 
BRANCH  26  27
HETATM   27  O4  UNL     1       1.265  15.749   6.393  1.00  0.00    -0.372 OA
ATOM     28  H4  UNL     1       2.069  16.253   6.417  1.00  0.00     0.212 HD
ENDBRANCH  26  27
BRANCH  26  29
HETATM   29  N5  UNL     1       1.857  16.215   8.487  1.00  0.00    -0.065 NA
BRANCH  29  30
HETATM   30  O5  UNL     1       2.795  16.589   7.633  1.00  0.00    -0.294 OA
ATOM     31  H5  UNL     1       3.633  16.317   7.988  1.00  0.00     0.238 HD
ENDBRANCH  29  30
ENDBRANCH  26  29
ENDBRANCH  21  26
ENDBRANCH  20  21
ENDBRANCH  14  20
TORSDOF 8
ENDMDL
MODEL 4
REMARK VINA RESULT: -6.493019821      3.439      5.492
REMARK  8 active torsions:
REMARK  status: ('A' for Active; 'I' for Inactive)
REMARK    1  A    between atoms: N4_14  and  C7_15 
REMARK    2  A    between atoms: C7_15  and  C8_16 
REMARK    3  A    between atoms: C8_16  and  O2_17 
REMARK    4  A    between atoms: C8_16  and  O3_19 
REMARK    5  A    between atoms: C8_16  and  C9_21 
REMARK    6  A    between atoms: C9_21  and  O4_22 
REMARK    7  A    between atoms: C9_21  and  N5_24 
REMARK    8  A    between atoms: N5_24  and  O5_25 
ROOT
HETATM    1  N1  UNL     1       2.703  13.915  13.872  1.00  0.00    -0.083 NA
HETATM    2  C1  UNL     1       1.745  14.248  12.851  1.00  0.00     0.121 A 
HETATM    3  C2  UNL     1       0.519  14.740  13.147  1.00  0.00     0.077 A 
HETATM    4  C3  UNL     1      -0.377  15.047  12.120  1.00  0.00     0.070 A 
HETATM    5  N2  UNL     1      -1.563  15.574  12.427  1.00  0.00    -0.338 N 
ATOM      6  H2  UNL     1      -1.826  15.716  13.402  1.00  0.00     0.167 HD
HETATM    7  C4  UNL     1      -2.437  15.927  11.412  1.00  0.00     0.144 A 
HETATM    8  N3  UNL     1      -3.608  16.494  11.596  1.00  0.00    -0.301 N 
ATOM      9  H3  UNL     1      -3.952  16.675  12.538  1.00  0.00     0.171 HD
HETATM   10  C5  UNL     1      -4.335  16.829  10.539  1.00  0.00     0.291 A 
HETATM   11  O1  UNL     1      -5.476  17.379  10.503  1.00  0.00    -0.260 OA
HETATM   12  S1  UNL     1      -3.355  16.335   9.248  1.00  0.00    -0.007 SA
HETATM   13  C6  UNL     1      -2.012  15.699  10.145  1.00  0.00     0.130 A 
HETATM   14  N4  UNL     1      -0.804  15.155   9.765  1.00  0.00    -0.305 N 
HETATM   15  C10 UNL     1       0.034  14.831  10.806  1.00  0.00     0.135 A 
HETATM   16  C11 UNL     1       1.265  14.344  10.574  1.00  0.00     0.276 A 
HETATM   17  O6  UNL     1       1.647  14.161   9.408  1.00  0.00    -0.266 OA
HETATM   18  N6  UNL     1       2.106  14.057  11.593  1.00  0.00    -0.310 N 
ATOM     19  H6  UNL     1       3.035  13.687  11.389  1.00  0.00     0.170 HD
ENDROOT
BRANCH  14  20
HETATM   20  C7  UNL     1      -0.531  14.921   8.406  1.00  0.00     0.143 C 
BRANCH  20  21
HETATM   21  C8  UNL     1      -0.161  15.999   7.452  1.00  0.00     0.238 C 
BRANCH  21  22
HETATM   22  O2  UNL     1       0.881  15.474   6.589  1.00  0.00    -0.358 OA
ATOM     23  H2  UNL     1       1.583  15.164   7.149  1.00  0.00     0.213 HD
ENDBRANCH  21  22
BRANCH  21  24
HETATM   24  O3  UNL     1      -1.140  16.613   6.705  1.00  0.00    -0.358 OA
ATOM     25  H3  UNL     1      -0.980  17.474   6.336  1.00  0.00     0.213 HD
ENDBRANCH  21  24
BRANCH  21  26
HETATM   26  C9  UNL     1       0.606  17.191   8.062  1.00  0.00     0.306 C 
BRANCH  26  27
HETATM   27  O4  UNL     1       0.129  18.396   7.487  1.00  0.00    -0.372 OA
ATOM     28  H4  UNL     1       0.841  18.829   7.033  1.00  0.00     0.212 HD
ENDBRANCH  26  27
BRANCH  26  29
HETATM   29  N5  UNL     1       1.996  17.186   7.541  1.00  0.00    -0.065 NA
BRANCH  29  30
HETATM   30  O5  UNL     1       2.146  18.263   6.788  1.00  0.00    -0.294 OA
ATOM     31  H5  UNL     1       3.078  18.434   6.712  1.00  0.00     0.238 HD
ENDBRANCH  29  30
ENDBRANCH  26  29
ENDBRANCH  21  26
ENDBRANCH  20  21
ENDBRANCH  14  20
TORSDOF 8
ENDMDL
MODEL 5
REMARK VINA RESULT: -6.273772510      2.103      4.598
REMARK  8 active torsions:
REMARK  status: ('A' for Active; 'I' for Inactive)
REMARK    1  A    between atoms: N4_14  and  C7_15 
REMARK    2  A    between atoms: C7_15  and  C8_16 
REMARK    3  A    between atoms: C8_16  and  O2_17 
REMARK    4  A    between atoms: C8_16  and  O3_19 
REMARK    5  A    between atoms: C8_16  and  C9_21 
REMARK    6  A    between atoms: C9_21  and  O4_22 
REMARK    7  A    between atoms: C9_21  and  N5_24 
REMARK    8  A    between atoms: N5_24  and  O5_25 
ROOT
HETATM    1  N1  UNL     1      -6.256  17.645  10.900  1.00  0.00    -0.083 NA
HETATM    2  C1  UNL     1      -5.223  16.968  10.160  1.00  0.00     0.121 A 
HETATM    3  C2  UNL     1      -5.491  15.920   9.346  1.00  0.00     0.077 A 
HETATM    4  C3  UNL     1      -4.455  15.294   8.649  1.00  0.00     0.070 A 
HETATM    5  N2  UNL     1      -4.741  14.294   7.815  1.00  0.00    -0.338 N 
ATOM      6  H2  UNL     1      -5.702  13.967   7.716  1.00  0.00     0.167 HD
HETATM    7  C4  UNL     1      -3.725  13.701   7.085  1.00  0.00     0.144 A 
HETATM    8  N3  UNL     1      -3.898  12.743   6.202  1.00  0.00    -0.301 N 
ATOM      9  H3  UNL     1      -4.826  12.354   6.037  1.00  0.00     0.171 HD
HETATM   10  C5  UNL     1      -2.850  12.289   5.530  1.00  0.00     0.291 A 
HETATM   11  O1  UNL     1      -2.807  11.380   4.647  1.00  0.00    -0.260 OA
HETATM   12  S1  UNL     1      -1.582  13.227   6.149  1.00  0.00    -0.007 SA
HETATM   13  C6  UNL     1      -2.477  14.192   7.280  1.00  0.00     0.130 A 
HETATM   14  N4  UNL     1      -2.117  15.217   8.128  1.00  0.00    -0.305 N 
HETATM   15  C10 UNL     1      -3.161  15.781   8.824  1.00  0.00     0.135 A 
HETATM   16  C11 UNL     1      -2.957  16.828   9.644  1.00  0.00     0.276 A 
HETATM   17  O6  UNL     1      -1.812  17.279   9.796  1.00  0.00    -0.266 OA
HETATM   18  N6  UNL     1      -3.985  17.409  10.303  1.00  0.00    -0.310 N 
ATOM     19  H6  UNL     1      -3.802  18.200  10.920  1.00  0.00     0.170 HD
ENDROOT
BRANCH  14  20
HETATM   20  C7  UNL     1      -0.765  15.575   8.271  1.00  0.00     0.143 C 
BRANCH  20  21
HETATM   21  C8  UNL     1      -0.078  16.540   7.373  1.00  0.00     0.238 C 
BRANCH  21  22
HETATM   22  O2  UNL     1       0.688  15.766   6.413  1.00  0.00    -0.358 OA
ATOM     23  H2  UNL     1       1.491  16.244   6.241  1.00  0.00     0.213 HD
ENDBRANCH  21  22
BRANCH  21  24
HETATM   24  O3  UNL     1      -0.810  17.514   6.732  1.00  0.00    -0.358 OA
ATOM     25  H3  UNL     1      -0.581  18.428   6.850  1.00  0.00     0.213 HD
ENDBRANCH  21  24
BRANCH  21  26
HETATM   26  C9  UNL     1       1.073  17.341   8.015  1.00  0.00     0.306 C 
BRANCH  26  27
HETATM   27  O4  UNL     1       1.739  18.088   7.012  1.00  0.00    -0.372 OA
ATOM     28  H4  UNL     1       2.535  18.457   7.373  1.00  0.00     0.212 HD
ENDBRANCH  26  27
BRANCH  26  29
HETATM   29  N5  UNL     1       2.155  16.401   8.403  1.00  0.00    -0.065 NA
BRANCH  29  30
HETATM   30  O5  UNL     1       3.153  16.565   7.549  1.00  0.00    -0.294 OA
ATOM     31  H5  UNL     1       3.400  15.706   7.227  1.00  0.00     0.238 HD
ENDBRANCH  29  30
ENDBRANCH  26  29
ENDBRANCH  21  26
ENDBRANCH  20  21
ENDBRANCH  14  20
TORSDOF 8
ENDMDL
