MODEL 1
REMARK VINA RESULT: -7.112703737      0.000      0.000
REMARK  7 active torsions:
REMARK  status: ('A' for Active; 'I' for Inactive)
REMARK    1  A    between atoms: N1_1  and  C1_4 
REMARK    2  A    between atoms: C2_7  and  N3_8 
REMARK    3  A    between atoms: C5_11  and  N4_12 
REMARK    4  A    between atoms: N4_12  and  N5_14 
REMARK    5  A    between atoms: C6_16  and  C7_17 
REMARK    6  A    between atoms: C9_27  and  N10_28 
REMARK    7  A    between atoms: N10_28  and  N11_30 
ROOT
HETATM    1  C1  UNL     1      -9.481 -12.833  10.198  1.00  0.00     0.692 C 
HETATM    2  N2  UNL     1     -10.581 -13.547  10.500  1.00  0.00    -0.173 N 
ATOM      3  H2  UNL     1     -11.251 -13.093  11.120  1.00  0.00     0.186 HD
HETATM    4  C2  UNL     1     -10.913 -14.803  10.081  1.00  0.00     0.165 C 
HETATM    5  C5  UNL     1     -10.276 -15.602   9.156  1.00  0.00     0.180 C 
HETATM    6  N9  UNL     1      -9.222 -15.239   8.400  1.00  0.00    -0.170 N 
ATOM      7  H9  UNL     1      -8.851 -15.979   7.804  1.00  0.00     0.186 HD
HETATM    8  C9  UNL     1      -8.579 -14.063   8.298  1.00  0.00     0.712 C 
HETATM    9  N12 UNL     1      -8.708 -12.999   9.109  1.00  0.00    -0.021 N 
ATOM     10  H12 UNL     1      -8.132 -12.195   8.861  1.00  0.00     0.203 HD
ENDROOT
BRANCH   5  11
HETATM   11  N4  UNL     1     -10.757 -16.794   9.031  1.00  0.00    -0.282 N 
ATOM     12  H4  UNL     1     -11.747 -16.956   8.852  1.00  0.00     0.188 HD
BRANCH  11  13
HETATM   13  N5  UNL     1      -9.852 -17.852   9.154  1.00  0.00    -0.308 N 
HETATM   14  C6  UNL     1      -9.065 -18.011  10.145  1.00  0.00     0.139 C 
ATOM     15  H5  UNL     1      -9.818 -18.541   8.404  1.00  0.00     0.186 HD
BRANCH  14  16
HETATM   16  C7  UNL     1      -8.172 -19.179  10.124  1.00  0.00     0.083 A 
HETATM   17  C8  UNL     1      -6.809 -19.201  10.304  1.00  0.00     0.141 A 
HETATM   18  N6  UNL     1      -6.376 -20.465  10.210  1.00  0.00    -0.295 N 
HETATM   19  N7  UNL     1      -7.432 -21.211   9.979  1.00  0.00    -0.243 N 
ATOM     20  H6  UNL     1      -5.412 -20.785  10.301  1.00  0.00     0.187 HD
HETATM   21  N8  UNL     1      -8.524 -20.472   9.922  1.00  0.00    -0.284 N 
ATOM     22  H7  UNL     1      -7.411 -22.224   9.861  1.00  0.00     0.208 HD
ATOM     23  H8  UNL     1      -9.471 -20.815   9.753  1.00  0.00     0.188 HD
ENDBRANCH  14  16
ENDBRANCH  11  13
ENDBRANCH   5  11
BRANCH   4  24
HETATM   24  N3  UNL     1     -12.063 -15.406  10.647  1.00  0.00    -0.361 N 
HETATM   25  C3  UNL     1     -13.559 -15.573  10.622  1.00  0.00     0.144 A 
HETATM   26  C4  UNL     1     -12.737 -16.263  11.599  1.00  0.00     0.144 A 
ENDBRANCH   4  24
BRANCH   8  27
HETATM   27  N10 UNL     1      -7.766 -14.007   7.304  1.00  0.00    -0.138 N 
ATOM     28  H10 UNL     1      -8.065 -13.501   6.470  1.00  0.00     0.205 HD
BRANCH  27  29
HETATM   29  N11 UNL     1      -6.509 -14.593   7.293  1.00  0.00    -0.331 N 
ATOM     30 2H11 UNL     1      -5.900 -14.392   8.086  1.00  0.00     0.177 HD
ATOM     31 1H11 UNL     1      -6.167 -15.201   6.548  1.00  0.00     0.177 HD
ENDBRANCH  27  29
ENDBRANCH   8  27
BRANCH   1  32
HETATM   32  N1  UNL     1      -9.119 -11.892  11.024  1.00  0.00    -0.234 N 
ATOM     33  H12 UNL     1      -9.835 -11.211  11.274  1.00  0.00     0.174 HD
ATOM     34  H11 UNL     1      -8.156 -11.898  11.362  1.00  0.00     0.174 HD
ENDBRANCH   1  32
TORSDOF 7
ENDMDL
MODEL 2
REMARK VINA RESULT: -6.635626676      3.889      6.927
REMARK  7 active torsions:
REMARK  status: ('A' for Active; 'I' for Inactive)
REMARK    1  A    between atoms: N1_1  and  C1_4 
REMARK    2  A    between atoms: C2_7  and  N3_8 
REMARK    3  A    between atoms: C5_11  and  N4_12 
REMARK    4  A    between atoms: N4_12  and  N5_14 
REMARK    5  A    between atoms: C6_16  and  C7_17 
REMARK    6  A    between atoms: C9_27  and  N10_28 
REMARK    7  A    between atoms: N10_28  and  N11_30 
ROOT
HETATM    1  C1  UNL     1      -4.865 -10.343  12.393  1.00  0.00     0.692 C 
HETATM    2  N2  UNL     1      -4.362 -11.216  11.501  1.00  0.00    -0.173 N 
ATOM      3  H2  UNL     1      -3.494 -11.678  11.770  1.00  0.00     0.186 HD
HETATM    4  C2  UNL     1      -4.867 -11.560  10.280  1.00  0.00     0.165 C 
HETATM    5  C5  UNL     1      -6.069 -11.200   9.709  1.00  0.00     0.180 C 
HETATM    6  N9  UNL     1      -7.042 -10.492  10.312  1.00  0.00    -0.170 N 
ATOM      7  H9  UNL     1      -7.842 -10.277   9.718  1.00  0.00     0.186 HD
HETATM    8  C9  UNL     1      -7.135 -10.020  11.568  1.00  0.00     0.712 C 
HETATM    9  N12 UNL     1      -6.154  -9.963  12.484  1.00  0.00    -0.021 N 
ATOM     10  H12 UNL     1      -6.426  -9.572  13.386  1.00  0.00     0.203 HD
ENDROOT
BRANCH   5  11
HETATM   11  N4  UNL     1      -6.241 -11.592   8.490  1.00  0.00    -0.282 N 
ATOM     12  H4  UNL     1      -5.564 -11.376   7.758  1.00  0.00     0.188 HD
BRANCH  11  13
HETATM   13  N5  UNL     1      -7.399 -12.327   8.225  1.00  0.00    -0.308 N 
HETATM   14  C6  UNL     1      -7.523 -13.576   8.449  1.00  0.00     0.139 C 
ATOM     15  H5  UNL     1      -8.197 -11.832   7.828  1.00  0.00     0.186 HD
BRANCH  14  16
HETATM   16  C7  UNL     1      -8.810 -14.203   8.114  1.00  0.00     0.083 A 
HETATM   17  C8  UNL     1      -9.712 -13.816   7.151  1.00  0.00     0.141 A 
HETATM   18  N6  UNL     1     -10.757 -14.652   7.169  1.00  0.00    -0.295 N 
HETATM   19  N7  UNL     1     -10.519 -15.536   8.111  1.00  0.00    -0.243 N 
ATOM     20  H6  UNL     1     -11.579 -14.611   6.566  1.00  0.00     0.187 HD
HETATM   21  N8  UNL     1      -9.361 -15.295   8.698  1.00  0.00    -0.284 N 
ATOM     22  H7  UNL     1     -11.144 -16.304   8.356  1.00  0.00     0.208 HD
ATOM     23  H8  UNL     1      -8.952 -15.838   9.459  1.00  0.00     0.188 HD
ENDBRANCH  14  16
ENDBRANCH  11  13
ENDBRANCH   5  11
BRANCH   4  24
HETATM   24  N3  UNL     1      -4.082 -12.402   9.454  1.00  0.00    -0.361 N 
HETATM   25  C3  UNL     1      -2.988 -12.520   8.426  1.00  0.00     0.144 A 
HETATM   26  C4  UNL     1      -3.681 -13.691   8.932  1.00  0.00     0.144 A 
ENDBRANCH   4  24
BRANCH   8  27
HETATM   27  N10 UNL     1      -8.308  -9.591  11.869  1.00  0.00    -0.138 N 
ATOM     28  H10 UNL     1      -8.968 -10.251  12.282  1.00  0.00     0.205 HD
BRANCH  27  29
HETATM   29  N11 UNL     1      -8.735  -8.287  11.667  1.00  0.00    -0.331 N 
ATOM     30 2H11 UNL     1      -8.021  -7.600  11.422  1.00  0.00     0.177 HD
ATOM     31 1H11 UNL     1      -9.706  -7.983  11.749  1.00  0.00     0.177 HD
ENDBRANCH  27  29
ENDBRANCH   8  27
BRANCH   1  32
HETATM   32  N1  UNL     1      -4.045  -9.808  13.253  1.00  0.00    -0.234 N 
ATOM     33  H12 UNL     1      -4.024 -10.232  14.180  1.00  0.00     0.174 HD
ATOM     34  H11 UNL     1      -3.485  -9.012  12.947  1.00  0.00     0.174 HD
ENDBRANCH   1  32
TORSDOF 7
ENDMDL
MODEL 3
REMARK VINA RESULT: -6.598190777      4.062      7.294
REMARK  7 active torsions:
REMARK  status: ('A' for Active; 'I' for Inactive)
REMARK    1  A    between atoms: N1_1  and  C1_4 
REMARK    2  A    between atoms: C2_7  and  N3_8 
REMARK    3  A    between atoms: C5_11  and  N4_12 
REMARK    4  A    between atoms: N4_12  and  N5_14 
REMARK    5  A    between atoms: C6_16  and  C7_17 
REMARK    6  A    between atoms: C9_27  and  N10_28 
REMARK    7  A    between atoms: N10_28  and  N11_30 
ROOT
HETATM    1  C1  UNL     1      -5.475 -14.797   6.976  1.00  0.00     0.692 C 
HETATM    2  N2  UNL     1      -6.816 -14.688   6.928  1.00  0.00    -0.173 N 
ATOM      3  H2  UNL     1      -7.271 -15.126   6.127  1.00  0.00     0.186 HD
HETATM    4  C2  UNL     1      -7.644 -14.064   7.816  1.00  0.00     0.165 C 
HETATM    5  C5  UNL     1      -7.336 -13.500   9.036  1.00  0.00     0.180 C 
HETATM    6  N9  UNL     1      -6.133 -13.547   9.639  1.00  0.00    -0.170 N 
ATOM      7  H9  UNL     1      -6.078 -13.031  10.517  1.00  0.00     0.186 HD
HETATM    8  C9  UNL     1      -4.993 -14.160   9.277  1.00  0.00     0.712 C 
HETATM    9  N12 UNL     1      -4.717 -14.714   8.085  1.00  0.00    -0.021 N 
ATOM     10  H12 UNL     1      -3.791 -15.136   8.008  1.00  0.00     0.203 HD
ENDROOT
BRANCH   5  11
HETATM   11  N4  UNL     1      -8.308 -12.883   9.620  1.00  0.00    -0.282 N 
ATOM     12  H4  UNL     1      -9.272 -13.206   9.541  1.00  0.00     0.188 HD
BRANCH  11  13
HETATM   13  N5  UNL     1      -7.973 -11.750  10.366  1.00  0.00    -0.308 N 
HETATM   14  C6  UNL     1      -8.291 -10.558  10.043  1.00  0.00     0.139 C 
ATOM     15  H5  UNL     1      -7.440 -11.885  11.225  1.00  0.00     0.186 HD
BRANCH  14  16
HETATM   16  C7  UNL     1      -7.862  -9.473  10.938  1.00  0.00     0.083 A 
HETATM   17  C8  UNL     1      -6.587  -9.181  11.358  1.00  0.00     0.141 A 
HETATM   18  N6  UNL     1      -6.626  -8.114  12.166  1.00  0.00    -0.295 N 
HETATM   19  N7  UNL     1      -7.884  -7.748  12.250  1.00  0.00    -0.243 N 
ATOM     20  H6  UNL     1      -5.831  -7.671  12.627  1.00  0.00     0.187 HD
HETATM   21  N8  UNL     1      -8.652  -8.541  11.526  1.00  0.00    -0.284 N 
ATOM     22  H7  UNL     1      -8.223  -6.958  12.800  1.00  0.00     0.208 HD
ATOM     23  H8  UNL     1      -9.665  -8.467  11.427  1.00  0.00     0.188 HD
ENDBRANCH  14  16
ENDBRANCH  11  13
ENDBRANCH   5  11
BRANCH   4  24
HETATM   24  N3  UNL     1      -9.016 -13.959   7.479  1.00  0.00    -0.361 N 
HETATM   25  C3  UNL     1     -10.090 -13.225   6.722  1.00  0.00     0.144 A 
HETATM   26  C4  UNL     1     -10.398 -14.383   7.539  1.00  0.00     0.144 A 
ENDBRANCH   4  24
BRANCH   8  27
HETATM   27  N10 UNL     1      -4.108 -14.189  10.209  1.00  0.00    -0.138 N 
ATOM     28  H10 UNL     1      -3.906 -13.320  10.705  1.00  0.00     0.205 HD
BRANCH  27  29
HETATM   29  N11 UNL     1      -3.409 -15.327  10.582  1.00  0.00    -0.331 N 
ATOM     30 2H11 UNL     1      -3.551 -16.163  10.014  1.00  0.00     0.177 HD
ATOM     31 1H11 UNL     1      -2.773 -15.373  11.379  1.00  0.00     0.177 HD
ENDBRANCH  27  29
ENDBRANCH   8  27
BRANCH   1  32
HETATM   32  N1  UNL     1      -4.840 -15.002   5.857  1.00  0.00    -0.234 N 
ATOM     33  H12 UNL     1      -5.308 -15.598   5.174  1.00  0.00     0.174 HD
ATOM     34  H11 UNL     1      -3.928 -14.561   5.738  1.00  0.00     0.174 HD
ENDBRANCH   1  32
TORSDOF 7
ENDMDL
MODEL 4
REMARK VINA RESULT: -6.587218759      2.237      5.011
REMARK  7 active torsions:
REMARK  status: ('A' for Active; 'I' for Inactive)
REMARK    1  A    between atoms: N1_1  and  C1_4 
REMARK    2  A    between atoms: C2_7  and  N3_8 
REMARK    3  A    between atoms: C5_11  and  N4_12 
REMARK    4  A    between atoms: N4_12  and  N5_14 
REMARK    5  A    between atoms: C6_16  and  C7_17 
REMARK    6  A    between atoms: C9_27  and  N10_28 
REMARK    7  A    between atoms: N10_28  and  N11_30 
ROOT
HETATM    1  C1  UNL     1     -11.389 -15.414  10.430  1.00  0.00     0.692 C 
HETATM    2  N2  UNL     1     -10.860 -14.176  10.445  1.00  0.00    -0.173 N 
ATOM      3  H2  UNL     1     -11.387 -13.472  10.962  1.00  0.00     0.186 HD
HETATM    4  C2  UNL     1      -9.708 -13.743   9.855  1.00  0.00     0.165 C 
HETATM    5  C5  UNL     1      -8.740 -14.480   9.206  1.00  0.00     0.180 C 
HETATM    6  N9  UNL     1      -8.708 -15.823   9.113  1.00  0.00    -0.170 N 
ATOM      7  H9  UNL     1      -7.941 -16.192   8.551  1.00  0.00     0.186 HD
HETATM    8  C9  UNL     1      -9.518 -16.758   9.637  1.00  0.00     0.712 C 
HETATM    9  N12 UNL     1     -10.711 -16.558  10.224  1.00  0.00    -0.021 N 
ATOM     10  H12 UNL     1     -11.173 -17.401  10.563  1.00  0.00     0.203 HD
ENDROOT
BRANCH   5  11
HETATM   11  N4  UNL     1      -7.801 -13.789   8.650  1.00  0.00    -0.282 N 
ATOM     12  H4  UNL     1      -7.633 -12.815   8.900  1.00  0.00     0.188 HD
BRANCH  11  13
HETATM   13  N5  UNL     1      -7.025 -14.444   7.690  1.00  0.00    -0.308 N 
HETATM   14  C6  UNL     1      -5.763 -14.606   7.776  1.00  0.00     0.139 C 
ATOM     15  H5  UNL     1      -7.498 -14.817   6.868  1.00  0.00     0.186 HD
BRANCH  14  16
HETATM   16  C7  UNL     1      -5.092 -15.320   6.680  1.00  0.00     0.083 A 
HETATM   17  C8  UNL     1      -4.546 -16.581   6.704  1.00  0.00     0.141 A 
HETATM   18  N6  UNL     1      -4.031 -16.858   5.500  1.00  0.00    -0.295 N 
HETATM   19  N7  UNL     1      -4.248 -15.806   4.744  1.00  0.00    -0.243 N 
ATOM     20  H6  UNL     1      -3.562 -17.720   5.223  1.00  0.00     0.187 HD
HETATM   21  N8  UNL     1      -4.881 -14.865   5.420  1.00  0.00    -0.284 N 
ATOM     22  H7  UNL     1      -3.965 -15.726   3.767  1.00  0.00     0.208 HD
ATOM     23  H8  UNL     1      -5.163 -13.954   5.057  1.00  0.00     0.188 HD
ENDBRANCH  14  16
ENDBRANCH  11  13
ENDBRANCH   5  11
BRANCH   4  24
HETATM   24  N3  UNL     1      -9.427 -12.355   9.891  1.00  0.00    -0.361 N 
HETATM   25  C3  UNL     1      -8.845 -11.191  10.647  1.00  0.00     0.144 A 
HETATM   26  C4  UNL     1      -9.441 -11.019   9.336  1.00  0.00     0.144 A 
ENDBRANCH   4  24
BRANCH   8  27
HETATM   27  N10 UNL     1      -9.054 -17.953   9.540  1.00  0.00    -0.138 N 
ATOM     28  H10 UNL     1      -8.270 -18.212  10.140  1.00  0.00     0.205 HD
BRANCH  27  29
HETATM   29  N11 UNL     1      -9.550 -18.912   8.669  1.00  0.00    -0.331 N 
ATOM     30 2H11 UNL     1     -10.554 -18.895   8.488  1.00  0.00     0.177 HD
ATOM     31 1H11 UNL     1      -8.977 -19.619   8.210  1.00  0.00     0.177 HD
ENDBRANCH  27  29
ENDBRANCH   8  27
BRANCH   1  32
HETATM   32  N1  UNL     1     -12.671 -15.532  10.633  1.00  0.00    -0.234 N 
ATOM     33  H12 UNL     1     -13.201 -14.663  10.689  1.00  0.00     0.174 HD
ATOM     34  H11 UNL     1     -13.056 -16.472  10.721  1.00  0.00     0.174 HD
ENDBRANCH   1  32
TORSDOF 7
ENDMDL
MODEL 5
REMARK VINA RESULT: -6.487865814      3.810      5.289
REMARK  7 active torsions:
REMARK  status: ('A' for Active; 'I' for Inactive)
REMARK    1  A    between atoms: N1_1  and  C1_4 
REMARK    2  A    between atoms: C2_7  and  N3_8 
REMARK    3  A    between atoms: C5_11  and  N4_12 
REMARK    4  A    between atoms: N4_12  and  N5_14 
REMARK    5  A    between atoms: C6_16  and  C7_17 
REMARK    6  A    between atoms: C9_27  and  N10_28 
REMARK    7  A    between atoms: N10_28  and  N11_30 
ROOT
HETATM    1  C1  UNL     1      -8.534  -9.865  11.715  1.00  0.00     0.692 C 
HETATM    2  N2  UNL     1      -9.012 -10.167  10.493  1.00  0.00    -0.173 N 
ATOM      3  H2  UNL     1      -9.964  -9.858  10.298  1.00  0.00     0.186 HD
HETATM    4  C2  UNL     1      -8.383 -10.834   9.481  1.00  0.00     0.165 C 
HETATM    5  C5  UNL     1      -7.072 -11.255   9.408  1.00  0.00     0.180 C 
HETATM    6  N9  UNL     1      -6.113 -10.994  10.317  1.00  0.00    -0.170 N 
ATOM      7  H9  UNL     1      -5.212 -11.429  10.120  1.00  0.00     0.186 HD
HETATM    8  C9  UNL     1      -6.145 -10.254  11.439  1.00  0.00     0.712 C 
HETATM    9  N12 UNL     1      -7.235  -9.757  12.048  1.00  0.00    -0.021 N 
ATOM     10  H12 UNL     1      -7.048  -9.215  12.892  1.00  0.00     0.203 HD
ENDROOT
BRANCH   5  11
HETATM   11  N4  UNL     1      -6.776 -11.959   8.367  1.00  0.00    -0.282 N 
ATOM     12  H4  UNL     1      -6.568 -11.524   7.469  1.00  0.00     0.188 HD
BRANCH  11  13
HETATM   13  N5  UNL     1      -6.754 -13.346   8.533  1.00  0.00    -0.308 N 
HETATM   14  C6  UNL     1      -5.743 -14.082   8.285  1.00  0.00     0.139 C 
ATOM     15  H5  UNL     1      -7.601 -13.799   8.875  1.00  0.00     0.186 HD
BRANCH  14  16
HETATM   16  C7  UNL     1      -5.881 -15.528   8.514  1.00  0.00     0.083 A 
HETATM   17  C8  UNL     1      -5.017 -16.528   8.136  1.00  0.00     0.141 A 
HETATM   18  N6  UNL     1      -5.510 -17.707   8.534  1.00  0.00    -0.295 N 
HETATM   19  N7  UNL     1      -6.647 -17.456   9.143  1.00  0.00    -0.243 N 
ATOM     20  H6  UNL     1      -5.085 -18.623   8.393  1.00  0.00     0.187 HD
HETATM   21  N8  UNL     1      -6.899 -16.160   9.148  1.00  0.00    -0.284 N 
ATOM     22  H7  UNL     1      -7.252 -18.165   9.556  1.00  0.00     0.208 HD
ATOM     23  H8  UNL     1      -7.718 -15.711   9.559  1.00  0.00     0.188 HD
ENDBRANCH  14  16
ENDBRANCH  11  13
ENDBRANCH   5  11
BRANCH   4  24
HETATM   24  N3  UNL     1      -9.142 -11.157   8.330  1.00  0.00    -0.361 N 
HETATM   25  C3  UNL     1      -9.863 -10.673   7.101  1.00  0.00     0.144 A 
HETATM   26  C4  UNL     1      -9.804 -12.083   7.437  1.00  0.00     0.144 A 
ENDBRANCH   4  24
BRANCH   8  27
HETATM   27  N10 UNL     1      -4.982 -10.030  11.939  1.00  0.00    -0.138 N 
ATOM     28  H10 UNL     1      -4.300 -10.789  11.923  1.00  0.00     0.205 HD
BRANCH  27  29
HETATM   29  N11 UNL     1      -4.597  -8.822  12.501  1.00  0.00    -0.331 N 
ATOM     30 2H11 UNL     1      -4.360  -8.068  11.855  1.00  0.00     0.177 HD
ATOM     31 1H11 UNL     1      -4.538  -8.651  13.505  1.00  0.00     0.177 HD
ENDBRANCH  27  29
ENDBRANCH   8  27
BRANCH   1  32
HETATM   32  N1  UNL     1      -9.394  -9.656  12.671  1.00  0.00    -0.234 N 
ATOM     33  H12 UNL     1     -10.282  -9.238  12.396  1.00  0.00     0.174 HD
ATOM     34  H11 UNL     1      -9.127  -9.919  13.620  1.00  0.00     0.174 HD
ENDBRANCH   1  32
TORSDOF 7
ENDMDL
