MODEL 1
REMARK VINA RESULT: -7.420990650      0.000      0.000
REMARK  12 active torsions:
REMARK  status: ('A' for Active; 'I' for Inactive)
REMARK    1  A    between atoms: N1_1  and  C1_4 
REMARK    2  A    between atoms: C2_7  and  N3_8 
REMARK    3  A    between atoms: N4_11  and  C3_12 
REMARK    4  A    between atoms: C4_14  and  C5_15 
REMARK    5  A    between atoms: C5_15  and  S1_16 
REMARK    6  A    between atoms: S1_16  and  C6_17 
REMARK    7  A    between atoms: C6_17  and  C7_18 
REMARK    8  A    between atoms: C7_18  and  C8_19 
REMARK    9  A    between atoms: C8_19  and  C9_20 
REMARK   10  A    between atoms: C9_20  and  O2_21 
REMARK   11  A    between atoms: C10_23  and  O3_24 
REMARK   12  A    between atoms: C11_26  and  O4_27 
ROOT
HETATM    1  C3  UNL     1       7.574  16.207  31.990  1.00  0.00     0.294 C 
HETATM    2  O1  UNL     1       7.223  15.259  32.977  1.00  0.00    -0.353 OA
HETATM    3  C4  UNL     1       6.473  16.070  33.851  1.00  0.00     0.165 C 
HETATM    4  C10 UNL     1       5.584  16.917  33.002  1.00  0.00     0.181 C 
HETATM    5  C11 UNL     1       6.205  16.728  31.611  1.00  0.00     0.200 C 
ENDROOT
BRANCH   1   6
HETATM    6  N4  UNL     1       8.235  15.512  30.921  1.00  0.00    -0.077 N 
HETATM    7  C2  UNL     1       9.160  14.550  31.132  1.00  0.00     0.710 A 
HETATM    8  N2  UNL     1       9.590  14.094  29.935  1.00  0.00    -0.020 N 
HETATM    9  C1  UNL     1       8.931  14.773  28.979  1.00  0.00     0.705 A 
ATOM     10  H2  UNL     1      10.287  13.366  29.783  1.00  0.00     0.203 HD
HETATM   11  N5  UNL     1       8.115  15.628  29.617  1.00  0.00    -0.113 N 
ATOM     12  H5  UNL     1       7.486  16.281  29.152  1.00  0.00     0.206 HD
BRANCH   7  13
HETATM   13  N3  UNL     1       9.583  14.119  32.296  1.00  0.00    -0.233 N 
ATOM     14  H32 UNL     1      10.492  13.699  32.493  1.00  0.00     0.174 HD
ATOM     15  H31 UNL     1       9.045  14.152  33.163  1.00  0.00     0.174 HD
ENDBRANCH   7  13
BRANCH   9  16
HETATM   16  N1  UNL     1       9.069  14.617  27.695  1.00  0.00    -0.233 N 
ATOM     17  H12 UNL     1       9.939  14.523  27.169  1.00  0.00     0.174 HD
ATOM     18  H11 UNL     1       8.314  14.565  27.011  1.00  0.00     0.174 HD
ENDBRANCH   9  16
ENDBRANCH   1   6
BRANCH   5  19
HETATM   19  O4  UNL     1       6.236  17.909  30.916  1.00  0.00    -0.388 OA
ATOM     20  H4  UNL     1       5.615  17.947  30.198  1.00  0.00     0.210 HD
ENDBRANCH   5  19
BRANCH   3  21
HETATM   21  C5  UNL     1       5.756  15.242  34.868  1.00  0.00     0.108 C 
BRANCH  21  22
HETATM   22  S1  UNL     1       6.761  15.185  36.374  1.00  0.00    -0.166 SA
BRANCH  22  23
HETATM   23  C6  UNL     1       6.234  16.538  37.498  1.00  0.00     0.074 C 
BRANCH  23  24
HETATM   24  C7  UNL     1       6.572  17.828  36.814  1.00  0.00     0.012 C 
BRANCH  24  25
HETATM   25  C8  UNL     1       5.396  18.614  36.366  1.00  0.00     0.027 C 
BRANCH  25  26
HETATM   26  C9  UNL     1       4.072  18.070  36.755  1.00  0.00     0.164 C 
BRANCH  26  27
HETATM   27  O2  UNL     1       3.240  18.962  37.377  1.00  0.00    -0.401 OA
ATOM     28  H2  UNL     1       2.960  18.710  38.249  1.00  0.00     0.209 HD
ENDBRANCH  26  27
ENDBRANCH  25  26
ENDBRANCH  24  25
ENDBRANCH  23  24
ENDBRANCH  22  23
ENDBRANCH  21  22
ENDBRANCH   3  21
BRANCH   4  29
HETATM   29  O3  UNL     1       4.258  16.557  33.022  1.00  0.00    -0.390 OA
ATOM     30  H3  UNL     1       3.755  16.935  33.734  1.00  0.00     0.210 HD
ENDBRANCH   4  29
TORSDOF 12
ENDMDL
MODEL 2
REMARK VINA RESULT: -7.355278777      1.807      2.312
REMARK  12 active torsions:
REMARK  status: ('A' for Active; 'I' for Inactive)
REMARK    1  A    between atoms: N1_1  and  C1_4 
REMARK    2  A    between atoms: C2_7  and  N3_8 
REMARK    3  A    between atoms: N4_11  and  C3_12 
REMARK    4  A    between atoms: C4_14  and  C5_15 
REMARK    5  A    between atoms: C5_15  and  S1_16 
REMARK    6  A    between atoms: S1_16  and  C6_17 
REMARK    7  A    between atoms: C6_17  and  C7_18 
REMARK    8  A    between atoms: C7_18  and  C8_19 
REMARK    9  A    between atoms: C8_19  and  C9_20 
REMARK   10  A    between atoms: C9_20  and  O2_21 
REMARK   11  A    between atoms: C10_23  and  O3_24 
REMARK   12  A    between atoms: C11_26  and  O4_27 
ROOT
HETATM    1  C3  UNL     1       6.414  16.489  32.362  1.00  0.00     0.294 C 
HETATM    2  O1  UNL     1       5.903  15.702  33.417  1.00  0.00    -0.353 OA
HETATM    3  C4  UNL     1       5.192  16.679  34.141  1.00  0.00     0.165 C 
HETATM    4  C10 UNL     1       4.454  17.508  33.142  1.00  0.00     0.181 C 
HETATM    5  C11 UNL     1       5.136  17.098  31.829  1.00  0.00     0.200 C 
ENDROOT
BRANCH   1   6
HETATM    6  N4  UNL     1       7.061  15.613  31.426  1.00  0.00    -0.077 N 
HETATM    7  C2  UNL     1       8.223  14.978  31.697  1.00  0.00     0.710 A 
HETATM    8  N2  UNL     1       8.568  14.233  30.624  1.00  0.00    -0.020 N 
HETATM    9  C1  UNL     1       7.619  14.404  29.685  1.00  0.00     0.705 A 
ATOM     10  H2  UNL     1       9.397  13.645  30.540  1.00  0.00     0.203 HD
HETATM   11  N5  UNL     1       6.719  15.251  30.210  1.00  0.00    -0.113 N 
ATOM     12  H5  UNL     1       5.880  15.573  29.727  1.00  0.00     0.206 HD
BRANCH   7  13
HETATM   13  N3  UNL     1       8.913  15.060  32.808  1.00  0.00    -0.233 N 
ATOM     14  H32 UNL     1       9.229  15.916  33.264  1.00  0.00     0.174 HD
ATOM     15  H31 UNL     1       9.224  14.262  33.364  1.00  0.00     0.174 HD
ENDBRANCH   7  13
BRANCH   9  16
HETATM   16  N1  UNL     1       7.597  13.850  28.509  1.00  0.00    -0.233 N 
ATOM     17  H12 UNL     1       8.086  14.154  27.667  1.00  0.00     0.174 HD
ATOM     18  H11 UNL     1       7.075  13.012  28.249  1.00  0.00     0.174 HD
ENDBRANCH   9  16
ENDBRANCH   1   6
BRANCH   5  19
HETATM   19  O4  UNL     1       5.337  18.182  31.014  1.00  0.00    -0.388 OA
ATOM     20  H4  UNL     1       4.534  18.611  30.742  1.00  0.00     0.210 HD
ENDBRANCH   5  19
BRANCH   3  21
HETATM   21  C5  UNL     1       4.329  16.050  35.186  1.00  0.00     0.108 C 
BRANCH  21  22
HETATM   22  S1  UNL     1       3.954  17.295  36.447  1.00  0.00    -0.166 SA
BRANCH  22  23
HETATM   23  C6  UNL     1       5.233  17.221  37.763  1.00  0.00     0.074 C 
BRANCH  23  24
HETATM   24  C7  UNL     1       6.535  17.604  37.125  1.00  0.00     0.012 C 
BRANCH  24  25
HETATM   25  C8  UNL     1       7.599  16.576  37.232  1.00  0.00     0.027 C 
BRANCH  25  26
HETATM   26  C9  UNL     1       7.226  15.213  36.780  1.00  0.00     0.164 C 
BRANCH  26  27
HETATM   27  O2  UNL     1       7.845  14.794  35.633  1.00  0.00    -0.401 OA
ATOM     28  H2  UNL     1       7.322  14.228  35.078  1.00  0.00     0.209 HD
ENDBRANCH  26  27
ENDBRANCH  25  26
ENDBRANCH  24  25
ENDBRANCH  23  24
ENDBRANCH  22  23
ENDBRANCH  21  22
ENDBRANCH   3  21
BRANCH   4  29
HETATM   29  O3  UNL     1       3.098  17.287  33.104  1.00  0.00    -0.390 OA
ATOM     30  H3  UNL     1       2.708  17.064  33.941  1.00  0.00     0.210 HD
ENDBRANCH   4  29
TORSDOF 12
ENDMDL
MODEL 3
REMARK VINA RESULT: -7.256444093      1.580      2.417
REMARK  12 active torsions:
REMARK  status: ('A' for Active; 'I' for Inactive)
REMARK    1  A    between atoms: N1_1  and  C1_4 
REMARK    2  A    between atoms: C2_7  and  N3_8 
REMARK    3  A    between atoms: N4_11  and  C3_12 
REMARK    4  A    between atoms: C4_14  and  C5_15 
REMARK    5  A    between atoms: C5_15  and  S1_16 
REMARK    6  A    between atoms: S1_16  and  C6_17 
REMARK    7  A    between atoms: C6_17  and  C7_18 
REMARK    8  A    between atoms: C7_18  and  C8_19 
REMARK    9  A    between atoms: C8_19  and  C9_20 
REMARK   10  A    between atoms: C9_20  and  O2_21 
REMARK   11  A    between atoms: C10_23  and  O3_24 
REMARK   12  A    between atoms: C11_26  and  O4_27 
ROOT
HETATM    1  C3  UNL     1       6.285  16.236  32.778  1.00  0.00     0.294 C 
HETATM    2  O1  UNL     1       7.061  15.386  33.598  1.00  0.00    -0.353 OA
HETATM    3  C4  UNL     1       6.421  15.578  34.839  1.00  0.00     0.165 C 
HETATM    4  C10 UNL     1       4.952  15.549  34.578  1.00  0.00     0.181 C 
HETATM    5  C11 UNL     1       4.901  15.690  33.051  1.00  0.00     0.200 C 
ENDROOT
BRANCH   1   6
HETATM    6  N4  UNL     1       6.713  16.054  31.420  1.00  0.00    -0.077 N 
HETATM    7  C2  UNL     1       6.337  16.874  30.415  1.00  0.00     0.710 A 
HETATM    8  N2  UNL     1       6.903  16.439  29.267  1.00  0.00    -0.020 N 
HETATM    9  C1  UNL     1       7.633  15.347  29.560  1.00  0.00     0.705 A 
ATOM     10  H2  UNL     1       6.797  16.862  28.346  1.00  0.00     0.203 HD
HETATM   11  N5  UNL     1       7.492  15.143  30.880  1.00  0.00    -0.113 N 
ATOM     12  H5  UNL     1       7.933  14.381  31.396  1.00  0.00     0.206 HD
BRANCH   7  13
HETATM   13  N3  UNL     1       5.554  17.920  30.517  1.00  0.00    -0.233 N 
ATOM     14  H32 UNL     1       4.730  18.118  29.948  1.00  0.00     0.174 HD
ATOM     15  H31 UNL     1       5.674  18.678  31.189  1.00  0.00     0.174 HD
ENDBRANCH   7  13
BRANCH   9  16
HETATM   16  N1  UNL     1       8.330  14.643  28.717  1.00  0.00    -0.233 N 
ATOM     17  H12 UNL     1       9.324  14.732  28.503  1.00  0.00     0.174 HD
ATOM     18  H11 UNL     1       7.979  13.884  28.133  1.00  0.00     0.174 HD
ENDBRANCH   9  16
ENDBRANCH   1   6
BRANCH   5  19
HETATM   19  O4  UNL     1       3.889  16.530  32.662  1.00  0.00    -0.388 OA
ATOM     20  H4  UNL     1       3.634  16.427  31.753  1.00  0.00     0.210 HD
ENDBRANCH   5  19
BRANCH   3  21
HETATM   21  C5  UNL     1       6.894  14.580  35.846  1.00  0.00     0.108 C 
BRANCH  21  22
HETATM   22  S1  UNL     1       7.075  15.416  37.442  1.00  0.00    -0.166 SA
BRANCH  22  23
HETATM   23  C6  UNL     1       6.584  17.176  37.257  1.00  0.00     0.074 C 
BRANCH  23  24
HETATM   24  C7  UNL     1       5.212  17.309  37.848  1.00  0.00     0.012 C 
BRANCH  24  25
HETATM   25  C8  UNL     1       4.294  18.185  37.082  1.00  0.00     0.027 C 
BRANCH  25  26
HETATM   26  C9  UNL     1       4.924  19.007  36.019  1.00  0.00     0.164 C 
BRANCH  26  27
HETATM   27  O2  UNL     1       4.447  18.784  34.755  1.00  0.00    -0.401 OA
ATOM     28  H2  UNL     1       3.991  19.518  34.363  1.00  0.00     0.209 HD
ENDBRANCH  26  27
ENDBRANCH  25  26
ENDBRANCH  24  25
ENDBRANCH  23  24
ENDBRANCH  22  23
ENDBRANCH  21  22
ENDBRANCH   3  21
BRANCH   4  29
HETATM   29  O3  UNL     1       4.315  14.409  35.008  1.00  0.00    -0.390 OA
ATOM     30  H3  UNL     1       3.460  14.263  34.622  1.00  0.00     0.210 HD
ENDBRANCH   4  29
TORSDOF 12
ENDMDL
MODEL 4
REMARK VINA RESULT: -7.255174352      3.728      6.589
REMARK  12 active torsions:
REMARK  status: ('A' for Active; 'I' for Inactive)
REMARK    1  A    between atoms: N1_1  and  C1_4 
REMARK    2  A    between atoms: C2_7  and  N3_8 
REMARK    3  A    between atoms: N4_11  and  C3_12 
REMARK    4  A    between atoms: C4_14  and  C5_15 
REMARK    5  A    between atoms: C5_15  and  S1_16 
REMARK    6  A    between atoms: S1_16  and  C6_17 
REMARK    7  A    between atoms: C6_17  and  C7_18 
REMARK    8  A    between atoms: C7_18  and  C8_19 
REMARK    9  A    between atoms: C8_19  and  C9_20 
REMARK   10  A    between atoms: C9_20  and  O2_21 
REMARK   11  A    between atoms: C10_23  and  O3_24 
REMARK   12  A    between atoms: C11_26  and  O4_27 
ROOT
HETATM    1  C3  UNL     1       8.178  15.429  32.556  1.00  0.00     0.294 C 
HETATM    2  O1  UNL     1       7.145  15.255  31.609  1.00  0.00    -0.353 OA
HETATM    3  C4  UNL     1       7.902  15.137  30.426  1.00  0.00     0.165 C 
HETATM    4  C10 UNL     1       9.055  14.242  30.737  1.00  0.00     0.181 C 
HETATM    5  C11 UNL     1       9.021  14.206  32.271  1.00  0.00     0.200 C 
ENDROOT
BRANCH   1   6
HETATM    6  N4  UNL     1       7.587  15.422  33.865  1.00  0.00    -0.077 N 
HETATM    7  C2  UNL     1       6.484  16.137  34.176  1.00  0.00     0.710 A 
HETATM    8  N2  UNL     1       6.180  15.918  35.475  1.00  0.00    -0.020 N 
HETATM    9  C1  UNL     1       7.096  15.067  35.971  1.00  0.00     0.705 A 
ATOM     10  H2  UNL     1       5.398  16.325  35.987  1.00  0.00     0.203 HD
HETATM   11  N5  UNL     1       7.937  14.788  34.962  1.00  0.00    -0.113 N 
ATOM     12  H5  UNL     1       8.741  14.165  35.036  1.00  0.00     0.206 HD
BRANCH   7  13
HETATM   13  N3  UNL     1       5.808  16.917  33.367  1.00  0.00    -0.233 N 
ATOM     14  H32 UNL     1       4.921  16.697  32.915  1.00  0.00     0.174 HD
ATOM     15  H31 UNL     1       6.092  17.856  33.087  1.00  0.00     0.174 HD
ENDBRANCH   7  13
BRANCH   9  16
HETATM   16  N1  UNL     1       7.141  14.615  37.190  1.00  0.00    -0.233 N 
ATOM     17  H12 UNL     1       6.369  14.246  37.746  1.00  0.00     0.174 HD
ATOM     18  H11 UNL     1       7.970  14.562  37.781  1.00  0.00     0.174 HD
ENDBRANCH   9  16
ENDBRANCH   1   6
BRANCH   5  19
HETATM   19  O4  UNL     1      10.285  14.270  32.798  1.00  0.00    -0.388 OA
ATOM     20  H4  UNL     1      10.865  13.584  32.490  1.00  0.00     0.210 HD
ENDBRANCH   5  19
BRANCH   3  21
HETATM   21  C5  UNL     1       7.050  14.681  29.287  1.00  0.00     0.108 C 
BRANCH  21  22
HETATM   22  S1  UNL     1       5.455  15.534  29.385  1.00  0.00    -0.166 SA
BRANCH  22  23
HETATM   23  C6  UNL     1       5.708  17.321  29.047  1.00  0.00     0.074 C 
BRANCH  23  24
HETATM   24  C7  UNL     1       4.550  17.774  28.210  1.00  0.00     0.012 C 
BRANCH  24  25
HETATM   25  C8  UNL     1       4.621  19.189  27.773  1.00  0.00     0.027 C 
BRANCH  25  26
HETATM   26  C9  UNL     1       3.466  19.677  26.979  1.00  0.00     0.164 C 
BRANCH  26  27
HETATM   27  O2  UNL     1       2.236  19.359  27.492  1.00  0.00    -0.401 OA
ATOM     28  H2  UNL     1       2.191  18.522  27.937  1.00  0.00     0.209 HD
ENDBRANCH  26  27
ENDBRANCH  25  26
ENDBRANCH  24  25
ENDBRANCH  23  24
ENDBRANCH  22  23
ENDBRANCH  21  22
ENDBRANCH   3  21
BRANCH   4  29
HETATM   29  O3  UNL     1       8.966  12.982  30.194  1.00  0.00    -0.390 OA
ATOM     30  H3  UNL     1       9.404  12.878  29.358  1.00  0.00     0.210 HD
ENDBRANCH   4  29
TORSDOF 12
ENDMDL
MODEL 5
REMARK VINA RESULT: -7.235000388      2.081      2.842
REMARK  12 active torsions:
REMARK  status: ('A' for Active; 'I' for Inactive)
REMARK    1  A    between atoms: N1_1  and  C1_4 
REMARK    2  A    between atoms: C2_7  and  N3_8 
REMARK    3  A    between atoms: N4_11  and  C3_12 
REMARK    4  A    between atoms: C4_14  and  C5_15 
REMARK    5  A    between atoms: C5_15  and  S1_16 
REMARK    6  A    between atoms: S1_16  and  C6_17 
REMARK    7  A    between atoms: C6_17  and  C7_18 
REMARK    8  A    between atoms: C7_18  and  C8_19 
REMARK    9  A    between atoms: C8_19  and  C9_20 
REMARK   10  A    between atoms: C9_20  and  O2_21 
REMARK   11  A    between atoms: C10_23  and  O3_24 
REMARK   12  A    between atoms: C11_26  and  O4_27 
ROOT
HETATM    1  C3  UNL     1       7.649  16.000  32.533  1.00  0.00     0.294 C 
HETATM    2  O1  UNL     1       6.504  15.365  33.064  1.00  0.00    -0.353 OA
HETATM    3  C4  UNL     1       5.668  16.482  33.269  1.00  0.00     0.165 C 
HETATM    4  C10 UNL     1       5.789  17.343  32.056  1.00  0.00     0.181 C 
HETATM    5  C11 UNL     1       7.032  16.753  31.376  1.00  0.00     0.200 C 
ENDROOT
BRANCH   1   6
HETATM    6  N4  UNL     1       8.571  14.979  32.123  1.00  0.00    -0.077 N 
HETATM    7  C2  UNL     1       8.490  14.352  30.929  1.00  0.00     0.710 A 
HETATM    8  N2  UNL     1       9.495  13.452  30.845  1.00  0.00    -0.020 N 
HETATM    9  C1  UNL     1      10.202  13.521  31.987  1.00  0.00     0.705 A 
ATOM     10  H2  UNL     1       9.684  12.833  30.057  1.00  0.00     0.203 HD
HETATM   11  N5  UNL     1       9.610  14.461  32.741  1.00  0.00    -0.113 N 
ATOM     12  H5  UNL     1       9.924  14.737  33.671  1.00  0.00     0.206 HD
BRANCH   7  13
HETATM   13  N3  UNL     1       7.593  14.566  29.997  1.00  0.00    -0.233 N 
ATOM     14  H32 UNL     1       7.740  15.061  29.117  1.00  0.00     0.174 HD
ATOM     15  H31 UNL     1       6.621  14.259  30.039  1.00  0.00     0.174 HD
ENDBRANCH   7  13
BRANCH   9  16
HETATM   16  N1  UNL     1      11.250  12.809  32.283  1.00  0.00    -0.233 N 
ATOM     17  H12 UNL     1      12.091  13.113  32.773  1.00  0.00     0.174 HD
ATOM     18  H11 UNL     1      11.388  11.822  32.064  1.00  0.00     0.174 HD
ENDBRANCH   9  16
ENDBRANCH   1   6
BRANCH   5  19
HETATM   19  O4  UNL     1       7.837  17.742  30.868  1.00  0.00    -0.388 OA
ATOM     20  H4  UNL     1       7.708  17.902  29.941  1.00  0.00     0.210 HD
ENDBRANCH   5  19
BRANCH   3  21
HETATM   21  C5  UNL     1       4.272  16.055  33.592  1.00  0.00     0.108 C 
BRANCH  21  22
HETATM   22  S1  UNL     1       3.808  16.771  35.189  1.00  0.00    -0.166 SA
BRANCH  22  23
HETATM   23  C6  UNL     1       5.141  17.903  35.750  1.00  0.00     0.074 C 
BRANCH  23  24
HETATM   24  C7  UNL     1       5.740  17.292  36.981  1.00  0.00     0.012 C 
BRANCH  24  25
HETATM   25  C8  UNL     1       7.086  16.702  36.784  1.00  0.00     0.027 C 
BRANCH  25  26
HETATM   26  C9  UNL     1       7.118  15.235  36.558  1.00  0.00     0.164 C 
BRANCH  26  27
HETATM   27  O2  UNL     1       8.008  14.815  35.606  1.00  0.00    -0.401 OA
ATOM     28  H2  UNL     1       8.908  14.742  35.902  1.00  0.00     0.209 HD
ENDBRANCH  26  27
ENDBRANCH  25  26
ENDBRANCH  24  25
ENDBRANCH  23  24
ENDBRANCH  22  23
ENDBRANCH  21  22
ENDBRANCH   3  21
BRANCH   4  29
HETATM   29  O3  UNL     1       4.694  17.322  31.226  1.00  0.00    -0.390 OA
ATOM     30  H3  UNL     1       4.080  18.033  31.362  1.00  0.00     0.210 HD
ENDBRANCH   4  29
TORSDOF 12
ENDMDL
