MODEL 1
REMARK VINA RESULT: 4.239173202      0.000      0.000
REMARK  2 active torsions:
REMARK  status: ('A' for Active; 'I' for Inactive)
REMARK       I    between atoms: N2_8  and  C6_10 
REMARK    1  A    between atoms: C6_10  and  C7_12 
REMARK    2  A    between atoms: C10_15  and  C11_16 
REMARK       I    between atoms: C11_16  and  N3_18 
ROOT
HETATM    1  C7  UNL     1      11.903   5.112  11.116  1.00  0.00     0.032 A 
HETATM    2  C8  UNL     1      11.912   6.282  10.395  1.00  0.00     0.018 A 
HETATM    3  C9  UNL     1      12.522   6.378   9.166  1.00  0.00     0.018 A 
HETATM    4  C10 UNL     1      13.164   5.273   8.600  1.00  0.00     0.033 A 
HETATM    5  C24 UNL     1      13.167   4.079   9.313  1.00  0.00     0.018 A 
HETATM    6  C25 UNL     1      12.541   4.036  10.539  1.00  0.00     0.018 A 
ENDROOT
BRANCH   4   7
HETATM    7  C11 UNL     1      13.644   5.377   7.214  1.00  0.00     0.263 C 
HETATM    8  O2  UNL     1      14.930   5.444   7.150  1.00  0.00    -0.267 OA
HETATM    9  N3  UNL     1      12.882   5.431   6.021  1.00  0.00    -0.276 N 
HETATM   10  C12 UNL     1      11.537   4.955   6.020  1.00  0.00     0.060 A 
HETATM   11  C23 UNL     1      13.375   6.342   5.000  1.00  0.00     0.060 A 
HETATM   12  C13 UNL     1      11.219   3.857   6.858  1.00  0.00     0.031 A 
HETATM   13  C17 UNL     1      10.554   5.286   5.128  1.00  0.00     0.033 A 
HETATM   14  C14 UNL     1      10.021   3.184   6.786  1.00  0.00     0.002 A 
HETATM   15  C15 UNL     1       9.058   3.554   5.877  1.00  0.00     0.002 A 
HETATM   16  C16 UNL     1       9.368   4.629   5.048  1.00  0.00     0.021 A 
HETATM   17  S1  UNL     1      10.831   6.605   3.988  1.00  0.00    -0.086 SA
HETATM   18  C18 UNL     1      12.620   6.845   3.967  1.00  0.00     0.033 A 
HETATM   19  C19 UNL     1      13.139   7.609   2.938  1.00  0.00     0.021 A 
HETATM   20  C20 UNL     1      14.476   7.898   2.930  1.00  0.00     0.002 A 
HETATM   21  C21 UNL     1      15.297   7.443   3.919  1.00  0.00     0.002 A 
HETATM   22  C22 UNL     1      14.725   6.669   4.940  1.00  0.00     0.031 A 
ENDBRANCH   4   7
BRANCH   1  23
HETATM   23  C6  UNL     1      11.273   4.976  12.410  1.00  0.00     0.257 C 
HETATM   24  N2  UNL     1      10.406   3.906  12.750  1.00  0.00    -0.309 N 
HETATM   25  C5  UNL     1       9.122   4.169  12.754  1.00  0.00     0.108 A 
ATOM     26  H2  UNL     1      10.764   2.979  12.979  1.00  0.00     0.170 HD
HETATM   27  N1  UNL     1       8.224   3.210  13.067  1.00  0.00    -0.352 N 
HETATM   28  C26 UNL     1       8.631   5.423  12.445  1.00  0.00     0.055 A 
HETATM   29  C4  UNL     1       6.883   3.464  13.077  1.00  0.00     0.090 A 
ATOM     30  H1  UNL     1       8.556   2.274  13.301  1.00  0.00     0.166 HD
HETATM   31  C3  UNL     1       6.383   4.698  12.773  1.00  0.00     0.024 A 
HETATM   32  C2  UNL     1       7.261   5.697  12.452  1.00  0.00    -0.057 A 
HETATM   33  C1  UNL     1       6.765   7.052  12.115  1.00  0.00     0.048 C 
HETATM   34  O1  UNL     1      11.499   5.846  13.284  1.00  0.00    -0.267 OA
ENDBRANCH   1  23
TORSDOF 2
ENDMDL
MODEL 2
REMARK VINA RESULT: 6.315449038      3.981      7.420
REMARK  2 active torsions:
REMARK  status: ('A' for Active; 'I' for Inactive)
REMARK       I    between atoms: N2_8  and  C6_10 
REMARK    1  A    between atoms: C6_10  and  C7_12 
REMARK    2  A    between atoms: C10_15  and  C11_16 
REMARK       I    between atoms: C11_16  and  N3_18 
ROOT
HETATM    1  C7  UNL     1       7.027   3.446   6.891  1.00  0.00     0.032 A 
HETATM    2  C8  UNL     1       7.769   4.598   6.792  1.00  0.00     0.018 A 
HETATM    3  C9  UNL     1       8.576   5.037   7.816  1.00  0.00     0.018 A 
HETATM    4  C10 UNL     1       8.670   4.315   9.009  1.00  0.00     0.033 A 
HETATM    5  C24 UNL     1       7.928   3.146   9.130  1.00  0.00     0.018 A 
HETATM    6  C25 UNL     1       7.136   2.751   8.075  1.00  0.00     0.018 A 
ENDROOT
BRANCH   4   7
HETATM    7  C11 UNL     1       9.678   4.728   9.998  1.00  0.00     0.263 C 
HETATM    8  O2  UNL     1       9.243   4.619  11.207  1.00  0.00    -0.267 OA
HETATM    9  N3  UNL     1      10.985   5.224   9.768  1.00  0.00    -0.276 N 
HETATM   10  C12 UNL     1      11.627   4.970   8.519  1.00  0.00     0.060 A 
HETATM   11  C23 UNL     1      11.415   6.298  10.648  1.00  0.00     0.060 A 
HETATM   12  C13 UNL     1      11.351   3.743   7.867  1.00  0.00     0.031 A 
HETATM   13  C17 UNL     1      12.663   5.678   7.975  1.00  0.00     0.033 A 
HETATM   14  C14 UNL     1      12.063   3.301   6.774  1.00  0.00     0.002 A 
HETATM   15  C15 UNL     1      13.096   4.046   6.257  1.00  0.00     0.002 A 
HETATM   16  C16 UNL     1      13.372   5.252   6.899  1.00  0.00     0.021 A 
HETATM   17  S1  UNL     1      13.149   7.205   8.715  1.00  0.00    -0.086 SA
HETATM   18  C18 UNL     1      12.439   7.174  10.375  1.00  0.00     0.033 A 
HETATM   19  C19 UNL     1      12.912   8.108  11.278  1.00  0.00     0.021 A 
HETATM   20  C20 UNL     1      12.340   8.187  12.518  1.00  0.00     0.002 A 
HETATM   21  C21 UNL     1      11.316   7.360  12.871  1.00  0.00     0.002 A 
HETATM   22  C22 UNL     1      10.871   6.426  11.922  1.00  0.00     0.031 A 
ENDBRANCH   4   7
BRANCH   1  23
HETATM   23  C6  UNL     1       6.168   2.956   5.836  1.00  0.00     0.257 C 
HETATM   24  N2  UNL     1       5.671   1.628   5.784  1.00  0.00    -0.309 N 
HETATM   25  C5  UNL     1       6.261   0.814   4.943  1.00  0.00     0.108 A 
ATOM     26  H2  UNL     1       4.894   1.323   6.370  1.00  0.00     0.170 HD
HETATM   27  N1  UNL     1       5.853  -0.468   4.827  1.00  0.00    -0.352 N 
HETATM   28  C26 UNL     1       7.313   1.221   4.146  1.00  0.00     0.055 A 
HETATM   29  C4  UNL     1       6.454  -1.333   3.958  1.00  0.00     0.090 A 
ATOM     30  H1  UNL     1       5.077  -0.798   5.402  1.00  0.00     0.166 HD
HETATM   31  C3  UNL     1       7.495  -0.945   3.163  1.00  0.00     0.024 A 
HETATM   32  C2  UNL     1       7.937   0.348   3.251  1.00  0.00    -0.057 A 
HETATM   33  C1  UNL     1       9.064   0.814   2.409  1.00  0.00     0.048 C 
HETATM   34  O1  UNL     1       5.840   3.741   4.914  1.00  0.00    -0.267 OA
ENDBRANCH   1  23
TORSDOF 2
ENDMDL
MODEL 3
REMARK VINA RESULT: 7.265323688      2.636      8.667
REMARK  2 active torsions:
REMARK  status: ('A' for Active; 'I' for Inactive)
REMARK       I    between atoms: N2_8  and  C6_10 
REMARK    1  A    between atoms: C6_10  and  C7_12 
REMARK    2  A    between atoms: C10_15  and  C11_16 
REMARK       I    between atoms: C11_16  and  N3_18 
ROOT
HETATM    1  C7  UNL     1      10.360   4.682   5.607  1.00  0.00     0.032 A 
HETATM    2  C8  UNL     1       9.995   5.761   6.376  1.00  0.00     0.018 A 
HETATM    3  C9  UNL     1       9.385   5.613   7.599  1.00  0.00     0.018 A 
HETATM    4  C10 UNL     1       9.111   4.341   8.110  1.00  0.00     0.033 A 
HETATM    5  C24 UNL     1       9.473   3.235   7.349  1.00  0.00     0.018 A 
HETATM    6  C25 UNL     1      10.082   3.439   6.131  1.00  0.00     0.018 A 
ENDROOT
BRANCH   4   7
HETATM    7  C11 UNL     1       8.622   4.234   9.493  1.00  0.00     0.263 C 
HETATM    8  O2  UNL     1       7.397   3.837   9.545  1.00  0.00    -0.267 OA
HETATM    9  N3  UNL     1       9.313   4.526  10.696  1.00  0.00    -0.276 N 
HETATM   10  C12 UNL     1      10.738   4.559  10.701  1.00  0.00     0.060 A 
HETATM   11  C23 UNL     1       8.525   5.177  11.731  1.00  0.00     0.060 A 
HETATM   12  C13 UNL     1      11.428   3.667   9.842  1.00  0.00     0.031 A 
HETATM   13  C17 UNL     1      11.538   5.197  11.610  1.00  0.00     0.033 A 
HETATM   14  C14 UNL     1      12.788   3.464   9.912  1.00  0.00     0.002 A 
HETATM   15  C15 UNL     1      13.554   4.129  10.840  1.00  0.00     0.002 A 
HETATM   16  C16 UNL     1      12.879   5.003  11.688  1.00  0.00     0.021 A 
HETATM   17  S1  UNL     1      10.807   6.302  12.776  1.00  0.00    -0.086 SA
HETATM   18  C18 UNL     1       9.049   5.890  12.783  1.00  0.00     0.033 A 
HETATM   19  C19 UNL     1       8.290   6.394  13.823  1.00  0.00     0.021 A 
HETATM   20  C20 UNL     1       6.937   6.188  13.822  1.00  0.00     0.002 A 
HETATM   21  C21 UNL     1       6.335   5.495  12.816  1.00  0.00     0.002 A 
HETATM   22  C22 UNL     1       7.147   5.000  11.783  1.00  0.00     0.031 A 
ENDBRANCH   4   7
BRANCH   1  23
HETATM   23  C6  UNL     1      11.002   4.801   4.317  1.00  0.00     0.257 C 
HETATM   24  N2  UNL     1      12.407   4.725   4.131  1.00  0.00    -0.309 N 
HETATM   25  C5  UNL     1      13.036   5.860   3.945  1.00  0.00     0.108 A 
ATOM     26  H2  UNL     1      12.902   3.833   4.142  1.00  0.00     0.170 HD
HETATM   27  N1  UNL     1      14.374   5.882   3.758  1.00  0.00    -0.352 N 
HETATM   28  C26 UNL     1      12.372   7.071   3.928  1.00  0.00     0.055 A 
HETATM   29  C4  UNL     1      15.048   7.053   3.563  1.00  0.00     0.090 A 
ATOM     30  H1  UNL     1      14.892   5.003   3.764  1.00  0.00     0.166 HD
HETATM   31  C3  UNL     1      14.405   8.258   3.544  1.00  0.00     0.024 A 
HETATM   32  C2  UNL     1      13.048   8.277   3.728  1.00  0.00    -0.057 A 
HETATM   33  C1  UNL     1      12.308   9.561   3.717  1.00  0.00     0.048 C 
HETATM   34  O1  UNL     1      10.286   4.980   3.303  1.00  0.00    -0.267 OA
ENDBRANCH   1  23
TORSDOF 2
ENDMDL
MODEL 4
REMARK VINA RESULT: 7.799654964      2.329      8.506
REMARK  2 active torsions:
REMARK  status: ('A' for Active; 'I' for Inactive)
REMARK       I    between atoms: N2_8  and  C6_10 
REMARK    1  A    between atoms: C6_10  and  C7_12 
REMARK    2  A    between atoms: C10_15  and  C11_16 
REMARK       I    between atoms: C11_16  and  N3_18 
ROOT
HETATM    1  C7  UNL     1      13.313   3.775   7.674  1.00  0.00     0.032 A 
HETATM    2  C8  UNL     1      11.949   3.621   7.604  1.00  0.00     0.018 A 
HETATM    3  C9  UNL     1      11.164   3.542   8.731  1.00  0.00     0.018 A 
HETATM    4  C10 UNL     1      11.735   3.617  10.005  1.00  0.00     0.033 A 
HETATM    5  C24 UNL     1      13.114   3.773  10.099  1.00  0.00     0.018 A 
HETATM    6  C25 UNL     1      13.853   3.847   8.940  1.00  0.00     0.018 A 
ENDROOT
BRANCH   4   7
HETATM    7  C11 UNL     1      10.840   3.707  11.168  1.00  0.00     0.263 C 
HETATM    8  O2  UNL     1      10.525   2.544  11.628  1.00  0.00    -0.267 OA
HETATM    9  N3  UNL     1      10.304   4.868  11.779  1.00  0.00    -0.276 N 
HETATM   10  C12 UNL     1      10.937   6.129  11.573  1.00  0.00     0.060 A 
HETATM   11  C23 UNL     1       8.925   4.764  12.227  1.00  0.00     0.060 A 
HETATM   12  C13 UNL     1      12.347   6.151  11.428  1.00  0.00     0.031 A 
HETATM   13  C17 UNL     1      10.367   7.364  11.726  1.00  0.00     0.033 A 
HETATM   14  C14 UNL     1      13.081   7.316  11.434  1.00  0.00     0.002 A 
HETATM   15  C15 UNL     1      12.466   8.536  11.587  1.00  0.00     0.002 A 
HETATM   16  C16 UNL     1      11.081   8.518  11.734  1.00  0.00     0.021 A 
HETATM   17  S1  UNL     1       8.623   7.485  11.965  1.00  0.00    -0.086 SA
HETATM   18  C18 UNL     1       8.097   5.834  12.473  1.00  0.00     0.033 A 
HETATM   19  C19 UNL     1       6.831   5.717  13.016  1.00  0.00     0.021 A 
HETATM   20  C20 UNL     1       6.352   4.474  13.329  1.00  0.00     0.002 A 
HETATM   21  C21 UNL     1       7.104   3.359  13.114  1.00  0.00     0.002 A 
HETATM   22  C22 UNL     1       8.384   3.527  12.563  1.00  0.00     0.031 A 
ENDBRANCH   4   7
BRANCH   1  23
HETATM   23  C6  UNL     1      14.168   3.861   6.512  1.00  0.00     0.257 C 
HETATM   24  N2  UNL     1      14.982   4.985   6.219  1.00  0.00    -0.309 N 
HETATM   25  C5  UNL     1      14.546   5.799   5.289  1.00  0.00     0.108 A 
ATOM     26  H2  UNL     1      15.862   5.151   6.708  1.00  0.00     0.170 HD
HETATM   27  N1  UNL     1      15.258   6.894   4.945  1.00  0.00    -0.352 N 
HETATM   28  C26 UNL     1      13.356   5.578   4.623  1.00  0.00     0.055 A 
HETATM   29  C4  UNL     1      14.822   7.754   3.979  1.00  0.00     0.090 A 
ATOM     30  H1  UNL     1      16.142   7.083   5.419  1.00  0.00     0.166 HD
HETATM   31  C3  UNL     1      13.648   7.550   3.312  1.00  0.00     0.024 A 
HETATM   32  C2  UNL     1      12.898   6.450   3.631  1.00  0.00    -0.057 A 
HETATM   33  C1  UNL     1      11.617   6.187   2.934  1.00  0.00     0.048 C 
HETATM   34  O1  UNL     1      14.197   2.893   5.714  1.00  0.00    -0.267 OA
ENDBRANCH   1  23
TORSDOF 2
ENDMDL
