MODEL 1
REMARK VINA RESULT: -7.640758432      0.000      0.000
REMARK  7 active torsions:
REMARK  status: ('A' for Active; 'I' for Inactive)
REMARK    1  A    between atoms: C2_3  and  O1_4 
REMARK    2  A    between atoms: O1_4  and  C3_5 
REMARK    3  A    between atoms: C3_5  and  C4_7 
REMARK    4  A    between atoms: C4_7  and  O3_8 
REMARK    5  A    between atoms: C5_10  and  C6_11 
REMARK    6  A    between atoms: N2_13  and  N3_14 
REMARK    7  A    between atoms: N3_14  and  C8_16 
ROOT
HETATM    1  N1  UNL     1      15.399  -1.362  20.549  1.00  0.00    -0.195 NA
HETATM    2  C1  UNL     1      14.440  -1.137  21.179  1.00  0.00     0.085 C 
HETATM    3  C2  UNL     1      13.264  -0.832  21.966  1.00  0.00     0.302 C 
ENDROOT
BRANCH   3   4
HETATM    4  O1  UNL     1      13.211  -1.702  23.090  1.00  0.00    -0.302 OA
BRANCH   4   5
HETATM    5  C3  UNL     1      12.093  -2.531  23.229  1.00  0.00     0.317 C 
HETATM    6  O2  UNL     1      11.371  -2.378  24.251  1.00  0.00    -0.257 OA
BRANCH   5   7
HETATM    7  C4  UNL     1      11.816  -3.514  22.215  1.00  0.00     0.144 C 
HETATM    8  C5  UNL     1      10.638  -3.607  21.662  1.00  0.00     0.081 C 
BRANCH   7   9
HETATM    9  O3  UNL     1      12.869  -4.373  21.844  1.00  0.00    -0.355 OA
ATOM     10  H3  UNL     1      13.402  -4.735  22.542  1.00  0.00     0.218 HD
ENDBRANCH   7   9
BRANCH   8  11
HETATM   11  C6  UNL     1      10.442  -4.640  20.625  1.00  0.00     0.101 A 
HETATM   12  C7  UNL     1      10.129  -4.288  19.333  1.00  0.00     0.159 A 
HETATM   13  N2  UNL     1      10.017  -5.447  18.627  1.00  0.00    -0.212 N 
HETATM   14  C13 UNL     1      10.253  -6.445  19.470  1.00  0.00     0.391 A 
HETATM   15  O4  UNL     1      10.251  -7.706  19.234  1.00  0.00    -0.236 OA
HETATM   16  O5  UNL     1      10.506  -5.917  20.669  1.00  0.00    -0.258 OA
BRANCH  13  17
HETATM   17  N3  UNL     1       9.664  -5.501  17.293  1.00  0.00    -0.321 N 
ATOM     18  H3  UNL     1       9.807  -6.374  16.787  1.00  0.00     0.181 HD
BRANCH  17  19
HETATM   19  C8  UNL     1       9.107  -4.390  16.594  1.00  0.00     0.100 C 
HETATM   20  C9  UNL     1       7.926  -4.761  15.734  1.00  0.00     0.026 C 
HETATM   21  C10 UNL     1       8.058  -3.955  14.440  1.00  0.00     0.002 C 
HETATM   22  C11 UNL     1       9.183  -2.955  14.740  1.00  0.00     0.002 C 
HETATM   23  C12 UNL     1      10.104  -3.871  15.548  1.00  0.00     0.026 C 
ENDBRANCH  17  19
ENDBRANCH  13  17
ENDBRANCH   8  11
ENDBRANCH   5   7
ENDBRANCH   4   5
ENDBRANCH   3   4
TORSDOF 7
ENDMDL
MODEL 2
REMARK VINA RESULT: -7.563241323      2.312      2.701
REMARK  7 active torsions:
REMARK  status: ('A' for Active; 'I' for Inactive)
REMARK    1  A    between atoms: C2_3  and  O1_4 
REMARK    2  A    between atoms: O1_4  and  C3_5 
REMARK    3  A    between atoms: C3_5  and  C4_7 
REMARK    4  A    between atoms: C4_7  and  O3_8 
REMARK    5  A    between atoms: C5_10  and  C6_11 
REMARK    6  A    between atoms: N2_13  and  N3_14 
REMARK    7  A    between atoms: N3_14  and  C8_16 
ROOT
HETATM    1  N1  UNL     1      16.457  -0.850  19.722  1.00  0.00    -0.195 NA
HETATM    2  C1  UNL     1      15.981  -0.442  20.709  1.00  0.00     0.085 C 
HETATM    3  C2  UNL     1      15.412   0.051  21.946  1.00  0.00     0.302 C 
ENDROOT
BRANCH   3   4
HETATM    4  O1  UNL     1      14.133  -0.542  22.144  1.00  0.00    -0.302 OA
BRANCH   4   5
HETATM    5  C3  UNL     1      13.115  -0.227  21.238  1.00  0.00     0.317 C 
HETATM    6  O2  UNL     1      12.724   0.970  21.186  1.00  0.00    -0.257 OA
BRANCH   5   7
HETATM    7  C4  UNL     1      12.561  -1.269  20.415  1.00  0.00     0.144 C 
HETATM    8  C5  UNL     1      11.559  -1.039  19.609  1.00  0.00     0.081 C 
BRANCH   7   9
HETATM    9  O3  UNL     1      13.140  -2.548  20.516  1.00  0.00    -0.355 OA
ATOM     10  H3  UNL     1      13.284  -3.026  19.707  1.00  0.00     0.218 HD
ENDBRANCH   7   9
BRANCH   8  11
HETATM   11  C6  UNL     1      11.056  -2.164  18.797  1.00  0.00     0.101 A 
HETATM   12  C7  UNL     1      11.065  -2.097  17.423  1.00  0.00     0.159 A 
HETATM   13  N2  UNL     1      10.547  -3.273  16.970  1.00  0.00    -0.212 N 
HETATM   14  C13 UNL     1      10.242  -4.005  18.035  1.00  0.00     0.391 A 
HETATM   15  O4  UNL     1       9.728  -5.179  18.076  1.00  0.00    -0.236 OA
HETATM   16  O5  UNL     1      10.564  -3.300  19.122  1.00  0.00    -0.258 OA
BRANCH  13  17
HETATM   17  N3  UNL     1      10.351  -3.560  15.634  1.00  0.00    -0.321 N 
ATOM     18  H3  UNL     1      11.160  -3.812  15.066  1.00  0.00     0.181 HD
BRANCH  17  19
HETATM   19  C8  UNL     1       9.069  -3.519  15.013  1.00  0.00     0.100 C 
HETATM   20  C9  UNL     1       8.027  -2.818  15.849  1.00  0.00     0.026 C 
HETATM   21  C10 UNL     1       6.731  -3.619  15.691  1.00  0.00     0.002 C 
HETATM   22  C11 UNL     1       7.037  -4.598  14.550  1.00  0.00     0.002 C 
HETATM   23  C12 UNL     1       8.485  -4.936  14.910  1.00  0.00     0.026 C 
ENDBRANCH  17  19
ENDBRANCH  13  17
ENDBRANCH   8  11
ENDBRANCH   5   7
ENDBRANCH   4   5
ENDBRANCH   3   4
TORSDOF 7
ENDMDL
MODEL 3
REMARK VINA RESULT: -7.520730833      1.363      1.756
REMARK  7 active torsions:
REMARK  status: ('A' for Active; 'I' for Inactive)
REMARK    1  A    between atoms: C2_3  and  O1_4 
REMARK    2  A    between atoms: O1_4  and  C3_5 
REMARK    3  A    between atoms: C3_5  and  C4_7 
REMARK    4  A    between atoms: C4_7  and  O3_8 
REMARK    5  A    between atoms: C5_10  and  C6_11 
REMARK    6  A    between atoms: N2_13  and  N3_14 
REMARK    7  A    between atoms: N3_14  and  C8_16 
ROOT
HETATM    1  N1  UNL     1      16.170  -0.966  20.081  1.00  0.00    -0.195 NA
HETATM    2  C1  UNL     1      15.648  -0.279  20.869  1.00  0.00     0.085 C 
HETATM    3  C2  UNL     1      15.017   0.563  21.864  1.00  0.00     0.302 C 
ENDROOT
BRANCH   3   4
HETATM    4  O1  UNL     1      13.658   0.171  22.019  1.00  0.00    -0.302 OA
BRANCH   4   5
HETATM    5  C3  UNL     1      13.392  -1.043  22.660  1.00  0.00     0.317 C 
HETATM    6  O2  UNL     1      13.905  -1.233  23.795  1.00  0.00    -0.257 OA
BRANCH   5   7
HETATM    7  C4  UNL     1      12.555  -2.014  22.007  1.00  0.00     0.144 C 
HETATM    8  C5  UNL     1      13.062  -3.063  21.418  1.00  0.00     0.081 C 
BRANCH   7   9
HETATM    9  O3  UNL     1      11.165  -1.785  22.025  1.00  0.00    -0.355 OA
ATOM     10  H3  UNL     1      10.774  -1.417  21.242  1.00  0.00     0.218 HD
ENDBRANCH   7   9
BRANCH   8  11
HETATM   11  C6  UNL     1      12.131  -4.012  20.776  1.00  0.00     0.101 A 
HETATM   12  C7  UNL     1      12.015  -4.065  19.407  1.00  0.00     0.159 A 
HETATM   13  N2  UNL     1      11.093  -5.027  19.128  1.00  0.00    -0.212 N 
HETATM   14  C13 UNL     1      10.678  -5.522  20.288  1.00  0.00     0.391 A 
HETATM   15  O4  UNL     1       9.812  -6.445  20.498  1.00  0.00    -0.236 OA
HETATM   16  O5  UNL     1      11.328  -4.882  21.262  1.00  0.00    -0.258 OA
BRANCH  13  17
HETATM   17  N3  UNL     1      10.672  -5.339  17.850  1.00  0.00    -0.321 N 
ATOM     18  H3  UNL     1      10.969  -6.225  17.443  1.00  0.00     0.181 HD
BRANCH  17  19
HETATM   19  C8  UNL     1       9.841  -4.477  17.077  1.00  0.00     0.100 C 
HETATM   20  C9  UNL     1       8.711  -5.202  16.390  1.00  0.00     0.026 C 
HETATM   21  C10 UNL     1       8.576  -4.577  14.998  1.00  0.00     0.002 C 
HETATM   22  C11 UNL     1       9.474  -3.335  15.061  1.00  0.00     0.002 C 
HETATM   23  C12 UNL     1      10.626  -3.918  15.882  1.00  0.00     0.026 C 
ENDBRANCH  17  19
ENDBRANCH  13  17
ENDBRANCH   8  11
ENDBRANCH   5   7
ENDBRANCH   4   5
ENDBRANCH   3   4
TORSDOF 7
ENDMDL
MODEL 4
REMARK VINA RESULT: -7.509745635      2.568      3.016
REMARK  7 active torsions:
REMARK  status: ('A' for Active; 'I' for Inactive)
REMARK    1  A    between atoms: C2_3  and  O1_4 
REMARK    2  A    between atoms: O1_4  and  C3_5 
REMARK    3  A    between atoms: C3_5  and  C4_7 
REMARK    4  A    between atoms: C4_7  and  O3_8 
REMARK    5  A    between atoms: C5_10  and  C6_11 
REMARK    6  A    between atoms: N2_13  and  N3_14 
REMARK    7  A    between atoms: N3_14  and  C8_16 
ROOT
HETATM    1  N1  UNL     1      13.399  -1.721  25.822  1.00  0.00    -0.195 NA
HETATM    2  C1  UNL     1      13.816  -1.010  24.992  1.00  0.00     0.085 C 
HETATM    3  C2  UNL     1      14.309  -0.113  23.968  1.00  0.00     0.302 C 
ENDROOT
BRANCH   3   4
HETATM    4  O1  UNL     1      14.358  -0.802  22.724  1.00  0.00    -0.302 OA
BRANCH   4   5
HETATM    5  C3  UNL     1      13.557  -0.330  21.679  1.00  0.00     0.317 C 
HETATM    6  O2  UNL     1      13.394   0.915  21.579  1.00  0.00    -0.257 OA
BRANCH   5   7
HETATM    7  C4  UNL     1      12.959  -1.274  20.772  1.00  0.00     0.144 C 
HETATM    8  C5  UNL     1      11.904  -0.965  20.067  1.00  0.00     0.081 C 
BRANCH   7   9
HETATM    9  O3  UNL     1      13.556  -2.546  20.677  1.00  0.00    -0.355 OA
ATOM     10  H3  UNL     1      13.228  -3.225  21.255  1.00  0.00     0.218 HD
ENDBRANCH   7   9
BRANCH   8  11
HETATM   11  C6  UNL     1      11.358  -1.991  19.157  1.00  0.00     0.101 A 
HETATM   12  C7  UNL     1      11.177  -1.721  17.821  1.00  0.00     0.159 A 
HETATM   13  N2  UNL     1      10.668  -2.851  17.258  1.00  0.00    -0.212 N 
HETATM   14  C13 UNL     1      10.551  -3.754  18.224  1.00  0.00     0.391 A 
HETATM   15  O4  UNL     1      10.112  -4.957  18.144  1.00  0.00    -0.236 OA
HETATM   16  O5  UNL     1      10.978  -3.197  19.359  1.00  0.00    -0.258 OA
BRANCH  13  17
HETATM   17  N3  UNL     1      10.310  -2.951  15.928  1.00  0.00    -0.321 N 
ATOM     18  H3  UNL     1      11.044  -3.086  15.234  1.00  0.00     0.181 HD
BRANCH  17  19
HETATM   19  C8  UNL     1       8.957  -2.872  15.483  1.00  0.00     0.100 C 
HETATM   20  C9  UNL     1       8.338  -4.223  15.226  1.00  0.00     0.026 C 
HETATM   21  C10 UNL     1       7.485  -4.077  13.963  1.00  0.00     0.002 C 
HETATM   22  C11 UNL     1       7.451  -2.564  13.711  1.00  0.00     0.002 C 
HETATM   23  C12 UNL     1       8.896  -2.229  14.090  1.00  0.00     0.026 C 
ENDBRANCH  17  19
ENDBRANCH  13  17
ENDBRANCH   8  11
ENDBRANCH   5   7
ENDBRANCH   4   5
ENDBRANCH   3   4
TORSDOF 7
ENDMDL
MODEL 5
REMARK VINA RESULT: -7.408980481      2.995      3.639
REMARK  7 active torsions:
REMARK  status: ('A' for Active; 'I' for Inactive)
REMARK    1  A    between atoms: C2_3  and  O1_4 
REMARK    2  A    between atoms: O1_4  and  C3_5 
REMARK    3  A    between atoms: C3_5  and  C4_7 
REMARK    4  A    between atoms: C4_7  and  O3_8 
REMARK    5  A    between atoms: C5_10  and  C6_11 
REMARK    6  A    between atoms: N2_13  and  N3_14 
REMARK    7  A    between atoms: N3_14  and  C8_16 
ROOT
HETATM    1  N1  UNL     1      16.125  -0.948  20.061  1.00  0.00    -0.195 NA
HETATM    2  C1  UNL     1      15.527  -0.303  20.831  1.00  0.00     0.085 C 
HETATM    3  C2  UNL     1      14.794   0.478  21.805  1.00  0.00     0.302 C 
ENDROOT
BRANCH   3   4
HETATM    4  O1  UNL     1      13.418   0.509  21.443  1.00  0.00    -0.302 OA
BRANCH   4   5
HETATM    5  C3  UNL     1      12.687  -0.680  21.532  1.00  0.00     0.317 C 
HETATM    6  O2  UNL     1      12.865  -1.405  22.548  1.00  0.00    -0.257 OA
BRANCH   5   7
HETATM    7  C4  UNL     1      11.774  -1.024  20.475  1.00  0.00     0.144 C 
HETATM    8  C5  UNL     1      11.825  -0.433  19.312  1.00  0.00     0.081 C 
BRANCH   7   9
HETATM    9  O3  UNL     1      10.819  -2.023  20.746  1.00  0.00    -0.355 OA
ATOM     10  H3  UNL     1       9.949  -1.738  21.000  1.00  0.00     0.218 HD
ENDBRANCH   7   9
BRANCH   8  11
HETATM   11  C6  UNL     1      10.855  -0.851  18.282  1.00  0.00     0.101 A 
HETATM   12  C7  UNL     1      11.062  -1.991  17.542  1.00  0.00     0.159 A 
HETATM   13  N2  UNL     1      10.005  -2.104  16.690  1.00  0.00    -0.212 N 
HETATM   14  C13 UNL     1       9.205  -1.070  16.918  1.00  0.00     0.391 A 
HETATM   15  O4  UNL     1       8.096  -0.776  16.342  1.00  0.00    -0.236 OA
HETATM   16  O5  UNL     1       9.752  -0.333  17.887  1.00  0.00    -0.258 OA
BRANCH  13  17
HETATM   17  N3  UNL     1       9.882  -3.108  15.750  1.00  0.00    -0.321 N 
ATOM     18  H3  UNL     1      10.569  -3.158  14.999  1.00  0.00     0.181 HD
BRANCH  17  19
HETATM   19  C8  UNL     1       8.837  -4.076  15.784  1.00  0.00     0.100 C 
HETATM   20  C9  UNL     1       9.343  -5.497  15.757  1.00  0.00     0.026 C 
HETATM   21  C10 UNL     1       8.389  -6.282  14.853  1.00  0.00     0.002 C 
HETATM   22  C11 UNL     1       7.221  -5.315  14.617  1.00  0.00     0.002 C 
HETATM   23  C12 UNL     1       8.015  -4.013  14.488  1.00  0.00     0.026 C 
ENDBRANCH  17  19
ENDBRANCH  13  17
ENDBRANCH   8  11
ENDBRANCH   5   7
ENDBRANCH   4   5
ENDBRANCH   3   4
TORSDOF 7
ENDMDL
