MODEL 1
REMARK VINA RESULT: -6.791755502      0.000      0.000
REMARK  6 active torsions:
REMARK  status: ('A' for Active; 'I' for Inactive)
REMARK    1  A    between atoms: C1_2  and  C2_4 
REMARK    2  A    between atoms: C2_4  and  C3_5 
REMARK    3  A    between atoms: C3_5  and  C4_6 
REMARK    4  A    between atoms: C4_6  and  N1_7 
REMARK    5  A    between atoms: C5_8  and  O3_9 
REMARK    6  A    between atoms: N2_14  and  N3_16 
ROOT
HETATM    1  N1  UNL     1      10.050  -2.853  16.724  1.00  0.00    -0.306 N 
HETATM    2  C5  UNL     1       9.069  -2.471  15.928  1.00  0.00     0.150 A 
HETATM    3  C6  UNL     1       8.576  -1.201  16.119  1.00  0.00     0.109 A 
HETATM    4  S1  UNL     1       9.524  -0.626  17.410  1.00  0.00    -0.060 SA
HETATM    5  C7  UNL     1      10.493  -2.003  17.646  1.00  0.00     0.167 A 
HETATM    6  N2  UNL     1      11.464  -2.208  18.518  1.00  0.00    -0.278 N 
ATOM      7  H2  UNL     1      11.984  -3.084  18.561  1.00  0.00     0.189 HD
ENDROOT
BRANCH   1   8
HETATM    8  C4  UNL     1      10.636  -4.219  16.576  1.00  0.00     0.134 C 
BRANCH   8   9
HETATM    9  C3  UNL     1      10.001  -5.203  17.483  1.00  0.00     0.031 C 
BRANCH   9  10
HETATM   10  C2  UNL     1      10.891  -5.798  18.540  1.00  0.00     0.114 C 
BRANCH  10  11
HETATM   11  C1  UNL     1      10.389  -5.442  19.914  1.00  0.00     0.172 C 
HETATM   12  O1  UNL     1       9.987  -6.346  20.696  1.00  0.00    -0.648 OA
HETATM   13  O2  UNL     1      10.378  -4.114  20.292  1.00  0.00    -0.648 OA
ENDBRANCH  10  11
ENDBRANCH   9  10
ENDBRANCH   8   9
ENDBRANCH   1   8
BRANCH   6  14
HETATM   14  N3  UNL     1      11.724  -1.148  19.372  1.00  0.00    -0.282 N 
HETATM   15  C8  UNL     1      12.618  -1.173  20.311  1.00  0.00     0.132 C 
HETATM   16  C9  UNL     1      12.967  -0.102  21.270  1.00  0.00     0.087 C 
HETATM   17  O4  UNL     1      13.420  -2.278  20.555  1.00  0.00    -0.338 OA
HETATM   18  C10 UNL     1      13.741  -0.871  22.338  1.00  0.00     0.035 C 
HETATM   19  C11 UNL     1      14.411  -1.949  21.515  1.00  0.00     0.177 C 
ATOM     20  H3  UNL     1      11.179  -0.293  19.254  1.00  0.00     0.189 HD
ENDBRANCH   6  14
BRANCH   2  21
HETATM   21  O3  UNL     1       8.473  -3.254  14.888  1.00  0.00    -0.346 OA
ATOM     22  H3  UNL     1       7.966  -4.049  15.008  1.00  0.00     0.219 HD
ENDBRANCH   2  21
TORSDOF 6
ENDMDL
MODEL 2
REMARK VINA RESULT: -6.779458841      2.050      3.773
REMARK  6 active torsions:
REMARK  status: ('A' for Active; 'I' for Inactive)
REMARK    1  A    between atoms: C1_2  and  C2_4 
REMARK    2  A    between atoms: C2_4  and  C3_5 
REMARK    3  A    between atoms: C3_5  and  C4_6 
REMARK    4  A    between atoms: C4_6  and  N1_7 
REMARK    5  A    between atoms: C5_8  and  O3_9 
REMARK    6  A    between atoms: N2_14  and  N3_16 
ROOT
HETATM    1  N1  UNL     1       9.223  -2.484  17.362  1.00  0.00    -0.306 N 
HETATM    2  C5  UNL     1       8.607  -1.355  17.068  1.00  0.00     0.150 A 
HETATM    3  C6  UNL     1       9.192  -0.194  17.517  1.00  0.00     0.109 A 
HETATM    4  S1  UNL     1      10.574  -0.767  18.327  1.00  0.00    -0.060 SA
HETATM    5  C7  UNL     1      10.353  -2.431  18.062  1.00  0.00     0.167 A 
HETATM    6  N2  UNL     1      11.105  -3.449  18.440  1.00  0.00    -0.278 N 
ATOM      7  H2  UNL     1      10.870  -4.416  18.214  1.00  0.00     0.189 HD
ENDROOT
BRANCH   1   8
HETATM    8  C4  UNL     1       8.647  -3.785  16.908  1.00  0.00     0.134 C 
BRANCH   8   9
HETATM    9  C3  UNL     1       9.081  -4.143  15.537  1.00  0.00     0.031 C 
BRANCH   9  10
HETATM   10  C2  UNL     1       7.983  -4.356  14.532  1.00  0.00     0.114 C 
BRANCH  10  11
HETATM   11  C1  UNL     1       7.553  -3.044  13.933  1.00  0.00     0.172 C 
HETATM   12  O1  UNL     1       8.416  -2.199  13.571  1.00  0.00    -0.648 OA
HETATM   13  O2  UNL     1       6.203  -2.789  13.792  1.00  0.00    -0.648 OA
ENDBRANCH  10  11
ENDBRANCH   9  10
ENDBRANCH   8   9
ENDBRANCH   1   8
BRANCH   6  14
HETATM   14  N3  UNL     1      12.236  -3.111  19.166  1.00  0.00    -0.282 N 
HETATM   15  C8  UNL     1      12.250  -2.933  20.451  1.00  0.00     0.132 C 
HETATM   16  C9  UNL     1      13.397  -2.570  21.311  1.00  0.00     0.087 C 
HETATM   17  O4  UNL     1      11.118  -3.072  21.240  1.00  0.00    -0.338 OA
HETATM   18  C10 UNL     1      12.702  -2.106  22.589  1.00  0.00     0.035 C 
HETATM   19  C11 UNL     1      11.475  -2.992  22.610  1.00  0.00     0.177 C 
ATOM     20  H3  UNL     1      13.113  -2.995  18.658  1.00  0.00     0.189 HD
ENDBRANCH   6  14
BRANCH   2  21
HETATM   21  O3  UNL     1       7.387  -1.229  16.327  1.00  0.00    -0.346 OA
ATOM     22  H3  UNL     1       6.604  -1.753  16.447  1.00  0.00     0.219 HD
ENDBRANCH   2  21
TORSDOF 6
ENDMDL
MODEL 3
REMARK VINA RESULT: -6.712308530      2.209      6.532
REMARK  6 active torsions:
REMARK  status: ('A' for Active; 'I' for Inactive)
REMARK    1  A    between atoms: C1_2  and  C2_4 
REMARK    2  A    between atoms: C2_4  and  C3_5 
REMARK    3  A    between atoms: C3_5  and  C4_6 
REMARK    4  A    between atoms: C4_6  and  N1_7 
REMARK    5  A    between atoms: C5_8  and  O3_9 
REMARK    6  A    between atoms: N2_14  and  N3_16 
ROOT
HETATM    1  N1  UNL     1      11.235  -3.103  18.478  1.00  0.00    -0.306 N 
HETATM    2  C5  UNL     1      11.889  -3.972  19.224  1.00  0.00     0.150 A 
HETATM    3  C6  UNL     1      11.388  -5.252  19.270  1.00  0.00     0.109 A 
HETATM    4  S1  UNL     1      10.023  -5.150  18.260  1.00  0.00    -0.060 SA
HETATM    5  C7  UNL     1      10.148  -3.510  17.828  1.00  0.00     0.167 A 
HETATM    6  N2  UNL     1       9.376  -2.789  17.035  1.00  0.00    -0.278 N 
ATOM      7  H2  UNL     1       9.558  -1.803  16.844  1.00  0.00     0.189 HD
ENDROOT
BRANCH   1   8
HETATM    8  C4  UNL     1      11.720  -1.694  18.379  1.00  0.00     0.134 C 
BRANCH   8   9
HETATM    9  C3  UNL     1      11.066  -0.805  19.368  1.00  0.00     0.031 C 
BRANCH   9  10
HETATM   10  C2  UNL     1      11.551  -0.925  20.787  1.00  0.00     0.114 C 
BRANCH  10  11
HETATM   11  C1  UNL     1      12.906  -0.285  20.938  1.00  0.00     0.172 C 
HETATM   12  O1  UNL     1      13.000   0.940  21.222  1.00  0.00    -0.648 OA
HETATM   13  O2  UNL     1      14.031  -1.065  20.758  1.00  0.00    -0.648 OA
ENDBRANCH  10  11
ENDBRANCH   9  10
ENDBRANCH   8   9
ENDBRANCH   1   8
BRANCH   6  14
HETATM   14  N3  UNL     1       8.301  -3.466  16.482  1.00  0.00    -0.282 N 
HETATM   15  C8  UNL     1       7.839  -3.247  15.290  1.00  0.00     0.132 C 
HETATM   16  C9  UNL     1       6.702  -3.909  14.614  1.00  0.00     0.087 C 
HETATM   17  O4  UNL     1       8.388  -2.304  14.433  1.00  0.00    -0.338 OA
HETATM   18  C10 UNL     1       6.410  -2.947  13.465  1.00  0.00     0.035 C 
HETATM   19  C11 UNL     1       7.792  -2.415  13.151  1.00  0.00     0.177 C 
ATOM     20  H3  UNL     1       7.844  -4.181  17.048  1.00  0.00     0.189 HD
ENDBRANCH   6  14
BRANCH   2  21
HETATM   21  O3  UNL     1      13.071  -3.705  19.989  1.00  0.00    -0.346 OA
ATOM     22  H3  UNL     1      13.678  -2.989  19.846  1.00  0.00     0.219 HD
ENDBRANCH   2  21
TORSDOF 6
ENDMDL
MODEL 4
REMARK VINA RESULT: -6.656078595      2.340      6.353
REMARK  6 active torsions:
REMARK  status: ('A' for Active; 'I' for Inactive)
REMARK    1  A    between atoms: C1_2  and  C2_4 
REMARK    2  A    between atoms: C2_4  and  C3_5 
REMARK    3  A    between atoms: C3_5  and  C4_6 
REMARK    4  A    between atoms: C4_6  and  N1_7 
REMARK    5  A    between atoms: C5_8  and  O3_9 
REMARK    6  A    between atoms: N2_14  and  N3_16 
ROOT
HETATM    1  N1  UNL     1      11.609  -2.133  20.688  1.00  0.00    -0.306 N 
HETATM    2  C5  UNL     1      11.825  -3.038  21.623  1.00  0.00     0.150 A 
HETATM    3  C6  UNL     1      11.932  -4.345  21.207  1.00  0.00     0.109 A 
HETATM    4  S1  UNL     1      11.720  -4.215  19.524  1.00  0.00    -0.060 SA
HETATM    5  C7  UNL     1      11.509  -2.531  19.423  1.00  0.00     0.167 A 
HETATM    6  N2  UNL     1      11.303  -1.773  18.362  1.00  0.00    -0.278 N 
ATOM      7  H2  UNL     1      11.197  -0.760  18.426  1.00  0.00     0.189 HD
ENDROOT
BRANCH   1   8
HETATM    8  C4  UNL     1      11.481  -0.693  21.064  1.00  0.00     0.134 C 
BRANCH   8   9
HETATM    9  C3  UNL     1      12.733   0.062  20.824  1.00  0.00     0.031 C 
BRANCH   9  10
HETATM   10  C2  UNL     1      13.823  -0.125  21.843  1.00  0.00     0.114 C 
BRANCH  10  11
HETATM   11  C1  UNL     1      15.044  -0.733  21.204  1.00  0.00     0.172 C 
HETATM   12  O1  UNL     1      16.075  -0.033  21.015  1.00  0.00    -0.648 OA
HETATM   13  O2  UNL     1      15.005  -2.062  20.833  1.00  0.00    -0.648 OA
ENDBRANCH  10  11
ENDBRANCH   9  10
ENDBRANCH   8   9
ENDBRANCH   1   8
BRANCH   6  14
HETATM   14  N3  UNL     1      11.241  -2.450  17.154  1.00  0.00    -0.282 N 
HETATM   15  C8  UNL     1      10.137  -2.816  16.581  1.00  0.00     0.132 C 
HETATM   16  C9  UNL     1       9.966  -3.540  15.303  1.00  0.00     0.087 C 
HETATM   17  O4  UNL     1       8.887  -2.556  17.124  1.00  0.00    -0.338 OA
HETATM   18  C10 UNL     1       8.523  -4.030  15.404  1.00  0.00     0.035 C 
HETATM   19  C11 UNL     1       7.876  -2.914  16.196  1.00  0.00     0.177 C 
ATOM     20  H3  UNL     1      12.120  -2.674  16.686  1.00  0.00     0.189 HD
ENDBRANCH   6  14
BRANCH   2  21
HETATM   21  O3  UNL     1      11.957  -2.786  23.027  1.00  0.00    -0.346 OA
ATOM     22  H3  UNL     1      12.771  -2.654  23.496  1.00  0.00     0.219 HD
ENDBRANCH   2  21
TORSDOF 6
ENDMDL
MODEL 5
REMARK VINA RESULT: -6.605013348      2.743      5.779
REMARK  6 active torsions:
REMARK  status: ('A' for Active; 'I' for Inactive)
REMARK    1  A    between atoms: C1_2  and  C2_4 
REMARK    2  A    between atoms: C2_4  and  C3_5 
REMARK    3  A    between atoms: C3_5  and  C4_6 
REMARK    4  A    between atoms: C4_6  and  N1_7 
REMARK    5  A    between atoms: C5_8  and  O3_9 
REMARK    6  A    between atoms: N2_14  and  N3_16 
ROOT
HETATM    1  N1  UNL     1      10.702  -5.228  18.683  1.00  0.00    -0.306 N 
HETATM    2  C5  UNL     1      10.742  -4.782  19.924  1.00  0.00     0.150 A 
HETATM    3  C6  UNL     1      10.601  -3.425  20.100  1.00  0.00     0.109 A 
HETATM    4  S1  UNL     1      10.422  -2.862  18.505  1.00  0.00    -0.060 SA
HETATM    5  C7  UNL     1      10.531  -4.353  17.696  1.00  0.00     0.167 A 
HETATM    6  N2  UNL     1      10.460  -4.614  16.403  1.00  0.00    -0.278 N 
ATOM      7  H2  UNL     1      10.533  -5.562  16.032  1.00  0.00     0.189 HD
ENDROOT
BRANCH   1   8
HETATM    8  C4  UNL     1      10.848  -6.689  18.413  1.00  0.00     0.134 C 
BRANCH   8   9
HETATM    9  C3  UNL     1       9.546  -7.397  18.439  1.00  0.00     0.031 C 
BRANCH   9  10
HETATM   10  C2  UNL     1       9.534  -8.731  19.133  1.00  0.00     0.114 C 
BRANCH  10  11
HETATM   11  C1  UNL     1       9.170  -8.568  20.585  1.00  0.00     0.172 C 
HETATM   12  O1  UNL     1      10.075  -8.449  21.455  1.00  0.00    -0.648 OA
HETATM   13  O2  UNL     1       7.835  -8.554  20.936  1.00  0.00    -0.648 OA
ENDBRANCH  10  11
ENDBRANCH   9  10
ENDBRANCH   8   9
ENDBRANCH   1   8
BRANCH   6  14
HETATM   14  N3  UNL     1      10.278  -3.510  15.586  1.00  0.00    -0.282 N 
HETATM   15  C8  UNL     1       9.178  -3.249  14.949  1.00  0.00     0.132 C 
HETATM   16  C9  UNL     1       8.888  -2.106  14.056  1.00  0.00     0.087 C 
HETATM   17  O4  UNL     1       8.054  -4.057  15.029  1.00  0.00    -0.338 OA
HETATM   18  C10 UNL     1       7.642  -2.588  13.317  1.00  0.00     0.035 C 
HETATM   19  C11 UNL     1       6.963  -3.430  14.375  1.00  0.00     0.177 C 
ATOM     20  H3  UNL     1      11.058  -2.861  15.478  1.00  0.00     0.189 HD
ENDBRANCH   6  14
BRANCH   2  21
HETATM   21  O3  UNL     1      10.919  -5.579  21.101  1.00  0.00    -0.346 OA
ATOM     22  H3  UNL     1      11.434  -5.343  21.863  1.00  0.00     0.219 HD
ENDBRANCH   2  21
TORSDOF 6
ENDMDL
