MODEL 1
REMARK VINA RESULT: -5.757937439      0.000      0.000
REMARK  9 active torsions:
REMARK  status: ('A' for Active; 'I' for Inactive)
REMARK    1  A    between atoms: N1_2  and  C2_4 
REMARK    2  A    between atoms: C2_4  and  C3_5 
REMARK    3  A    between atoms: C3_5  and  O1_6 
REMARK    4  A    between atoms: C3_5  and  C4_8 
REMARK    5  A    between atoms: C4_8  and  N2_9 
REMARK    6  A    between atoms: C5_10  and  C6_11 
REMARK    7  A    between atoms: C10_15  and  C11_16 
REMARK    8  A    between atoms: C11_16  and  O2_17 
REMARK    9  A    between atoms: C11_16  and  N3_19 
ROOT
HETATM    1  N2  UNL     1      29.857  40.968  16.588  1.00  0.00    -0.299 N 
HETATM    2  C5  UNL     1      29.416  41.506  17.756  1.00  0.00     0.040 A 
HETATM    3  C10 UNL     1      30.355  41.512  18.817  1.00  0.00     0.092 A 
HETATM    4  C16 UNL     1      31.639  40.985  18.659  1.00  0.00     0.262 A 
HETATM    5  O3  UNL     1      32.486  40.971  19.583  1.00  0.00    -0.267 OA
HETATM    6  N4  UNL     1      32.019  40.468  17.503  1.00  0.00    -0.275 N 
ATOM      7  H4  UNL     1      32.955  40.083  17.383  1.00  0.00     0.173 HD
HETATM    8  C17 UNL     1      31.145  40.465  16.502  1.00  0.00     0.329 A 
HETATM    9  O4  UNL     1      31.521  39.965  15.396  1.00  0.00    -0.246 OA
ENDROOT
BRANCH   1  10
HETATM   10  C4  UNL     1      29.076  40.983  15.404  1.00  0.00     0.170 C 
BRANCH  10  11
HETATM   11  C3  UNL     1      28.189  39.760  15.225  1.00  0.00     0.174 C 
BRANCH  11  12
HETATM   12  C2  UNL     1      28.738  38.712  14.306  1.00  0.00     0.088 C 
BRANCH  12  13
HETATM   13  N1  UNL     1      29.567  37.710  14.803  1.00  0.00    -0.404 N 
HETATM   14  C1  UNL     1      29.820  36.528  14.054  1.00  0.00     0.145 C 
ATOM     15  H1  UNL     1      30.001  37.825  15.718  1.00  0.00     0.158 HD
ENDBRANCH  12  13
ENDBRANCH  11  12
BRANCH  11  16
HETATM   16  O1  UNL     1      26.908  40.174  14.876  1.00  0.00    -0.389 OA
ATOM     17  H1  UNL     1      26.630  40.956  15.339  1.00  0.00     0.210 HD
ENDBRANCH  11  16
ENDBRANCH  10  11
ENDBRANCH   1  10
BRANCH   2  18
HETATM   18  C6  UNL     1      28.104  41.991  17.969  1.00  0.00    -0.008 C 
HETATM   19  C7  UNL     1      27.892  43.115  16.899  1.00  0.00     0.021 C 
HETATM   20  C8  UNL     1      27.887  42.963  19.183  1.00  0.00     0.021 C 
HETATM   21  C9  UNL     1      26.891  41.147  18.106  1.00  0.00     0.021 C 
ENDBRANCH   2  18
BRANCH   3  22
HETATM   22  C11 UNL     1      30.141  42.090  20.120  1.00  0.00     0.398 C 
BRANCH  22  23
HETATM   23  O2  UNL     1      31.142  42.986  20.454  1.00  0.00    -0.364 OA
ATOM     24  H2  UNL     1      31.200  43.697  19.827  1.00  0.00     0.212 HD
ENDBRANCH  22  23
BRANCH  22  25
HETATM   25  N3  UNL     1      30.266  41.076  21.188  1.00  0.00     0.121 N 
HETATM   26  C12 UNL     1      30.184  41.647  22.504  1.00  0.00     0.276 C 
HETATM   27  C13 UNL     1      29.884  40.474  23.430  1.00  0.00     0.032 C 
HETATM   28  C14 UNL     1      29.261  39.467  22.517  1.00  0.00     0.032 C 
HETATM   29  C15 UNL     1      29.129  40.174  21.215  1.00  0.00     0.276 C 
ENDBRANCH  22  25
ENDBRANCH   3  22
TORSDOF 9
ENDMDL
MODEL 2
REMARK VINA RESULT: -5.724752591      1.559      2.294
REMARK  9 active torsions:
REMARK  status: ('A' for Active; 'I' for Inactive)
REMARK    1  A    between atoms: N1_2  and  C2_4 
REMARK    2  A    between atoms: C2_4  and  C3_5 
REMARK    3  A    between atoms: C3_5  and  O1_6 
REMARK    4  A    between atoms: C3_5  and  C4_8 
REMARK    5  A    between atoms: C4_8  and  N2_9 
REMARK    6  A    between atoms: C5_10  and  C6_11 
REMARK    7  A    between atoms: C10_15  and  C11_16 
REMARK    8  A    between atoms: C11_16  and  O2_17 
REMARK    9  A    between atoms: C11_16  and  N3_19 
ROOT
HETATM    1  N2  UNL     1      29.821  40.935  16.634  1.00  0.00    -0.299 N 
HETATM    2  C5  UNL     1      29.408  41.518  17.791  1.00  0.00     0.040 A 
HETATM    3  C10 UNL     1      30.350  41.509  18.849  1.00  0.00     0.092 A 
HETATM    4  C16 UNL     1      31.609  40.923  18.700  1.00  0.00     0.262 A 
HETATM    5  O3  UNL     1      32.458  40.894  19.622  1.00  0.00    -0.267 OA
HETATM    6  N4  UNL     1      31.962  40.363  17.555  1.00  0.00    -0.275 N 
ATOM      7  H4  UNL     1      32.880  39.935  17.442  1.00  0.00     0.173 HD
HETATM    8  C17 UNL     1      31.085  40.374  16.558  1.00  0.00     0.329 A 
HETATM    9  O4  UNL     1      31.435  39.832  15.463  1.00  0.00    -0.246 OA
ENDROOT
BRANCH   1  10
HETATM   10  C4  UNL     1      29.037  40.956  15.453  1.00  0.00     0.170 C 
BRANCH  10  11
HETATM   11  C3  UNL     1      29.418  42.053  14.469  1.00  0.00     0.174 C 
BRANCH  11  12
HETATM   12  C2  UNL     1      28.269  42.871  13.962  1.00  0.00     0.088 C 
BRANCH  12  13
HETATM   13  N1  UNL     1      26.964  42.405  14.098  1.00  0.00    -0.404 N 
HETATM   14  C1  UNL     1      25.902  43.285  14.440  1.00  0.00     0.145 C 
ATOM     15  H1  UNL     1      26.767  41.415  13.949  1.00  0.00     0.158 HD
ENDBRANCH  12  13
ENDBRANCH  11  12
BRANCH  11  16
HETATM   16  O1  UNL     1      30.187  41.502  13.450  1.00  0.00    -0.389 OA
ATOM     17  H1  UNL     1      30.419  42.131  12.777  1.00  0.00     0.210 HD
ENDBRANCH  11  16
ENDBRANCH  10  11
ENDBRANCH   1  10
BRANCH   2  18
HETATM   18  C6  UNL     1      28.119  42.065  17.996  1.00  0.00    -0.008 C 
HETATM   19  C7  UNL     1      28.209  43.551  17.507  1.00  0.00     0.021 C 
HETATM   20  C8  UNL     1      27.734  42.464  19.465  1.00  0.00     0.021 C 
HETATM   21  C9  UNL     1      26.845  41.438  17.567  1.00  0.00     0.021 C 
ENDBRANCH   2  18
BRANCH   3  22
HETATM   22  C11 UNL     1      30.166  42.126  20.139  1.00  0.00     0.398 C 
BRANCH  22  23
HETATM   23  O2  UNL     1      31.165  43.044  20.414  1.00  0.00    -0.364 OA
ATOM     24  H2  UNL     1      30.814  43.843  20.789  1.00  0.00     0.212 HD
ENDBRANCH  22  23
BRANCH  22  25
HETATM   25  N3  UNL     1      30.335  41.148  21.234  1.00  0.00     0.121 N 
HETATM   26  C12 UNL     1      30.210  41.749  22.534  1.00  0.00     0.276 C 
HETATM   27  C13 UNL     1      29.964  40.586  23.489  1.00  0.00     0.032 C 
HETATM   28  C14 UNL     1      29.404  39.524  22.598  1.00  0.00     0.032 C 
HETATM   29  C15 UNL     1      29.247  40.188  21.277  1.00  0.00     0.276 C 
ENDBRANCH  22  25
ENDBRANCH   3  22
TORSDOF 9
ENDMDL
MODEL 3
REMARK VINA RESULT: -5.681971472      1.581      2.522
REMARK  9 active torsions:
REMARK  status: ('A' for Active; 'I' for Inactive)
REMARK    1  A    between atoms: N1_2  and  C2_4 
REMARK    2  A    between atoms: C2_4  and  C3_5 
REMARK    3  A    between atoms: C3_5  and  O1_6 
REMARK    4  A    between atoms: C3_5  and  C4_8 
REMARK    5  A    between atoms: C4_8  and  N2_9 
REMARK    6  A    between atoms: C5_10  and  C6_11 
REMARK    7  A    between atoms: C10_15  and  C11_16 
REMARK    8  A    between atoms: C11_16  and  O2_17 
REMARK    9  A    between atoms: C11_16  and  N3_19 
ROOT
HETATM    1  N2  UNL     1      29.914  40.999  16.610  1.00  0.00    -0.299 N 
HETATM    2  C5  UNL     1      29.472  41.566  17.764  1.00  0.00     0.040 A 
HETATM    3  C10 UNL     1      30.382  41.531  18.850  1.00  0.00     0.092 A 
HETATM    4  C16 UNL     1      31.641  40.940  18.726  1.00  0.00     0.262 A 
HETATM    5  O3  UNL     1      32.463  40.889  19.672  1.00  0.00    -0.267 OA
HETATM    6  N4  UNL     1      32.024  40.397  17.583  1.00  0.00    -0.275 N 
ATOM      7  H4  UNL     1      32.942  39.964  17.489  1.00  0.00     0.173 HD
HETATM    8  C17 UNL     1      31.176  40.431  16.561  1.00  0.00     0.329 A 
HETATM    9  O4  UNL     1      31.555  39.906  15.467  1.00  0.00    -0.246 OA
ENDROOT
BRANCH   1  10
HETATM   10  C4  UNL     1      29.165  41.046  15.407  1.00  0.00     0.170 C 
BRANCH  10  11
HETATM   11  C3  UNL     1      29.715  42.010  14.366  1.00  0.00     0.174 C 
BRANCH  11  12
HETATM   12  C2  UNL     1      28.800  43.143  14.011  1.00  0.00     0.088 C 
BRANCH  12  13
HETATM   13  N1  UNL     1      29.257  44.456  14.071  1.00  0.00    -0.404 N 
HETATM   14  C1  UNL     1      30.500  44.774  14.683  1.00  0.00     0.145 C 
ATOM     15  H1  UNL     1      28.691  45.203  13.669  1.00  0.00     0.158 HD
ENDBRANCH  12  13
ENDBRANCH  11  12
BRANCH  11  16
HETATM   16  O1  UNL     1      30.142  41.287  13.257  1.00  0.00    -0.389 OA
ATOM     17  H1  UNL     1      30.820  40.654  13.464  1.00  0.00     0.210 HD
ENDBRANCH  11  16
ENDBRANCH  10  11
ENDBRANCH   1  10
BRANCH   2  18
HETATM   18  C6  UNL     1      28.181  42.118  17.942  1.00  0.00    -0.008 C 
HETATM   19  C7  UNL     1      28.297  43.614  17.491  1.00  0.00     0.021 C 
HETATM   20  C8  UNL     1      27.752  42.485  19.407  1.00  0.00     0.021 C 
HETATM   21  C9  UNL     1      26.916  41.511  17.458  1.00  0.00     0.021 C 
ENDBRANCH   2  18
BRANCH   3  22
HETATM   22  C11 UNL     1      30.165  42.128  20.144  1.00  0.00     0.398 C 
BRANCH  22  23
HETATM   23  O2  UNL     1      31.144  43.058  20.450  1.00  0.00    -0.364 OA
ATOM     24  H2  UNL     1      30.773  43.847  20.827  1.00  0.00     0.212 HD
ENDBRANCH  22  23
BRANCH  22  25
HETATM   25  N3  UNL     1      30.330  41.138  21.229  1.00  0.00     0.121 N 
HETATM   26  C12 UNL     1      30.194  41.723  22.534  1.00  0.00     0.276 C 
HETATM   27  C13 UNL     1      29.945  40.548  23.474  1.00  0.00     0.032 C 
HETATM   28  C14 UNL     1      29.395  39.494  22.567  1.00  0.00     0.032 C 
HETATM   29  C15 UNL     1      29.245  40.173  21.253  1.00  0.00     0.276 C 
ENDBRANCH  22  25
ENDBRANCH   3  22
TORSDOF 9
ENDMDL
MODEL 4
REMARK VINA RESULT: -5.489836590      1.640      6.146
REMARK  9 active torsions:
REMARK  status: ('A' for Active; 'I' for Inactive)
REMARK    1  A    between atoms: N1_2  and  C2_4 
REMARK    2  A    between atoms: C2_4  and  C3_5 
REMARK    3  A    between atoms: C3_5  and  O1_6 
REMARK    4  A    between atoms: C3_5  and  C4_8 
REMARK    5  A    between atoms: C4_8  and  N2_9 
REMARK    6  A    between atoms: C5_10  and  C6_11 
REMARK    7  A    between atoms: C10_15  and  C11_16 
REMARK    8  A    between atoms: C11_16  and  O2_17 
REMARK    9  A    between atoms: C11_16  and  N3_19 
ROOT
HETATM    1  N2  UNL     1      30.255  41.599  19.180  1.00  0.00    -0.299 N 
HETATM    2  C5  UNL     1      29.310  41.491  18.209  1.00  0.00     0.040 A 
HETATM    3  C10 UNL     1      29.737  40.873  17.007  1.00  0.00     0.092 A 
HETATM    4  C16 UNL     1      31.049  40.425  16.845  1.00  0.00     0.262 A 
HETATM    5  O3  UNL     1      31.456  39.883  15.790  1.00  0.00    -0.267 OA
HETATM    6  N4  UNL     1      31.935  40.558  17.818  1.00  0.00    -0.275 N 
ATOM      7  H4  UNL     1      32.894  40.231  17.704  1.00  0.00     0.173 HD
HETATM    8  C17 UNL     1      31.538  41.131  18.949  1.00  0.00     0.329 A 
HETATM    9  O4  UNL     1      32.397  41.254  19.877  1.00  0.00    -0.246 OA
ENDROOT
BRANCH   1  10
HETATM   10  C4  UNL     1      29.958  42.096  20.474  1.00  0.00     0.170 C 
BRANCH  10  11
HETATM   11  C3  UNL     1      29.733  41.015  21.522  1.00  0.00     0.174 C 
BRANCH  11  12
HETATM   12  C2  UNL     1      30.462  41.228  22.814  1.00  0.00     0.088 C 
BRANCH  12  13
HETATM   13  N1  UNL     1      31.827  41.506  22.810  1.00  0.00    -0.404 N 
HETATM   14  C1  UNL     1      32.310  42.816  23.075  1.00  0.00     0.145 C 
ATOM     15  H1  UNL     1      32.490  40.757  22.613  1.00  0.00     0.158 HD
ENDBRANCH  12  13
ENDBRANCH  11  12
BRANCH  11  16
HETATM   16  O1  UNL     1      29.983  39.771  20.953  1.00  0.00    -0.389 OA
ATOM     17  H1  UNL     1      30.671  39.792  20.299  1.00  0.00     0.210 HD
ENDBRANCH  11  16
ENDBRANCH  10  11
ENDBRANCH   1  10
BRANCH   2  18
HETATM   18  C6  UNL     1      27.990  41.990  18.317  1.00  0.00    -0.008 C 
HETATM   19  C7  UNL     1      28.045  43.451  17.755  1.00  0.00     0.021 C 
HETATM   20  C8  UNL     1      27.507  42.445  19.740  1.00  0.00     0.021 C 
HETATM   21  C9  UNL     1      26.768  41.285  17.855  1.00  0.00     0.021 C 
ENDBRANCH   2  18
BRANCH   3  22
HETATM   22  C11 UNL     1      28.899  40.585  15.870  1.00  0.00     0.398 C 
BRANCH  22  23
HETATM   23  O2  UNL     1      28.940  39.244  15.531  1.00  0.00    -0.364 OA
ATOM     24  H2  UNL     1      28.070  38.891  15.389  1.00  0.00     0.212 HD
ENDBRANCH  22  23
BRANCH  22  25
HETATM   25  N3  UNL     1      29.414  41.230  14.644  1.00  0.00     0.121 N 
HETATM   26  C12 UNL     1      28.947  40.588  13.446  1.00  0.00     0.276 C 
HETATM   27  C13 UNL     1      29.184  41.602  12.331  1.00  0.00     0.032 C 
HETATM   28  C14 UNL     1      29.219  42.908  13.058  1.00  0.00     0.032 C 
HETATM   29  C15 UNL     1      28.870  42.564  14.462  1.00  0.00     0.276 C 
ENDBRANCH  22  25
ENDBRANCH   3  22
TORSDOF 9
ENDMDL
MODEL 5
REMARK VINA RESULT: -5.489194946      2.677      6.151
REMARK  9 active torsions:
REMARK  status: ('A' for Active; 'I' for Inactive)
REMARK    1  A    between atoms: N1_2  and  C2_4 
REMARK    2  A    between atoms: C2_4  and  C3_5 
REMARK    3  A    between atoms: C3_5  and  O1_6 
REMARK    4  A    between atoms: C3_5  and  C4_8 
REMARK    5  A    between atoms: C4_8  and  N2_9 
REMARK    6  A    between atoms: C5_10  and  C6_11 
REMARK    7  A    between atoms: C10_15  and  C11_16 
REMARK    8  A    between atoms: C11_16  and  O2_17 
REMARK    9  A    between atoms: C11_16  and  N3_19 
ROOT
HETATM    1  N2  UNL     1      30.141  41.182  19.913  1.00  0.00    -0.299 N 
HETATM    2  C5  UNL     1      29.569  41.303  18.685  1.00  0.00     0.040 A 
HETATM    3  C10 UNL     1      28.337  42.003  18.652  1.00  0.00     0.092 A 
HETATM    4  C16 UNL     1      27.758  42.515  19.815  1.00  0.00     0.262 A 
HETATM    5  O3  UNL     1      26.666  43.130  19.815  1.00  0.00    -0.267 OA
HETATM    6  N4  UNL     1      28.351  42.367  20.987  1.00  0.00    -0.275 N 
ATOM      7  H4  UNL     1      27.932  42.740  21.839  1.00  0.00     0.173 HD
HETATM    8  C17 UNL     1      29.509  41.717  21.023  1.00  0.00     0.329 A 
HETATM    9  O4  UNL     1      30.070  41.580  22.156  1.00  0.00    -0.246 OA
ENDROOT
BRANCH   1  10
HETATM   10  C4  UNL     1      31.422  40.604  20.099  1.00  0.00     0.170 C 
BRANCH  10  11
HETATM   11  C3  UNL     1      32.559  41.613  20.176  1.00  0.00     0.174 C 
BRANCH  11  12
HETATM   12  C2  UNL     1      33.640  41.270  21.154  1.00  0.00     0.088 C 
BRANCH  12  13
HETATM   13  N1  UNL     1      34.871  41.918  21.093  1.00  0.00    -0.404 N 
HETATM   14  C1  UNL     1      35.938  41.551  21.958  1.00  0.00     0.145 C 
ATOM     15  H1  UNL     1      35.010  42.669  20.417  1.00  0.00     0.158 HD
ENDBRANCH  12  13
ENDBRANCH  11  12
BRANCH  11  16
HETATM   16  O1  UNL     1      32.027  42.883  20.374  1.00  0.00    -0.389 OA
ATOM     17  H1  UNL     1      31.170  42.994  19.979  1.00  0.00     0.210 HD
ENDBRANCH  11  16
ENDBRANCH  10  11
ENDBRANCH   1  10
BRANCH   2  18
HETATM   18  C6  UNL     1      30.097  40.744  17.497  1.00  0.00    -0.008 C 
HETATM   19  C7  UNL     1      30.700  41.947  16.696  1.00  0.00     0.021 C 
HETATM   20  C8  UNL     1      29.076  40.368  16.365  1.00  0.00     0.021 C 
HETATM   21  C9  UNL     1      30.987  39.558  17.432  1.00  0.00     0.021 C 
ENDBRANCH   2  18
BRANCH   3  22
HETATM   22  C11 UNL     1      27.585  42.316  17.463  1.00  0.00     0.398 C 
BRANCH  22  23
HETATM   23  O2  UNL     1      27.642  43.666  17.162  1.00  0.00    -0.364 OA
ATOM     24  H2  UNL     1      28.517  44.015  17.277  1.00  0.00     0.212 HD
ENDBRANCH  22  23
BRANCH  22  25
HETATM   25  N3  UNL     1      26.136  42.107  17.671  1.00  0.00     0.121 N 
HETATM   26  C12 UNL     1      25.331  42.913  16.795  1.00  0.00     0.276 C 
HETATM   27  C13 UNL     1      23.949  42.270  16.818  1.00  0.00     0.032 C 
HETATM   28  C14 UNL     1      24.233  40.861  17.231  1.00  0.00     0.032 C 
HETATM   29  C15 UNL     1      25.717  40.775  17.270  1.00  0.00     0.276 C 
ENDBRANCH  22  25
ENDBRANCH   3  22
TORSDOF 9
ENDMDL
