MODEL 1
REMARK VINA RESULT: -7.715779454      0.000      0.000
REMARK  8 active torsions:
REMARK  status: ('A' for Active; 'I' for Inactive)
REMARK    1  A    between atoms: C2_2  and  C3_3 
REMARK    2  A    between atoms: C3_3  and  O1_4 
REMARK    3  A    between atoms: O1_4  and  C4_5 
REMARK    4  A    between atoms: C5_8  and  N2_9 
REMARK    5  A    between atoms: C7_16  and  N4_17 
REMARK       I    between atoms: N4_17  and  C8_19 
REMARK    6  A    between atoms: C8_19  and  C9_21 
REMARK    7  A    between atoms: C9_21  and  O4_22 
REMARK    8  A    between atoms: O4_22  and  C10_23 
ROOT
HETATM    1  C10 UNL     1       7.419   4.856   7.048  1.00  0.00     0.069 A 
HETATM    2  C11 UNL     1       7.221   5.526   5.831  1.00  0.00     0.038 A 
HETATM    3  C12 UNL     1       6.555   4.972   4.766  1.00  0.00     0.025 A 
HETATM    4  C13 UNL     1       6.060   3.691   4.911  1.00  0.00     0.044 A 
HETATM    5  C14 UNL     1       5.357   3.096   3.796  1.00  0.00     0.099 C 
HETATM    6  N5  UNL     1       4.790   2.603   2.907  1.00  0.00    -0.191 NA
HETATM    7  C15 UNL     1       6.241   3.013   6.094  1.00  0.00     0.025 A 
HETATM    8  C16 UNL     1       6.921   3.591   7.168  1.00  0.00     0.038 A 
ENDROOT
BRANCH   1   9
HETATM    9  O4  UNL     1       8.098   5.541   8.010  1.00  0.00    -0.342 OA
BRANCH   9  10
HETATM   10  C9  UNL     1       7.732   6.641   8.756  1.00  0.00     0.278 C 
BRANCH  10  11
HETATM   11  C8  UNL     1       6.319   6.645   9.197  1.00  0.00     0.246 C 
HETATM   12  N4  UNL     1       5.905   5.836  10.280  1.00  0.00    -0.317 N 
ATOM     13  H4  UNL     1       6.599   5.253  10.749  1.00  0.00     0.169 HD
HETATM   14  O3  UNL     1       5.478   7.367   8.613  1.00  0.00    -0.271 OA
BRANCH  12  15
HETATM   15  C7  UNL     1       4.578   5.803  10.734  1.00  0.00     0.156 A 
HETATM   16  C4  UNL     1       3.649   4.913  10.249  1.00  0.00     0.190 A 
HETATM   17  N1  UNL     1       2.374   4.943  10.739  1.00  0.00    -0.168 N 
HETATM   18  C5  UNL     1       2.045   5.835  11.683  1.00  0.00     0.680 A 
ATOM     19  H1  UNL     1       1.676   4.288  10.388  1.00  0.00     0.186 HD
HETATM   20  N3  UNL     1       2.941   6.716  12.172  1.00  0.00    -0.154 N 
HETATM   21  C6  UNL     1       4.188   6.710  11.713  1.00  0.00     0.290 A 
ATOM     22  H3  UNL     1       2.663   7.385  12.891  1.00  0.00     0.187 HD
HETATM   23  O2  UNL     1       5.029   7.537  12.173  1.00  0.00    -0.265 OA
BRANCH  16  24
HETATM   24  O1  UNL     1       3.992   3.995   9.276  1.00  0.00    -0.330 OA
BRANCH  24  25
HETATM   25  C3  UNL     1       3.227   3.844   8.098  1.00  0.00     0.204 C 
BRANCH  25  26
HETATM   26  C2  UNL     1       3.373   5.113   7.338  1.00  0.00    -0.011 C 
HETATM   27  C1  UNL     1       2.877   5.234   6.123  1.00  0.00     0.009 C 
ENDBRANCH  25  26
ENDBRANCH  24  25
ENDBRANCH  16  24
BRANCH  18  28
HETATM   28  N2  UNL     1       0.842   5.881  12.162  1.00  0.00    -0.234 N 
ATOM     29  H22 UNL     1       0.531   5.087  12.723  1.00  0.00     0.174 HD
ATOM     30  H21 UNL     1       0.238   6.682  11.982  1.00  0.00     0.174 HD
ENDBRANCH  18  28
ENDBRANCH  12  15
ENDBRANCH  10  11
ENDBRANCH   9  10
ENDBRANCH   1   9
TORSDOF 8
ENDMDL
MODEL 2
REMARK VINA RESULT: -7.529537741      1.366      1.684
REMARK  8 active torsions:
REMARK  status: ('A' for Active; 'I' for Inactive)
REMARK    1  A    between atoms: C2_2  and  C3_3 
REMARK    2  A    between atoms: C3_3  and  O1_4 
REMARK    3  A    between atoms: O1_4  and  C4_5 
REMARK    4  A    between atoms: C5_8  and  N2_9 
REMARK    5  A    between atoms: C7_16  and  N4_17 
REMARK       I    between atoms: N4_17  and  C8_19 
REMARK    6  A    between atoms: C8_19  and  C9_21 
REMARK    7  A    between atoms: C9_21  and  O4_22 
REMARK    8  A    between atoms: O4_22  and  C10_23 
ROOT
HETATM    1  C10 UNL     1       6.694   5.838   6.107  1.00  0.00     0.069 A 
HETATM    2  C11 UNL     1       7.215   4.605   6.526  1.00  0.00     0.038 A 
HETATM    3  C12 UNL     1       7.142   3.460   5.771  1.00  0.00     0.025 A 
HETATM    4  C13 UNL     1       6.521   3.540   4.540  1.00  0.00     0.044 A 
HETATM    5  C14 UNL     1       6.436   2.342   3.735  1.00  0.00     0.099 C 
HETATM    6  N5  UNL     1       6.358   1.386   3.075  1.00  0.00    -0.191 NA
HETATM    7  C15 UNL     1       6.002   4.738   4.107  1.00  0.00     0.025 A 
HETATM    8  C16 UNL     1       6.086   5.893   4.887  1.00  0.00     0.038 A 
ENDROOT
BRANCH   1   9
HETATM    9  O4  UNL     1       6.848   6.882   6.970  1.00  0.00    -0.342 OA
BRANCH   9  10
HETATM   10  C9  UNL     1       5.944   7.490   7.813  1.00  0.00     0.278 C 
BRANCH  10  11
HETATM   11  C8  UNL     1       5.511   6.657   8.958  1.00  0.00     0.246 C 
HETATM   12  N4  UNL     1       4.220   6.816   9.511  1.00  0.00    -0.317 N 
ATOM     13  H4  UNL     1       3.596   7.513   9.105  1.00  0.00     0.169 HD
HETATM   14  O3  UNL     1       6.288   5.803   9.445  1.00  0.00    -0.271 OA
BRANCH  12  15
HETATM   15  C7  UNL     1       3.764   6.053  10.596  1.00  0.00     0.156 A 
HETATM   16  C4  UNL     1       3.067   4.879  10.437  1.00  0.00     0.190 A 
HETATM   17  N1  UNL     1       2.653   4.191  11.543  1.00  0.00    -0.168 N 
HETATM   18  C5  UNL     1       2.928   4.668  12.764  1.00  0.00     0.680 A 
ATOM     19  H1  UNL     1       2.135   3.319  11.438  1.00  0.00     0.186 HD
HETATM   20  N3  UNL     1       3.611   5.817  12.942  1.00  0.00    -0.154 N 
HETATM   21  C6  UNL     1       4.026   6.506  11.884  1.00  0.00     0.290 A 
ATOM     22  H3  UNL     1       3.807   6.157  13.884  1.00  0.00     0.187 HD
HETATM   23  O2  UNL     1       4.666   7.585  12.051  1.00  0.00    -0.265 OA
BRANCH  16  24
HETATM   24  O1  UNL     1       2.784   4.392   9.176  1.00  0.00    -0.330 OA
BRANCH  24  25
HETATM   25  C3  UNL     1       3.646   3.484   8.522  1.00  0.00     0.204 C 
BRANCH  25  26
HETATM   26  C2  UNL     1       3.623   3.848   7.081  1.00  0.00    -0.011 C 
HETATM   27  C1  UNL     1       2.958   4.907   6.662  1.00  0.00     0.009 C 
ENDBRANCH  25  26
ENDBRANCH  24  25
ENDBRANCH  16  24
BRANCH  18  28
HETATM   28  N2  UNL     1       2.546   4.033  13.826  1.00  0.00    -0.234 N 
ATOM     29  H22 UNL     1       2.309   3.045  13.722  1.00  0.00     0.174 HD
ATOM     30  H21 UNL     1       2.486   4.508  14.727  1.00  0.00     0.174 HD
ENDBRANCH  18  28
ENDBRANCH  12  15
ENDBRANCH  10  11
ENDBRANCH   9  10
ENDBRANCH   1   9
TORSDOF 8
ENDMDL
MODEL 3
REMARK VINA RESULT: -7.450765317      2.539      7.333
REMARK  8 active torsions:
REMARK  status: ('A' for Active; 'I' for Inactive)
REMARK    1  A    between atoms: C2_2  and  C3_3 
REMARK    2  A    between atoms: C3_3  and  O1_4 
REMARK    3  A    between atoms: O1_4  and  C4_5 
REMARK    4  A    between atoms: C5_8  and  N2_9 
REMARK    5  A    between atoms: C7_16  and  N4_17 
REMARK       I    between atoms: N4_17  and  C8_19 
REMARK    6  A    between atoms: C8_19  and  C9_21 
REMARK    7  A    between atoms: C9_21  and  O4_22 
REMARK    8  A    between atoms: O4_22  and  C10_23 
ROOT
HETATM    1  C10 UNL     1       3.632   5.083   9.287  1.00  0.00     0.069 A 
HETATM    2  C11 UNL     1       3.587   5.135  10.689  1.00  0.00     0.038 A 
HETATM    3  C12 UNL     1       2.576   5.747  11.388  1.00  0.00     0.025 A 
HETATM    4  C13 UNL     1       1.560   6.339  10.664  1.00  0.00     0.044 A 
HETATM    5  C14 UNL     1       0.490   6.989  11.389  1.00  0.00     0.099 C 
HETATM    6  N5  UNL     1      -0.378   7.517  11.957  1.00  0.00    -0.191 NA
HETATM    7  C15 UNL     1       1.582   6.303   9.290  1.00  0.00     0.025 A 
HETATM    8  C16 UNL     1       2.617   5.674   8.594  1.00  0.00     0.038 A 
ENDROOT
BRANCH   1   9
HETATM    9  O4  UNL     1       4.701   4.436   8.742  1.00  0.00    -0.342 OA
BRANCH   9  10
HETATM   10  C9  UNL     1       5.996   4.859   8.536  1.00  0.00     0.278 C 
BRANCH  10  11
HETATM   11  C8  UNL     1       6.641   4.307   7.323  1.00  0.00     0.246 C 
HETATM   12  N4  UNL     1       6.615   5.029   6.108  1.00  0.00    -0.317 N 
ATOM     13  H4  UNL     1       6.145   5.934   6.087  1.00  0.00     0.169 HD
HETATM   14  O3  UNL     1       7.216   3.195   7.365  1.00  0.00    -0.271 OA
BRANCH  12  15
HETATM   15  C7  UNL     1       7.209   4.549   4.931  1.00  0.00     0.156 A 
HETATM   16  C4  UNL     1       6.557   3.709   4.060  1.00  0.00     0.190 A 
HETATM   17  N1  UNL     1       7.201   3.281   2.934  1.00  0.00    -0.168 N 
HETATM   18  C5  UNL     1       8.457   3.683   2.693  1.00  0.00     0.680 A 
ATOM     19  H1  UNL     1       6.729   2.658   2.280  1.00  0.00     0.186 HD
HETATM   20  N3  UNL     1       9.114   4.507   3.535  1.00  0.00    -0.154 N 
HETATM   21  C6  UNL     1       8.510   4.938   4.637  1.00  0.00     0.290 A 
ATOM     22  H3  UNL     1      10.070   4.797   3.326  1.00  0.00     0.187 HD
HETATM   23  O2  UNL     1       9.127   5.712   5.427  1.00  0.00    -0.265 OA
BRANCH  16  24
HETATM   24  O1  UNL     1       5.263   3.296   4.313  1.00  0.00    -0.330 OA
BRANCH  24  25
HETATM   25  C3  UNL     1       4.989   2.063   4.944  1.00  0.00     0.204 C 
BRANCH  25  26
HETATM   26  C2  UNL     1       3.895   2.323   5.916  1.00  0.00    -0.011 C 
HETATM   27  C1  UNL     1       3.114   3.378   5.788  1.00  0.00     0.009 C 
ENDBRANCH  25  26
ENDBRANCH  24  25
ENDBRANCH  16  24
BRANCH  18  28
HETATM   28  N2  UNL     1       9.087   3.290   1.632  1.00  0.00    -0.234 N 
ATOM     29  H22 UNL     1      10.025   3.663   1.479  1.00  0.00     0.174 HD
ATOM     30  H21 UNL     1       8.657   2.634   0.981  1.00  0.00     0.174 HD
ENDBRANCH  18  28
ENDBRANCH  12  15
ENDBRANCH  10  11
ENDBRANCH   9  10
ENDBRANCH   1   9
TORSDOF 8
ENDMDL
MODEL 4
REMARK VINA RESULT: -7.443068114      2.066      3.960
REMARK  8 active torsions:
REMARK  status: ('A' for Active; 'I' for Inactive)
REMARK    1  A    between atoms: C2_2  and  C3_3 
REMARK    2  A    between atoms: C3_3  and  O1_4 
REMARK    3  A    between atoms: O1_4  and  C4_5 
REMARK    4  A    between atoms: C5_8  and  N2_9 
REMARK    5  A    between atoms: C7_16  and  N4_17 
REMARK       I    between atoms: N4_17  and  C8_19 
REMARK    6  A    between atoms: C8_19  and  C9_21 
REMARK    7  A    between atoms: C9_21  and  O4_22 
REMARK    8  A    between atoms: O4_22  and  C10_23 
ROOT
HETATM    1  C10 UNL     1       3.777   2.738   5.885  1.00  0.00     0.069 A 
HETATM    2  C11 UNL     1       5.162   2.566   6.035  1.00  0.00     0.038 A 
HETATM    3  C12 UNL     1       6.056   2.710   5.003  1.00  0.00     0.025 A 
HETATM    4  C13 UNL     1       5.555   3.041   3.759  1.00  0.00     0.044 A 
HETATM    5  C14 UNL     1       6.486   3.195   2.663  1.00  0.00     0.099 C 
HETATM    6  N5  UNL     1       7.222   3.321   1.770  1.00  0.00    -0.191 NA
HETATM    7  C15 UNL     1       4.202   3.215   3.586  1.00  0.00     0.025 A 
HETATM    8  C16 UNL     1       3.306   3.065   4.647  1.00  0.00     0.038 A 
ENDROOT
BRANCH   1   9
HETATM    9  O4  UNL     1       3.022   2.562   7.005  1.00  0.00    -0.342 OA
BRANCH   9  10
HETATM   10  C9  UNL     1       3.354   2.677   8.338  1.00  0.00     0.278 C 
BRANCH  10  11
HETATM   11  C8  UNL     1       3.584   4.064   8.801  1.00  0.00     0.246 C 
HETATM   12  N4  UNL     1       4.421   4.318   9.910  1.00  0.00    -0.317 N 
ATOM     13  H4  UNL     1       4.862   3.529  10.382  1.00  0.00     0.169 HD
HETATM   14  O3  UNL     1       3.038   5.024   8.209  1.00  0.00    -0.271 OA
BRANCH  12  15
HETATM   15  C7  UNL     1       4.669   5.614  10.388  1.00  0.00     0.156 A 
HETATM   16  C4  UNL     1       3.837   6.248  11.280  1.00  0.00     0.190 A 
HETATM   17  N1  UNL     1       4.143   7.512  11.699  1.00  0.00    -0.168 N 
HETATM   18  C5  UNL     1       5.246   8.117  11.237  1.00  0.00     0.680 A 
ATOM     19  H1  UNL     1       3.535   7.994  12.361  1.00  0.00     0.186 HD
HETATM   20  N3  UNL     1       6.075   7.513  10.361  1.00  0.00    -0.154 N 
HETATM   21  C6  UNL     1       5.801   6.283   9.938  1.00  0.00     0.290 A 
ATOM     22  H3  UNL     1       6.908   7.997  10.026  1.00  0.00     0.187 HD
HETATM   23  O2  UNL     1       6.580   5.716   9.116  1.00  0.00    -0.265 OA
BRANCH  16  24
HETATM   24  O1  UNL     1       2.701   5.622  11.754  1.00  0.00    -0.330 OA
BRANCH  24  25
HETATM   25  C3  UNL     1       1.976   6.135  12.852  1.00  0.00     0.204 C 
BRANCH  25  26
HETATM   26  C2  UNL     1       0.590   6.365  12.367  1.00  0.00    -0.011 C 
HETATM   27  C1  UNL     1       0.350   7.204  11.379  1.00  0.00     0.009 C 
ENDBRANCH  25  26
ENDBRANCH  24  25
ENDBRANCH  16  24
BRANCH  18  28
HETATM   28  N2  UNL     1       5.556   9.315  11.620  1.00  0.00    -0.234 N 
ATOM     29  H22 UNL     1       4.819   9.876  12.047  1.00  0.00     0.174 HD
ATOM     30  H21 UNL     1       6.502   9.675  11.495  1.00  0.00     0.174 HD
ENDBRANCH  18  28
ENDBRANCH  12  15
ENDBRANCH  10  11
ENDBRANCH   9  10
ENDBRANCH   1   9
TORSDOF 8
ENDMDL
MODEL 5
REMARK VINA RESULT: -7.442048884      2.395      7.821
REMARK  8 active torsions:
REMARK  status: ('A' for Active; 'I' for Inactive)
REMARK    1  A    between atoms: C2_2  and  C3_3 
REMARK    2  A    between atoms: C3_3  and  O1_4 
REMARK    3  A    between atoms: O1_4  and  C4_5 
REMARK    4  A    between atoms: C5_8  and  N2_9 
REMARK    5  A    between atoms: C7_16  and  N4_17 
REMARK       I    between atoms: N4_17  and  C8_19 
REMARK    6  A    between atoms: C8_19  and  C9_21 
REMARK    7  A    between atoms: C9_21  and  O4_22 
REMARK    8  A    between atoms: O4_22  and  C10_23 
ROOT
HETATM    1  C10 UNL     1       2.471   5.549   9.224  1.00  0.00     0.069 A 
HETATM    2  C11 UNL     1       3.234   4.974  10.252  1.00  0.00     0.038 A 
HETATM    3  C12 UNL     1       3.048   5.265  11.581  1.00  0.00     0.025 A 
HETATM    4  C13 UNL     1       2.058   6.170  11.910  1.00  0.00     0.044 A 
HETATM    5  C14 UNL     1       1.852   6.486  13.306  1.00  0.00     0.099 C 
HETATM    6  N5  UNL     1       1.675   6.752  14.425  1.00  0.00    -0.191 NA
HETATM    7  C15 UNL     1       1.297   6.748  10.920  1.00  0.00     0.025 A 
HETATM    8  C16 UNL     1       1.499   6.440   9.573  1.00  0.00     0.038 A 
ENDROOT
BRANCH   1   9
HETATM    9  O4  UNL     1       2.776   5.156   7.955  1.00  0.00    -0.342 OA
BRANCH   9  10
HETATM   10  C9  UNL     1       3.384   4.009   7.493  1.00  0.00     0.278 C 
BRANCH  10  11
HETATM   11  C8  UNL     1       4.370   4.226   6.410  1.00  0.00     0.246 C 
HETATM   12  N4  UNL     1       5.250   3.189   6.026  1.00  0.00    -0.317 N 
ATOM     13  H4  UNL     1       5.190   2.293   6.508  1.00  0.00     0.169 HD
HETATM   14  O3  UNL     1       4.430   5.333   5.825  1.00  0.00    -0.271 OA
BRANCH  12  15
HETATM   15  C7  UNL     1       6.203   3.346   5.008  1.00  0.00     0.156 A 
HETATM   16  C4  UNL     1       7.428   3.931   5.221  1.00  0.00     0.190 A 
HETATM   17  N1  UNL     1       8.304   4.050   4.180  1.00  0.00    -0.168 N 
HETATM   18  C5  UNL     1       7.959   3.598   2.967  1.00  0.00     0.680 A 
ATOM     19  H1  UNL     1       9.216   4.482   4.325  1.00  0.00     0.186 HD
HETATM   20  N3  UNL     1       6.763   3.021   2.735  1.00  0.00    -0.154 N 
HETATM   21  C6  UNL     1       5.892   2.892   3.731  1.00  0.00     0.290 A 
ATOM     22  H3  UNL     1       6.527   2.686   1.801  1.00  0.00     0.187 HD
HETATM   23  O2  UNL     1       4.768   2.350   3.514  1.00  0.00    -0.265 OA
BRANCH  16  24
HETATM   24  O1  UNL     1       7.779   4.396   6.474  1.00  0.00    -0.330 OA
BRANCH  24  25
HETATM   25  C3  UNL     1       7.941   5.776   6.733  1.00  0.00     0.204 C 
BRANCH  25  26
HETATM   26  C2  UNL     1       7.858   5.938   8.207  1.00  0.00    -0.011 C 
HETATM   27  C1  UNL     1       6.729   5.717   8.850  1.00  0.00     0.009 C 
ENDBRANCH  25  26
ENDBRANCH  24  25
ENDBRANCH  16  24
BRANCH  18  28
HETATM   28  N2  UNL     1       8.774   3.700   1.964  1.00  0.00    -0.234 N 
ATOM     29  H22 UNL     1       9.687   3.254   2.055  1.00  0.00     0.174 HD
ATOM     30  H21 UNL     1       8.505   4.209   1.122  1.00  0.00     0.174 HD
ENDBRANCH  18  28
ENDBRANCH  12  15
ENDBRANCH  10  11
ENDBRANCH   9  10
ENDBRANCH   1   9
TORSDOF 8
ENDMDL
