MODEL 1
REMARK VINA RESULT: -7.450059135      0.000      0.000
REMARK  2 active torsions:
REMARK  status: ('A' for Active; 'I' for Inactive)
REMARK    1  A    between atoms: N1_1  and  C1_4 
REMARK    2  A    between atoms: C2_5  and  O1_6 
ROOT
HETATM    1  C1  UNL     1      16.699 -23.850  23.255  1.00  0.00     0.131 C 
HETATM    2  C2  UNL     1      17.598 -23.822  24.314  1.00  0.00     0.139 C 
HETATM    3  C3  UNL     1      18.771 -23.090  24.455  1.00  0.00     0.156 C 
HETATM    4  N2  UNL     1      19.364 -22.987  25.721  1.00  0.00    -0.079 NA
HETATM    5  N3  UNL     1      19.381 -22.463  23.421  1.00  0.00    -0.294 N 
ATOM      6  H3  UNL     1      20.327 -22.140  23.622  1.00  0.00     0.172 HD
HETATM    7  C4  UNL     1      18.953 -22.191  22.169  1.00  0.00     0.328 C 
HETATM    8  O2  UNL     1      19.833 -21.769  21.367  1.00  0.00    -0.247 OA
HETATM    9  N4  UNL     1      17.694 -22.314  21.672  1.00  0.00    -0.273 N 
ATOM     10  H4  UNL     1      17.456 -21.695  20.898  1.00  0.00     0.173 HD
HETATM   11  C5  UNL     1      16.729 -23.149  22.073  1.00  0.00     0.278 C 
HETATM   12  O3  UNL     1      15.772 -23.284  21.274  1.00  0.00    -0.265 OA
ENDROOT
BRANCH   1  13
HETATM   13  N1  UNL     1      15.676 -24.631  23.348  1.00  0.00    -0.392 N 
ATOM     14  H12 UNL     1      15.379 -25.002  22.445  1.00  0.00     0.156 HD
ATOM     15  H11 UNL     1      15.280 -24.796  24.273  1.00  0.00     0.156 HD
ENDBRANCH   1  13
BRANCH   2  16
HETATM   16  O1  UNL     1      17.296 -24.623  25.376  1.00  0.00    -0.355 OA
ATOM     17  H1  UNL     1      17.284 -25.557  25.203  1.00  0.00     0.218 HD
ENDBRANCH   2  16
TORSDOF 2
ENDMDL
MODEL 2
REMARK VINA RESULT: -7.164263657      1.330      4.094
REMARK  2 active torsions:
REMARK  status: ('A' for Active; 'I' for Inactive)
REMARK    1  A    between atoms: N1_1  and  C1_4 
REMARK    2  A    between atoms: C2_5  and  O1_6 
ROOT
HETATM    1  C1  UNL     1      17.593 -22.468  22.411  1.00  0.00     0.131 C 
HETATM    2  C2  UNL     1      16.547 -23.317  22.075  1.00  0.00     0.139 C 
HETATM    3  C3  UNL     1      15.824 -24.187  22.883  1.00  0.00     0.156 C 
HETATM    4  N2  UNL     1      14.622 -24.727  22.404  1.00  0.00    -0.079 NA
HETATM    5  N3  UNL     1      16.225 -24.548  24.126  1.00  0.00    -0.294 N 
ATOM      6  H3  UNL     1      15.715 -25.339  24.521  1.00  0.00     0.172 HD
HETATM    7  C4  UNL     1      17.183 -24.043  24.933  1.00  0.00     0.328 C 
HETATM    8  O2  UNL     1      17.456 -24.729  25.959  1.00  0.00    -0.247 OA
HETATM    9  N4  UNL     1      17.884 -22.890  24.776  1.00  0.00    -0.273 N 
ATOM     10  H4  UNL     1      18.227 -22.454  25.632  1.00  0.00     0.173 HD
HETATM   11  C5  UNL     1      18.180 -22.255  23.636  1.00  0.00     0.278 C 
HETATM   12  O3  UNL     1      19.081 -21.387  23.724  1.00  0.00    -0.265 OA
ENDROOT
BRANCH   1  13
HETATM   13  N1  UNL     1      18.123 -21.758  21.472  1.00  0.00    -0.392 N 
ATOM     14  H12 UNL     1      17.441 -21.440  20.784  1.00  0.00     0.156 HD
ATOM     15  H11 UNL     1      19.128 -21.590  21.507  1.00  0.00     0.156 HD
ENDBRANCH   1  13
BRANCH   2  16
HETATM   16  O1  UNL     1      16.162 -23.305  20.766  1.00  0.00    -0.355 OA
ATOM     17  H1  UNL     1      15.827 -24.125  20.423  1.00  0.00     0.218 HD
ENDBRANCH   2  16
TORSDOF 2
ENDMDL
MODEL 3
REMARK VINA RESULT: -7.077471014      1.422      3.107
REMARK  2 active torsions:
REMARK  status: ('A' for Active; 'I' for Inactive)
REMARK    1  A    between atoms: N1_1  and  C1_4 
REMARK    2  A    between atoms: C2_5  and  O1_6 
ROOT
HETATM    1  C1  UNL     1      17.834 -23.688  24.310  1.00  0.00     0.131 C 
HETATM    2  C2  UNL     1      16.760 -23.754  23.433  1.00  0.00     0.139 C 
HETATM    3  C3  UNL     1      16.690 -23.378  22.096  1.00  0.00     0.156 C 
HETATM    4  N2  UNL     1      15.601 -23.804  21.323  1.00  0.00    -0.079 NA
HETATM    5  N3  UNL     1      17.629 -22.609  21.493  1.00  0.00    -0.294 N 
ATOM      6  H3  UNL     1      17.353 -22.244  20.582  1.00  0.00     0.172 HD
HETATM    7  C4  UNL     1      18.866 -22.242  21.890  1.00  0.00     0.328 C 
HETATM    8  O2  UNL     1      19.425 -21.349  21.192  1.00  0.00    -0.247 OA
HETATM    9  N4  UNL     1      19.580 -22.719  22.943  1.00  0.00    -0.273 N 
ATOM     10  H4  UNL     1      20.595 -22.668  22.855  1.00  0.00     0.173 HD
HETATM   11  C5  UNL     1      19.116 -23.245  24.082  1.00  0.00     0.278 C 
HETATM   12  O3  UNL     1      19.953 -23.331  25.013  1.00  0.00    -0.265 OA
ENDROOT
BRANCH   1  13
HETATM   13  N1  UNL     1      17.652 -24.086  25.524  1.00  0.00    -0.392 N 
ATOM     14  H12 UNL     1      17.640 -25.103  25.609  1.00  0.00     0.156 HD
ATOM     15  H11 UNL     1      17.543 -23.379  26.250  1.00  0.00     0.156 HD
ENDBRANCH   1  13
BRANCH   2  16
HETATM   16  O1  UNL     1      15.601 -24.260  23.943  1.00  0.00    -0.355 OA
ATOM     17  H1  UNL     1      15.051 -24.737  23.333  1.00  0.00     0.218 HD
ENDBRANCH   2  16
TORSDOF 2
ENDMDL
MODEL 4
REMARK VINA RESULT: -7.039353919      1.341      3.160
REMARK  2 active torsions:
REMARK  status: ('A' for Active; 'I' for Inactive)
REMARK    1  A    between atoms: N1_1  and  C1_4 
REMARK    2  A    between atoms: C2_5  and  O1_6 
ROOT
HETATM    1  C1  UNL     1      16.606 -23.848  23.245  1.00  0.00     0.131 C 
HETATM    2  C2  UNL     1      17.189 -22.899  22.416  1.00  0.00     0.139 C 
HETATM    3  C3  UNL     1      18.399 -22.230  22.557  1.00  0.00     0.156 C 
HETATM    4  N2  UNL     1      18.929 -21.538  21.459  1.00  0.00    -0.079 NA
HETATM    5  N3  UNL     1      19.104 -22.211  23.714  1.00  0.00    -0.294 N 
ATOM      6  H3  UNL     1      19.858 -21.524  23.737  1.00  0.00     0.172 HD
HETATM    7  C4  UNL     1      18.981 -22.942  24.842  1.00  0.00     0.328 C 
HETATM    8  O2  UNL     1      19.664 -22.549  25.830  1.00  0.00    -0.247 OA
HETATM    9  N4  UNL     1      18.216 -24.047  25.041  1.00  0.00    -0.273 N 
ATOM     10  H4  UNL     1      18.546 -24.698  25.754  1.00  0.00     0.173 HD
HETATM   11  C5  UNL     1      17.082 -24.387  24.418  1.00  0.00     0.278 C 
HETATM   12  O3  UNL     1      16.411 -25.286  24.978  1.00  0.00    -0.265 OA
ENDROOT
BRANCH   1  13
HETATM   13  N1  UNL     1      15.453 -24.321  22.910  1.00  0.00    -0.392 N 
ATOM     14  H12 UNL     1      14.715 -24.068  23.568  1.00  0.00     0.156 HD
ATOM     15  H11 UNL     1      15.392 -24.877  22.058  1.00  0.00     0.156 HD
ENDBRANCH   1  13
BRANCH   2  16
HETATM   16  O1  UNL     1      16.481 -22.566  21.299  1.00  0.00    -0.355 OA
ATOM     17  H1  UNL     1      16.580 -21.671  20.995  1.00  0.00     0.218 HD
ENDBRANCH   2  16
TORSDOF 2
ENDMDL
MODEL 5
REMARK VINA RESULT: -6.903492017      1.114      3.475
REMARK  2 active torsions:
REMARK  status: ('A' for Active; 'I' for Inactive)
REMARK    1  A    between atoms: N1_1  and  C1_4 
REMARK    2  A    between atoms: C2_5  and  O1_6 
ROOT
HETATM    1  C1  UNL     1      18.506 -23.540  24.121  1.00  0.00     0.131 C 
HETATM    2  C2  UNL     1      19.094 -22.772  23.124  1.00  0.00     0.139 C 
HETATM    3  C3  UNL     1      18.535 -22.267  21.956  1.00  0.00     0.156 C 
HETATM    4  N2  UNL     1      19.222 -21.274  21.243  1.00  0.00    -0.079 NA
HETATM    5  N3  UNL     1      17.346 -22.689  21.462  1.00  0.00    -0.294 N 
ATOM      6  H3  UNL     1      17.157 -22.387  20.506  1.00  0.00     0.172 HD
HETATM    7  C4  UNL     1      16.369 -23.439  22.015  1.00  0.00     0.328 C 
HETATM    8  O2  UNL     1      15.465 -23.834  21.225  1.00  0.00    -0.247 OA
HETATM    9  N4  UNL     1      16.242 -23.818  23.313  1.00  0.00    -0.273 N 
ATOM     10  H4  UNL     1      15.291 -23.993  23.637  1.00  0.00     0.173 HD
HETATM   11  C5  UNL     1      17.211 -23.990  24.220  1.00  0.00     0.278 C 
HETATM   12  O3  UNL     1      16.876 -24.625  25.248  1.00  0.00    -0.265 OA
ENDROOT
BRANCH   1  13
HETATM   13  N1  UNL     1      19.241 -23.908  25.116  1.00  0.00    -0.392 N 
ATOM     14  H12 UNL     1      20.072 -23.327  25.230  1.00  0.00     0.156 HD
ATOM     15  H11 UNL     1      18.934 -24.709  25.668  1.00  0.00     0.156 HD
ENDBRANCH   1  13
BRANCH   2  16
HETATM   16  O1  UNL     1      20.410 -22.461  23.306  1.00  0.00    -0.355 OA
ATOM     17  H1  UNL     1      20.646 -21.551  23.166  1.00  0.00     0.218 HD
ENDBRANCH   2  16
TORSDOF 2
ENDMDL
