MODEL 1
REMARK VINA RESULT: -6.988430583      0.000      0.000
REMARK  1 active torsions:
REMARK  status: ('A' for Active; 'I' for Inactive)
REMARK    1  A    between atoms: N1_1  and  C1_4 
ROOT
HETATM    1  C1  UNL     1      18.119 -22.137  21.950  1.00  0.00     0.183 C 
HETATM    2  N2  UNL     1      17.336 -22.831  21.103  1.00  0.00    -0.280 N 
ATOM      3  H2  UNL     1      17.336 -22.497  20.139  1.00  0.00     0.188 HD
HETATM    4  N3  UNL     1      16.557 -23.896  21.342  1.00  0.00    -0.282 N 
ATOM      5  H3  UNL     1      15.906 -24.140  20.595  1.00  0.00     0.188 HD
HETATM    6  C2  UNL     1      16.515 -24.693  22.436  1.00  0.00     0.199 C 
HETATM    7  N4  UNL     1      16.150 -26.057  22.250  1.00  0.00    -0.075 NA
HETATM    8  C3  UNL     1      16.800 -24.277  23.724  1.00  0.00     0.290 C 
HETATM    9  O1  UNL     1      16.419 -25.062  24.619  1.00  0.00    -0.264 OA
HETATM   10  N5  UNL     1      17.439 -23.129  24.102  1.00  0.00    -0.284 N 
ATOM     11  H5  UNL     1      17.450 -22.942  25.104  1.00  0.00     0.172 HD
HETATM   12  C4  UNL     1      18.056 -22.213  23.334  1.00  0.00     0.293 C 
HETATM   13  O2  UNL     1      18.673 -21.275  23.905  1.00  0.00    -0.264 OA
ENDROOT
BRANCH   1  14
HETATM   14  N1  UNL     1      19.006 -21.331  21.456  1.00  0.00    -0.380 N 
ATOM     15  H12 UNL     1      19.471 -21.636  20.601  1.00  0.00     0.158 HD
ATOM     16  H11 UNL     1      19.189 -20.452  21.939  1.00  0.00     0.158 HD
ENDBRANCH   1  14
TORSDOF 1
ENDMDL
MODEL 2
REMARK VINA RESULT: -6.916411328      1.032      3.515
REMARK  1 active torsions:
REMARK  status: ('A' for Active; 'I' for Inactive)
REMARK    1  A    between atoms: N1_1  and  C1_4 
ROOT
HETATM    1  C1  UNL     1      15.996 -24.111  22.525  1.00  0.00     0.183 C 
HETATM    2  N2  UNL     1      16.397 -23.598  21.347  1.00  0.00    -0.280 N 
ATOM      3  H2  UNL     1      15.736 -23.708  20.578  1.00  0.00     0.188 HD
HETATM    4  N3  UNL     1      17.538 -22.965  21.037  1.00  0.00    -0.282 N 
ATOM      5  H3  UNL     1      17.710 -22.833  20.040  1.00  0.00     0.188 HD
HETATM    6  C2  UNL     1      18.494 -22.476  21.864  1.00  0.00     0.199 C 
HETATM    7  N4  UNL     1      19.226 -21.335  21.431  1.00  0.00    -0.075 NA
HETATM    8  C3  UNL     1      18.810 -23.008  23.102  1.00  0.00     0.290 C 
HETATM    9  O1  UNL     1      19.900 -22.615  23.571  1.00  0.00    -0.264 OA
HETATM   10  N5  UNL     1      18.072 -23.892  23.837  1.00  0.00    -0.284 N 
ATOM     11  H5  UNL     1      18.530 -24.260  24.671  1.00  0.00     0.172 HD
HETATM   12  C4  UNL     1      16.825 -24.344  23.614  1.00  0.00     0.293 C 
HETATM   13  O2  UNL     1      16.294 -25.084  24.485  1.00  0.00    -0.264 OA
ENDROOT
BRANCH   1  14
HETATM   14  N1  UNL     1      14.746 -24.418  22.675  1.00  0.00    -0.380 N 
ATOM     15  H12 UNL     1      14.068 -23.755  22.301  1.00  0.00     0.158 HD
ATOM     16  H11 UNL     1      14.511 -25.290  23.150  1.00  0.00     0.158 HD
ENDBRANCH   1  14
TORSDOF 1
ENDMDL
MODEL 3
REMARK VINA RESULT: -6.859193750      2.136      3.246
REMARK  1 active torsions:
REMARK  status: ('A' for Active; 'I' for Inactive)
REMARK    1  A    between atoms: N1_1  and  C1_4 
ROOT
HETATM    1  C1  UNL     1      16.938 -23.696  22.181  1.00  0.00     0.183 C 
HETATM    2  N2  UNL     1      18.266 -23.572  22.358  1.00  0.00    -0.280 N 
ATOM      3  H2  UNL     1      18.808 -23.434  21.504  1.00  0.00     0.188 HD
HETATM    4  N3  UNL     1      18.982 -23.604  23.492  1.00  0.00    -0.282 N 
ATOM      5  H3  UNL     1      19.992 -23.681  23.372  1.00  0.00     0.188 HD
HETATM    6  C2  UNL     1      18.550 -23.548  24.775  1.00  0.00     0.199 C 
HETATM    7  N4  UNL     1      19.411 -22.954  25.740  1.00  0.00    -0.075 NA
HETATM    8  C3  UNL     1      17.328 -24.027  25.215  1.00  0.00     0.290 C 
HETATM    9  O1  UNL     1      17.240 -24.157  26.454  1.00  0.00    -0.264 OA
HETATM   10  N5  UNL     1      16.245 -24.359  24.452  1.00  0.00    -0.284 N 
ATOM     11  H5  UNL     1      15.477 -24.808  24.951  1.00  0.00     0.172 HD
HETATM   12  C4  UNL     1      16.051 -24.177  23.133  1.00  0.00     0.293 C 
HETATM   13  O2  UNL     1      14.924 -24.469  22.650  1.00  0.00    -0.264 OA
ENDROOT
BRANCH   1  14
HETATM   14  N1  UNL     1      16.429 -23.345  21.042  1.00  0.00    -0.380 N 
ATOM     15  H12 UNL     1      16.894 -23.702  20.208  1.00  0.00     0.158 HD
ATOM     16  H11 UNL     1      15.606 -22.741  21.040  1.00  0.00     0.158 HD
ENDBRANCH   1  14
TORSDOF 1
ENDMDL
MODEL 4
REMARK VINA RESULT: -6.552952950      2.041      2.902
REMARK  1 active torsions:
REMARK  status: ('A' for Active; 'I' for Inactive)
REMARK    1  A    between atoms: N1_1  and  C1_4 
ROOT
HETATM    1  C1  UNL     1      17.096 -22.980  22.477  1.00  0.00     0.183 C 
HETATM    2  N2  UNL     1      16.336 -23.643  23.367  1.00  0.00    -0.280 N 
ATOM      3  H2  UNL     1      15.435 -23.968  23.013  1.00  0.00     0.188 HD
HETATM    4  N3  UNL     1      16.589 -23.941  24.650  1.00  0.00    -0.282 N 
ATOM      5  H3  UNL     1      15.791 -24.283  25.186  1.00  0.00     0.188 HD
HETATM    6  C2  UNL     1      17.756 -23.851  25.332  1.00  0.00     0.199 C 
HETATM    7  N4  UNL     1      17.977 -24.774  26.393  1.00  0.00    -0.075 NA
HETATM    8  C3  UNL     1      18.750 -22.925  25.071  1.00  0.00     0.290 C 
HETATM    9  O1  UNL     1      19.598 -22.805  25.981  1.00  0.00    -0.264 OA
HETATM   10  N5  UNL     1      18.892 -22.155  23.951  1.00  0.00    -0.284 N 
ATOM     11  H5  UNL     1      19.623 -21.445  23.996  1.00  0.00     0.172 HD
HETATM   12  C4  UNL     1      18.201 -22.203  22.798  1.00  0.00     0.293 C 
HETATM   13  O2  UNL     1      18.571 -21.460  21.850  1.00  0.00    -0.264 OA
ENDROOT
BRANCH   1  14
HETATM   14  N1  UNL     1      16.791 -23.057  21.219  1.00  0.00    -0.380 N 
ATOM     15  H12 UNL     1      16.563 -23.985  20.864  1.00  0.00     0.158 HD
ATOM     16  H11 UNL     1      16.796 -22.203  20.662  1.00  0.00     0.158 HD
ENDBRANCH   1  14
TORSDOF 1
ENDMDL
MODEL 5
REMARK VINA RESULT: -6.539109327      1.802      3.853
REMARK  1 active torsions:
REMARK  status: ('A' for Active; 'I' for Inactive)
REMARK    1  A    between atoms: N1_1  and  C1_4 
ROOT
HETATM    1  C1  UNL     1      16.244 -24.542  22.937  1.00  0.00     0.183 C 
HETATM    2  N2  UNL     1      16.524 -24.805  24.226  1.00  0.00    -0.280 N 
ATOM      3  H2  UNL     1      16.091 -25.649  24.603  1.00  0.00     0.188 HD
HETATM    4  N3  UNL     1      17.291 -24.121  25.089  1.00  0.00    -0.282 N 
ATOM      5  H3  UNL     1      17.207 -24.400  26.066  1.00  0.00     0.188 HD
HETATM    6  C2  UNL     1      18.160 -23.112  24.841  1.00  0.00     0.199 C 
HETATM    7  N4  UNL     1      19.289 -22.983  25.698  1.00  0.00    -0.075 NA
HETATM    8  C3  UNL     1      18.029 -22.194  23.813  1.00  0.00     0.290 C 
HETATM    9  O1  UNL     1      18.748 -21.180  23.930  1.00  0.00    -0.264 OA
HETATM   10  N5  UNL     1      17.216 -22.287  22.719  1.00  0.00    -0.284 N 
ATOM     11  H5  UNL     1      17.172 -21.454  22.133  1.00  0.00     0.172 HD
HETATM   12  C4  UNL     1      16.468 -23.326  22.306  1.00  0.00     0.293 C 
HETATM   13  O2  UNL     1      15.869 -23.229  21.202  1.00  0.00    -0.264 OA
ENDROOT
BRANCH   1  14
HETATM   14  N1  UNL     1      15.723 -25.482  22.211  1.00  0.00    -0.380 N 
ATOM     15  H12 UNL     1      15.242 -26.228  22.712  1.00  0.00     0.158 HD
ATOM     16  H11 UNL     1      15.821 -25.426  21.197  1.00  0.00     0.158 HD
ENDBRANCH   1  14
TORSDOF 1
ENDMDL
