MODEL 1
REMARK VINA RESULT: -7.046559492      0.000      0.000
REMARK  6 active torsions:
REMARK  status: ('A' for Active; 'I' for Inactive)
REMARK    1  A    between atoms: N1_2  and  C3_4 
REMARK    2  A    between atoms: C4_7  and  C5_8 
REMARK    3  A    between atoms: C5_8  and  N4_12 
REMARK       I    between atoms: N4_12  and  C6_13 
REMARK    4  A    between atoms: C6_13  and  C7_15 
REMARK    5  A    between atoms: C10_19  and  N5_20 
REMARK    6  A    between atoms: N5_20  and  C11_22 
ROOT
HETATM    1  C3  UNL     1      27.441  -5.924  -1.082  1.00  0.00     0.131 A 
HETATM    2  N2  UNL     1      28.157  -5.574  -0.090  1.00  0.00    -0.337 N 
ATOM      3  H2  UNL     1      29.131  -5.877  -0.090  1.00  0.00     0.167 HD
HETATM    4  C4  UNL     1      27.712  -4.784   1.038  1.00  0.00     0.092 A 
HETATM    5  C8  UNL     1      26.460  -4.392   1.042  1.00  0.00     0.037 A 
HETATM    6  C9  UNL     1      25.572  -4.760  -0.071  1.00  0.00     0.036 A 
HETATM    7  C10 UNL     1      26.043  -5.480  -1.067  1.00  0.00     0.093 A 
ENDROOT
BRANCH   7   8
HETATM    8  N5  UNL     1      25.172  -5.813  -2.104  1.00  0.00    -0.185 N 
ATOM      9  H5  UNL     1      25.598  -6.148  -2.969  1.00  0.00     0.184 HD
BRANCH   8  10
HETATM   10  C11 UNL     1      23.902  -5.743  -2.083  1.00  0.00     0.714 A 
HETATM   11  N6  UNL     1      23.128  -6.719  -1.559  1.00  0.00    -0.115 N 
HETATM   12  N7  UNL     1      21.876  -6.342  -1.694  1.00  0.00    -0.213 N 
ATOM     13  H6  UNL     1      23.455  -7.587  -1.137  1.00  0.00     0.207 HD
HETATM   14  N8  UNL     1      21.797  -5.166  -2.284  1.00  0.00    -0.213 N 
ATOM     15  H7  UNL     1      21.072  -6.888  -1.383  1.00  0.00     0.210 HD
HETATM   16  N9  UNL     1      23.043  -4.804  -2.520  1.00  0.00    -0.115 N 
ATOM     17  H8  UNL     1      20.949  -4.646  -2.511  1.00  0.00     0.210 HD
ATOM     18  H9  UNL     1      23.319  -3.931  -2.971  1.00  0.00     0.207 HD
ENDBRANCH   8  10
ENDBRANCH   7   8
BRANCH   1  19
HETATM   19  N1  UNL     1      27.997  -6.698  -2.127  1.00  0.00    -0.374 N 
HETATM   20  C1  UNL     1      27.953  -8.121  -2.190  1.00  0.00     0.150 C 
HETATM   21  C2  UNL     1      28.654  -5.976  -3.213  1.00  0.00     0.150 C 
ENDBRANCH   1  19
BRANCH   4  22
HETATM   22  C5  UNL     1      28.672  -4.480   2.074  1.00  0.00     0.204 C 
HETATM   23  N3  UNL     1      28.952  -3.170   2.278  1.00  0.00    -0.372 N 
ATOM     24  H32 UNL     1      28.426  -2.574   1.639  1.00  0.00     0.158 HD
ATOM     25  H31 UNL     1      29.630  -2.956   3.009  1.00  0.00     0.158 HD
BRANCH  22  26
HETATM   26  N4  UNL     1      29.381  -5.285   2.935  1.00  0.00    -0.344 NA
HETATM   27  C6  UNL     1      30.062  -6.059   3.763  1.00  0.00     0.355 C 
HETATM   28  O1  UNL     1      31.228  -5.803   4.255  1.00  0.00    -0.248 OA
BRANCH  27  29
HETATM   29  C7  UNL     1      29.487  -7.357   4.209  1.00  0.00     0.348 C 
HETATM   30  O2  UNL     1      28.349  -7.396   4.688  1.00  0.00    -0.295 OA
ENDBRANCH  27  29
ENDBRANCH  22  26
ENDBRANCH   4  22
TORSDOF 6
ENDMDL
MODEL 2
REMARK VINA RESULT: -6.863916284      1.223      1.645
REMARK  6 active torsions:
REMARK  status: ('A' for Active; 'I' for Inactive)
REMARK    1  A    between atoms: N1_2  and  C3_4 
REMARK    2  A    between atoms: C4_7  and  C5_8 
REMARK    3  A    between atoms: C5_8  and  N4_12 
REMARK       I    between atoms: N4_12  and  C6_13 
REMARK    4  A    between atoms: C6_13  and  C7_15 
REMARK    5  A    between atoms: C10_19  and  N5_20 
REMARK    6  A    between atoms: N5_20  and  C11_22 
ROOT
HETATM    1  C3  UNL     1      26.508  -6.661  -1.717  1.00  0.00     0.131 A 
HETATM    2  N2  UNL     1      27.458  -6.412  -0.907  1.00  0.00    -0.337 N 
ATOM      3  H2  UNL     1      28.312  -6.959  -1.012  1.00  0.00     0.167 HD
HETATM    4  C4  UNL     1      27.433  -5.422   0.148  1.00  0.00     0.092 A 
HETATM    5  C8  UNL     1      26.336  -4.715   0.285  1.00  0.00     0.037 A 
HETATM    6  C9  UNL     1      25.196  -4.948  -0.614  1.00  0.00     0.036 A 
HETATM    7  C10 UNL     1      25.286  -5.865  -1.554  1.00  0.00     0.093 A 
ENDROOT
BRANCH   7   8
HETATM    8  N5  UNL     1      24.185  -6.062  -2.386  1.00  0.00    -0.185 N 
ATOM      9  H5  UNL     1      24.349  -6.585  -3.247  1.00  0.00     0.184 HD
BRANCH   8  10
HETATM   10  C11 UNL     1      22.996  -5.656  -2.183  1.00  0.00     0.714 A 
HETATM   11  N6  UNL     1      22.055  -6.427  -1.595  1.00  0.00    -0.115 N 
HETATM   12  N7  UNL     1      20.949  -5.720  -1.536  1.00  0.00    -0.213 N 
ATOM     13  H6  UNL     1      22.180  -7.381  -1.258  1.00  0.00     0.207 HD
HETATM   14  N8  UNL     1      21.123  -4.523  -2.061  1.00  0.00    -0.213 N 
ATOM     15  H7  UNL     1      20.071  -6.053  -1.137  1.00  0.00     0.210 HD
HETATM   16  N9  UNL     1      22.382  -4.491  -2.455  1.00  0.00    -0.115 N 
ATOM     17  H8  UNL     1      20.430  -3.779  -2.144  1.00  0.00     0.210 HD
ATOM     18  H9  UNL     1      22.828  -3.691  -2.905  1.00  0.00     0.207 HD
ENDBRANCH   8  10
ENDBRANCH   7   8
BRANCH   1  19
HETATM   19  N1  UNL     1      26.657  -7.656  -2.711  1.00  0.00    -0.374 N 
HETATM   20  C1  UNL     1      26.360  -9.037  -2.521  1.00  0.00     0.150 C 
HETATM   21  C2  UNL     1      27.147  -7.225  -4.017  1.00  0.00     0.150 C 
ENDBRANCH   1  19
BRANCH   4  22
HETATM   22  C5  UNL     1      28.613  -5.277   0.969  1.00  0.00     0.204 C 
HETATM   23  N3  UNL     1      29.582  -4.453   0.501  1.00  0.00    -0.372 N 
ATOM     24  H32 UNL     1      29.324  -4.050  -0.399  1.00  0.00     0.158 HD
ATOM     25  H31 UNL     1      30.415  -4.351   1.081  1.00  0.00     0.158 HD
BRANCH  22  26
HETATM   26  N4  UNL     1      28.960  -5.822   2.183  1.00  0.00    -0.344 NA
HETATM   27  C6  UNL     1      29.294  -6.345   3.351  1.00  0.00     0.355 C 
HETATM   28  O1  UNL     1      28.491  -6.922   4.182  1.00  0.00    -0.248 OA
BRANCH  27  29
HETATM   29  C7  UNL     1      30.709  -6.299   3.808  1.00  0.00     0.348 C 
HETATM   30  O2  UNL     1      31.418  -5.327   3.526  1.00  0.00    -0.295 OA
ENDBRANCH  27  29
ENDBRANCH  22  26
ENDBRANCH   4  22
TORSDOF 6
ENDMDL
MODEL 3
REMARK VINA RESULT: -6.832523893      1.359      1.569
REMARK  6 active torsions:
REMARK  status: ('A' for Active; 'I' for Inactive)
REMARK    1  A    between atoms: N1_2  and  C3_4 
REMARK    2  A    between atoms: C4_7  and  C5_8 
REMARK    3  A    between atoms: C5_8  and  N4_12 
REMARK       I    between atoms: N4_12  and  C6_13 
REMARK    4  A    between atoms: C6_13  and  C7_15 
REMARK    5  A    between atoms: C10_19  and  N5_20 
REMARK    6  A    between atoms: N5_20  and  C11_22 
ROOT
HETATM    1  C3  UNL     1      26.496  -6.895  -1.763  1.00  0.00     0.131 A 
HETATM    2  N2  UNL     1      27.571  -6.472  -1.228  1.00  0.00    -0.337 N 
ATOM      3  H2  UNL     1      28.445  -6.888  -1.550  1.00  0.00     0.167 HD
HETATM    4  C4  UNL     1      27.663  -5.454  -0.204  1.00  0.00     0.092 A 
HETATM    5  C8  UNL     1      26.542  -4.916   0.213  1.00  0.00     0.037 A 
HETATM    6  C9  UNL     1      25.260  -5.355  -0.358  1.00  0.00     0.036 A 
HETATM    7  C10 UNL     1      25.248  -6.287  -1.288  1.00  0.00     0.093 A 
ENDROOT
BRANCH   7   8
HETATM    8  N5  UNL     1      24.015  -6.682  -1.805  1.00  0.00    -0.185 N 
ATOM      9  H5  UNL     1      23.939  -7.649  -2.120  1.00  0.00     0.184 HD
BRANCH   8  10
HETATM   10  C11 UNL     1      22.973  -5.960  -1.925  1.00  0.00     0.714 A 
HETATM   11  N6  UNL     1      21.763  -6.347  -1.467  1.00  0.00    -0.115 N 
HETATM   12  N7  UNL     1      20.912  -5.386  -1.747  1.00  0.00    -0.213 N 
ATOM     13  H6  UNL     1      21.550  -7.223  -0.991  1.00  0.00     0.207 HD
HETATM   14  N8  UNL     1      21.510  -4.390  -2.368  1.00  0.00    -0.213 N 
ATOM     15  H7  UNL     1      19.919  -5.408  -1.513  1.00  0.00     0.210 HD
HETATM   16  N9  UNL     1      22.775  -4.748  -2.474  1.00  0.00    -0.115 N 
ATOM     17  H8  UNL     1      21.083  -3.524  -2.698  1.00  0.00     0.210 HD
ATOM     18  H9  UNL     1      23.503  -4.183  -2.913  1.00  0.00     0.207 HD
ENDBRANCH   8  10
ENDBRANCH   7   8
BRANCH   1  19
HETATM   19  N1  UNL     1      26.539  -7.898  -2.759  1.00  0.00    -0.374 N 
HETATM   20  C1  UNL     1      26.219  -9.268  -2.540  1.00  0.00     0.150 C 
HETATM   21  C2  UNL     1      26.937  -7.484  -4.102  1.00  0.00     0.150 C 
ENDBRANCH   1  19
BRANCH   4  22
HETATM   22  C5  UNL     1      28.976  -5.099   0.282  1.00  0.00     0.204 C 
HETATM   23  N3  UNL     1      29.764  -4.386  -0.559  1.00  0.00    -0.372 N 
ATOM     24  H32 UNL     1      29.294  -4.208  -1.447  1.00  0.00     0.158 HD
ATOM     25  H31 UNL     1      30.691  -4.135  -0.216  1.00  0.00     0.158 HD
BRANCH  22  26
HETATM   26  N4  UNL     1      29.610  -5.339   1.479  1.00  0.00    -0.344 NA
HETATM   27  C6  UNL     1      30.219  -5.571   2.630  1.00  0.00     0.355 C 
HETATM   28  O1  UNL     1      31.338  -5.055   3.014  1.00  0.00    -0.248 OA
BRANCH  27  29
HETATM   29  C7  UNL     1      29.609  -6.500   3.619  1.00  0.00     0.348 C 
HETATM   30  O2  UNL     1      28.391  -6.467   3.828  1.00  0.00    -0.295 OA
ENDBRANCH  27  29
ENDBRANCH  22  26
ENDBRANCH   4  22
TORSDOF 6
ENDMDL
MODEL 4
REMARK VINA RESULT: -6.781192013      3.629      7.370
REMARK  6 active torsions:
REMARK  status: ('A' for Active; 'I' for Inactive)
REMARK    1  A    between atoms: N1_2  and  C3_4 
REMARK    2  A    between atoms: C4_7  and  C5_8 
REMARK    3  A    between atoms: C5_8  and  N4_12 
REMARK       I    between atoms: N4_12  and  C6_13 
REMARK    4  A    between atoms: C6_13  and  C7_15 
REMARK    5  A    between atoms: C10_19  and  N5_20 
REMARK    6  A    between atoms: N5_20  and  C11_22 
ROOT
HETATM    1  C3  UNL     1      29.643  -7.155   1.089  1.00  0.00     0.131 A 
HETATM    2  N2  UNL     1      28.654  -7.002   0.303  1.00  0.00    -0.337 N 
ATOM      3  H2  UNL     1      28.447  -7.767  -0.338  1.00  0.00     0.167 HD
HETATM    4  C4  UNL     1      27.796  -5.838   0.238  1.00  0.00     0.092 A 
HETATM    5  C8  UNL     1      28.058  -4.850   1.062  1.00  0.00     0.037 A 
HETATM    6  C9  UNL     1      29.187  -4.955   1.998  1.00  0.00     0.036 A 
HETATM    7  C10 UNL     1      29.927  -6.044   2.004  1.00  0.00     0.093 A 
ENDROOT
BRANCH   7   8
HETATM    8  N5  UNL     1      30.991  -6.109   2.903  1.00  0.00    -0.185 N 
ATOM      9  H5  UNL     1      30.801  -6.540   3.807  1.00  0.00     0.184 HD
BRANCH   8  10
HETATM   10  C11 UNL     1      32.176  -5.685   2.711  1.00  0.00     0.714 A 
HETATM   11  N6  UNL     1      33.036  -5.445   3.725  1.00  0.00    -0.115 N 
HETATM   12  N7  UNL     1      34.161  -5.022   3.193  1.00  0.00    -0.213 N 
ATOM     13  H6  UNL     1      32.847  -5.570   4.719  1.00  0.00     0.207 HD
HETATM   14  N8  UNL     1      34.075  -4.973   1.879  1.00  0.00    -0.213 N 
ATOM     15  H7  UNL     1      34.991  -4.765   3.728  1.00  0.00     0.210 HD
HETATM   16  N9  UNL     1      32.855  -5.382   1.589  1.00  0.00    -0.115 N 
ATOM     17  H8  UNL     1      34.800  -4.680   1.224  1.00  0.00     0.210 HD
ATOM     18  H9  UNL     1      32.477  -5.458   0.645  1.00  0.00     0.207 HD
ENDBRANCH   8  10
ENDBRANCH   7   8
BRANCH   1  19
HETATM   19  N1  UNL     1      30.405  -8.346   1.055  1.00  0.00    -0.374 N 
HETATM   20  C1  UNL     1      30.195  -9.464   1.912  1.00  0.00     0.150 C 
HETATM   21  C2  UNL     1      31.477  -8.421   0.065  1.00  0.00     0.150 C 
ENDBRANCH   1  19
BRANCH   4  22
HETATM   22  C5  UNL     1      26.714  -5.845  -0.719  1.00  0.00     0.204 C 
HETATM   23  N3  UNL     1      25.992  -4.704  -0.830  1.00  0.00    -0.372 N 
ATOM     24  H32 UNL     1      26.331  -3.986  -0.190  1.00  0.00     0.158 HD
ATOM     25  H31 UNL     1      25.228  -4.710  -1.506  1.00  0.00     0.158 HD
BRANCH  22  26
HETATM   26  N4  UNL     1      26.258  -6.814  -1.582  1.00  0.00    -0.344 NA
HETATM   27  C6  UNL     1      25.819  -7.746  -2.411  1.00  0.00     0.355 C 
HETATM   28  O1  UNL     1      25.928  -7.729  -3.698  1.00  0.00    -0.248 OA
BRANCH  27  29
HETATM   29  C7  UNL     1      25.128  -8.951  -1.877  1.00  0.00     0.348 C 
HETATM   30  O2  UNL     1      25.786  -9.942  -1.542  1.00  0.00    -0.295 OA
ENDBRANCH  27  29
ENDBRANCH  22  26
ENDBRANCH   4  22
TORSDOF 6
ENDMDL
MODEL 5
REMARK VINA RESULT: -6.765844538      4.106      7.525
REMARK  6 active torsions:
REMARK  status: ('A' for Active; 'I' for Inactive)
REMARK    1  A    between atoms: N1_2  and  C3_4 
REMARK    2  A    between atoms: C4_7  and  C5_8 
REMARK    3  A    between atoms: C5_8  and  N4_12 
REMARK       I    between atoms: N4_12  and  C6_13 
REMARK    4  A    between atoms: C6_13  and  C7_15 
REMARK    5  A    between atoms: C10_19  and  N5_20 
REMARK    6  A    between atoms: N5_20  and  C11_22 
ROOT
HETATM    1  C3  UNL     1      29.870  -7.087   0.590  1.00  0.00     0.131 A 
HETATM    2  N2  UNL     1      28.663  -6.712   0.445  1.00  0.00    -0.337 N 
ATOM      3  H2  UNL     1      27.979  -7.079   1.107  1.00  0.00     0.167 HD
HETATM    4  C4  UNL     1      28.173  -5.811  -0.577  1.00  0.00     0.092 A 
HETATM    5  C8  UNL     1      29.049  -5.336  -1.430  1.00  0.00     0.037 A 
HETATM    6  C9  UNL     1      30.463  -5.727  -1.325  1.00  0.00     0.036 A 
HETATM    7  C10 UNL     1      30.840  -6.551  -0.370  1.00  0.00     0.093 A 
ENDROOT
BRANCH   7   8
HETATM    8  N5  UNL     1      32.188  -6.902  -0.303  1.00  0.00    -0.185 N 
ATOM      9  H5  UNL     1      32.435  -7.834  -0.638  1.00  0.00     0.184 HD
BRANCH   8  10
HETATM   10  C11 UNL     1      33.142  -6.181   0.134  1.00  0.00     0.714 A 
HETATM   11  N6  UNL     1      34.042  -5.593  -0.683  1.00  0.00    -0.115 N 
HETATM   12  N7  UNL     1      34.885  -4.929   0.075  1.00  0.00    -0.213 N 
ATOM     13  H6  UNL     1      34.064  -5.654  -1.701  1.00  0.00     0.207 HD
HETATM   14  N8  UNL     1      34.577  -5.057   1.350  1.00  0.00    -0.213 N 
ATOM     15  H7  UNL     1      35.673  -4.386  -0.277  1.00  0.00     0.210 HD
HETATM   16  N9  UNL     1      33.506  -5.826   1.380  1.00  0.00    -0.115 N 
ATOM     17  H8  UNL     1      35.066  -4.647   2.147  1.00  0.00     0.210 HD
ATOM     18  H9  UNL     1      33.020  -6.113   2.230  1.00  0.00     0.207 HD
ENDBRANCH   8  10
ENDBRANCH   7   8
BRANCH   1  19
HETATM   19  N1  UNL     1      30.223  -7.974   1.634  1.00  0.00    -0.374 N 
HETATM   20  C1  UNL     1      30.285  -9.392   1.503  1.00  0.00     0.150 C 
HETATM   21  C2  UNL     1      30.548  -7.382   2.929  1.00  0.00     0.150 C 
ENDBRANCH   1  19
BRANCH   4  22
HETATM   22  C5  UNL     1      26.764  -5.495  -0.582  1.00  0.00     0.204 C 
HETATM   23  N3  UNL     1      26.409  -4.291  -0.071  1.00  0.00    -0.372 N 
ATOM     24  H32 UNL     1      27.223  -3.773   0.261  1.00  0.00     0.158 HD
ATOM     25  H31 UNL     1      25.414  -4.068  -0.075  1.00  0.00     0.158 HD
BRANCH  22  26
HETATM   26  N4  UNL     1      25.667  -6.194  -1.029  1.00  0.00    -0.344 NA
HETATM   27  C6  UNL     1      24.612  -6.866  -1.459  1.00  0.00     0.355 C 
HETATM   28  O1  UNL     1      23.384  -6.473  -1.395  1.00  0.00    -0.248 OA
BRANCH  27  29
HETATM   29  C7  UNL     1      24.789  -8.204  -2.085  1.00  0.00     0.348 C 
HETATM   30  O2  UNL     1      25.505  -8.328  -3.084  1.00  0.00    -0.295 OA
ENDBRANCH  27  29
ENDBRANCH  22  26
ENDBRANCH   4  22
TORSDOF 6
ENDMDL
