MODEL 1
REMARK VINA RESULT: -5.127470612      0.000      0.000
REMARK  8 active torsions:
REMARK  status: ('A' for Active; 'I' for Inactive)
REMARK    1  A    between atoms: O1_2  and  C2_3 
REMARK    2  A    between atoms: C3_4  and  N1_5 
REMARK    3  A    between atoms: C4_9  and  O2_10 
REMARK    4  A    between atoms: C5_12  and  N2_13 
REMARK    5  A    between atoms: C8_16  and  N3_17 
REMARK    6  A    between atoms: N3_17  and  O3_19 
REMARK    7  A    between atoms: O3_19  and  C10_20 
REMARK    8  A    between atoms: C14_24  and  O4_25 
ROOT
HETATM    1  C2  UNL     1      33.065  -7.314   1.851  1.00  0.00     0.184 C 
HETATM    2  C3  UNL     1      33.067  -5.799   2.087  1.00  0.00     0.245 C 
HETATM    3  C4  UNL     1      31.719  -5.386   2.586  1.00  0.00     0.186 C 
HETATM    4  C5  UNL     1      30.628  -6.189   1.894  1.00  0.00     0.279 C 
HETATM    5  C8  UNL     1      31.052  -6.596   0.535  1.00  0.00     0.175 C 
HETATM    6  C14 UNL     1      32.271  -7.529   0.595  1.00  0.00     0.176 C 
ENDROOT
BRANCH   5   7
HETATM    7  N3  UNL     1      30.110  -7.183  -0.334  1.00  0.00    -0.288 N 
HETATM    8  C9  UNL     1      29.384  -8.273   0.109  1.00  0.00     0.179 C 
BRANCH   7   9
HETATM    9  O3  UNL     1      29.969  -6.788  -1.529  1.00  0.00    -0.273 OA
BRANCH   9  10
HETATM   10  C10 UNL     1      28.886  -6.160  -2.020  1.00  0.00     0.078 C 
HETATM   11  C11 UNL     1      28.005  -6.988  -2.940  1.00  0.00     0.048 C 
HETATM   12  C12 UNL     1      29.433  -5.038  -2.954  1.00  0.00     0.048 C 
HETATM   13  C13 UNL     1      27.995  -5.433  -1.062  1.00  0.00     0.048 C 
ENDBRANCH   9  10
ENDBRANCH   7   9
ENDBRANCH   5   7
BRANCH   4  14
HETATM   14  N2  UNL     1      29.349  -5.574   2.028  1.00  0.00     0.089 N 
HETATM   15  C6  UNL     1      28.797  -5.861   3.384  1.00  0.00     0.310 C 
HETATM   16  C7  UNL     1      29.445  -4.107   2.044  1.00  0.00     0.310 C 
ENDBRANCH   4  14
BRANCH   6  17
HETATM   17  O4  UNL     1      33.122  -7.281  -0.485  1.00  0.00    -0.391 OA
ATOM     18  H4  UNL     1      32.627  -7.442  -1.280  1.00  0.00     0.210 HD
ENDBRANCH   6  17
BRANCH   3  19
HETATM   19  O2  UNL     1      31.708  -5.618   3.973  1.00  0.00    -0.391 OA
ATOM     20  H2  UNL     1      30.993  -5.107   4.333  1.00  0.00     0.210 HD
ENDBRANCH   3  19
BRANCH   1  21
HETATM   21  O1  UNL     1      34.373  -7.749   1.657  1.00  0.00    -0.386 OA
HETATM   22  C1  UNL     1      34.480  -9.065   2.133  1.00  0.00     0.202 C 
ENDBRANCH   1  21
BRANCH   2  23
HETATM   23  N1  UNL     1      34.167  -5.431   2.913  1.00  0.00    -0.070 N 
ATOM     24  H13 UNL     1      34.767  -6.228   3.127  1.00  0.00     0.274 HD
ATOM     25  H12 UNL     1      34.849  -4.862   2.411  1.00  0.00     0.274 HD
ATOM     26  H11 UNL     1      33.834  -4.969   3.758  1.00  0.00     0.274 HD
ENDBRANCH   2  23
TORSDOF 8
ENDMDL
MODEL 2
REMARK VINA RESULT: -5.057305851      2.288      5.591
REMARK  8 active torsions:
REMARK  status: ('A' for Active; 'I' for Inactive)
REMARK    1  A    between atoms: O1_2  and  C2_3 
REMARK    2  A    between atoms: C3_4  and  N1_5 
REMARK    3  A    between atoms: C4_9  and  O2_10 
REMARK    4  A    between atoms: C5_12  and  N2_13 
REMARK    5  A    between atoms: C8_16  and  N3_17 
REMARK    6  A    between atoms: N3_17  and  O3_19 
REMARK    7  A    between atoms: O3_19  and  C10_20 
REMARK    8  A    between atoms: C14_24  and  O4_25 
ROOT
HETATM    1  C2  UNL     1      27.949  -4.963   1.234  1.00  0.00     0.184 C 
HETATM    2  C3  UNL     1      28.128  -5.312  -0.248  1.00  0.00     0.245 C 
HETATM    3  C4  UNL     1      28.576  -6.734  -0.359  1.00  0.00     0.186 C 
HETATM    4  C5  UNL     1      29.536  -7.078   0.770  1.00  0.00     0.279 C 
HETATM    5  C8  UNL     1      30.285  -5.880   1.210  1.00  0.00     0.175 C 
HETATM    6  C14 UNL     1      29.337  -4.818   1.789  1.00  0.00     0.176 C 
ENDROOT
BRANCH   5   7
HETATM    7  N3  UNL     1      31.357  -6.030   2.115  1.00  0.00    -0.288 N 
HETATM    8  C9  UNL     1      31.091  -6.497   3.389  1.00  0.00     0.179 C 
BRANCH   7   9
HETATM    9  O3  UNL     1      32.535  -5.678   1.816  1.00  0.00    -0.273 OA
BRANCH   9  10
HETATM   10  C10 UNL     1      33.364  -6.346   0.994  1.00  0.00     0.078 C 
HETATM   11  C11 UNL     1      33.663  -7.782   1.384  1.00  0.00     0.048 C 
HETATM   12  C12 UNL     1      34.748  -5.639   1.122  1.00  0.00     0.048 C 
HETATM   13  C13 UNL     1      33.077  -6.317  -0.475  1.00  0.00     0.048 C 
ENDBRANCH   9  10
ENDBRANCH   7   9
ENDBRANCH   5   7
BRANCH   4  14
HETATM   14  N2  UNL     1      30.286  -8.257   0.491  1.00  0.00     0.089 N 
HETATM   15  C6  UNL     1      29.833  -9.361   1.388  1.00  0.00     0.310 C 
HETATM   16  C7  UNL     1      29.975  -8.802  -0.840  1.00  0.00     0.310 C 
ENDBRANCH   4  14
BRANCH   6  17
HETATM   17  O4  UNL     1      29.788  -3.538   1.459  1.00  0.00    -0.391 OA
ATOM     18  H4  UNL     1      30.306  -3.221   2.189  1.00  0.00     0.210 HD
ENDBRANCH   6  17
BRANCH   3  19
HETATM   19  O2  UNL     1      27.420  -7.533  -0.294  1.00  0.00    -0.391 OA
ATOM     20  H2  UNL     1      27.376  -8.022  -1.107  1.00  0.00     0.210 HD
ENDBRANCH   3  19
BRANCH   1  21
HETATM   21  O1  UNL     1      27.275  -3.749   1.341  1.00  0.00    -0.386 OA
HETATM   22  C1  UNL     1      26.407  -3.817   2.441  1.00  0.00     0.202 C 
ENDBRANCH   1  21
BRANCH   2  23
HETATM   23  N1  UNL     1      26.951  -4.980  -0.977  1.00  0.00    -0.070 N 
ATOM     24  H13 UNL     1      26.155  -5.552  -0.697  1.00  0.00     0.274 HD
ATOM     25  H12 UNL     1      26.581  -4.067  -0.710  1.00  0.00     0.274 HD
ATOM     26  H11 UNL     1      27.128  -5.040  -1.979  1.00  0.00     0.274 HD
ENDBRANCH   2  23
TORSDOF 8
ENDMDL
MODEL 3
REMARK VINA RESULT: -5.016334377      2.446      5.992
REMARK  8 active torsions:
REMARK  status: ('A' for Active; 'I' for Inactive)
REMARK    1  A    between atoms: O1_2  and  C2_3 
REMARK    2  A    between atoms: C3_4  and  N1_5 
REMARK    3  A    between atoms: C4_9  and  O2_10 
REMARK    4  A    between atoms: C5_12  and  N2_13 
REMARK    5  A    between atoms: C8_16  and  N3_17 
REMARK    6  A    between atoms: N3_17  and  O3_19 
REMARK    7  A    between atoms: O3_19  and  C10_20 
REMARK    8  A    between atoms: C14_24  and  O4_25 
ROOT
HETATM    1  C2  UNL     1      28.138  -4.880   1.451  1.00  0.00     0.184 C 
HETATM    2  C3  UNL     1      28.566  -5.226   0.020  1.00  0.00     0.245 C 
HETATM    3  C4  UNL     1      29.121  -6.615   0.004  1.00  0.00     0.186 C 
HETATM    4  C5  UNL     1      29.916  -6.883   1.273  1.00  0.00     0.279 C 
HETATM    5  C8  UNL     1      30.507  -5.633   1.801  1.00  0.00     0.175 C 
HETATM    6  C14 UNL     1      29.411  -4.635   2.209  1.00  0.00     0.176 C 
ENDROOT
BRANCH   5   7
HETATM    7  N3  UNL     1      31.433  -5.702   2.862  1.00  0.00    -0.288 N 
HETATM    8  C9  UNL     1      32.784  -5.681   2.568  1.00  0.00     0.179 C 
BRANCH   7   9
HETATM    9  O3  UNL     1      31.062  -5.858   4.062  1.00  0.00    -0.273 OA
BRANCH   9  10
HETATM   10  C10 UNL     1      30.953  -7.040   4.697  1.00  0.00     0.078 C 
HETATM   11  C11 UNL     1      29.551  -7.619   4.776  1.00  0.00     0.048 C 
HETATM   12  C12 UNL     1      31.313  -6.754   6.188  1.00  0.00     0.048 C 
HETATM   13  C13 UNL     1      31.885  -8.142   4.304  1.00  0.00     0.048 C 
ENDBRANCH   9  10
ENDBRANCH   7   9
ENDBRANCH   5   7
BRANCH   4  14
HETATM   14  N2  UNL     1      30.778  -8.010   1.133  1.00  0.00     0.089 N 
HETATM   15  C6  UNL     1      29.996  -9.264   1.335  1.00  0.00     0.310 C 
HETATM   16  C7  UNL     1      31.252  -8.168  -0.251  1.00  0.00     0.310 C 
ENDBRANCH   4  14
BRANCH   6  17
HETATM   17  O4  UNL     1      29.821  -3.329   1.929  1.00  0.00    -0.391 OA
ATOM     18  H4  UNL     1      29.091  -2.754   2.124  1.00  0.00     0.210 HD
ENDBRANCH   6  17
BRANCH   3  19
HETATM   19  O2  UNL     1      28.025  -7.491  -0.094  1.00  0.00    -0.391 OA
ATOM     20  H2  UNL     1      27.856  -7.821   0.780  1.00  0.00     0.210 HD
ENDBRANCH   3  19
BRANCH   1  21
HETATM   21  O1  UNL     1      27.375  -3.715   1.431  1.00  0.00    -0.386 OA
HETATM   22  C1  UNL     1      26.358  -3.833   2.391  1.00  0.00     0.202 C 
ENDBRANCH   1  21
BRANCH   2  23
HETATM   23  N1  UNL     1      27.496  -4.981  -0.887  1.00  0.00    -0.070 N 
ATOM     24  H13 UNL     1      26.613  -4.825  -0.401  1.00  0.00     0.274 HD
ATOM     25  H12 UNL     1      27.580  -4.071  -1.340  1.00  0.00     0.274 HD
ATOM     26  H11 UNL     1      27.428  -5.740  -1.564  1.00  0.00     0.274 HD
ENDBRANCH   2  23
TORSDOF 8
ENDMDL
MODEL 4
REMARK VINA RESULT: -5.010134287      2.135      4.636
REMARK  8 active torsions:
REMARK  status: ('A' for Active; 'I' for Inactive)
REMARK    1  A    between atoms: O1_2  and  C2_3 
REMARK    2  A    between atoms: C3_4  and  N1_5 
REMARK    3  A    between atoms: C4_9  and  O2_10 
REMARK    4  A    between atoms: C5_12  and  N2_13 
REMARK    5  A    between atoms: C8_16  and  N3_17 
REMARK    6  A    between atoms: N3_17  and  O3_19 
REMARK    7  A    between atoms: O3_19  and  C10_20 
REMARK    8  A    between atoms: C14_24  and  O4_25 
ROOT
HETATM    1  C2  UNL     1      30.205  -5.849   2.386  1.00  0.00     0.184 C 
HETATM    2  C3  UNL     1      29.596  -4.634   1.678  1.00  0.00     0.245 C 
HETATM    3  C4  UNL     1      29.075  -5.063   0.343  1.00  0.00     0.186 C 
HETATM    4  C5  UNL     1      29.999  -6.099  -0.279  1.00  0.00     0.279 C 
HETATM    5  C8  UNL     1      31.394  -5.905   0.177  1.00  0.00     0.175 C 
HETATM    6  C14 UNL     1      31.511  -6.111   1.695  1.00  0.00     0.176 C 
ENDROOT
BRANCH   5   7
HETATM    7  N3  UNL     1      32.428  -6.644  -0.433  1.00  0.00    -0.288 N 
HETATM    8  C9  UNL     1      32.533  -7.995  -0.156  1.00  0.00     0.179 C 
BRANCH   7   9
HETATM    9  O3  UNL     1      33.302  -6.091  -1.163  1.00  0.00    -0.273 OA
BRANCH   9  10
HETATM   10  C10 UNL     1      34.633  -6.164  -0.979  1.00  0.00     0.078 C 
HETATM   11  C11 UNL     1      35.130  -5.766   0.400  1.00  0.00     0.048 C 
HETATM   12  C12 UNL     1      35.251  -5.081  -1.915  1.00  0.00     0.048 C 
HETATM   13  C13 UNL     1      35.333  -7.427  -1.373  1.00  0.00     0.048 C 
ENDBRANCH   9  10
ENDBRANCH   7   9
ENDBRANCH   5   7
BRANCH   4  14
HETATM   14  N2  UNL     1      29.777  -6.237  -1.680  1.00  0.00     0.089 N 
HETATM   15  C6  UNL     1      28.628  -7.159  -1.915  1.00  0.00     0.310 C 
HETATM   16  C7  UNL     1      29.291  -4.987  -2.283  1.00  0.00     0.310 C 
ENDBRANCH   4  14
BRANCH   6  17
HETATM   17  O4  UNL     1      32.452  -5.227   2.229  1.00  0.00    -0.391 OA
ATOM     18  H4  UNL     1      32.037  -4.771   2.952  1.00  0.00     0.210 HD
ENDBRANCH   6  17
BRANCH   3  19
HETATM   19  O2  UNL     1      27.793  -5.600   0.559  1.00  0.00    -0.391 OA
ATOM     20  H2  UNL     1      27.168  -4.927   0.317  1.00  0.00     0.210 HD
ENDBRANCH   3  19
BRANCH   1  21
HETATM   21  O1  UNL     1      30.438  -5.531   3.722  1.00  0.00    -0.386 OA
HETATM   22  C1  UNL     1      30.408  -6.716   4.473  1.00  0.00     0.202 C 
ENDBRANCH   1  21
BRANCH   2  23
HETATM   23  N1  UNL     1      28.651  -3.991   2.528  1.00  0.00    -0.070 N 
ATOM     24  H13 UNL     1      28.249  -4.636   3.207  1.00  0.00     0.274 HD
ATOM     25  H12 UNL     1      29.100  -3.348   3.181  1.00  0.00     0.274 HD
ATOM     26  H11 UNL     1      27.934  -3.528   1.971  1.00  0.00     0.274 HD
ENDBRANCH   2  23
TORSDOF 8
ENDMDL
MODEL 5
REMARK VINA RESULT: -4.931810092      1.897      4.695
REMARK  8 active torsions:
REMARK  status: ('A' for Active; 'I' for Inactive)
REMARK    1  A    between atoms: O1_2  and  C2_3 
REMARK    2  A    between atoms: C3_4  and  N1_5 
REMARK    3  A    between atoms: C4_9  and  O2_10 
REMARK    4  A    between atoms: C5_12  and  N2_13 
REMARK    5  A    between atoms: C8_16  and  N3_17 
REMARK    6  A    between atoms: N3_17  and  O3_19 
REMARK    7  A    between atoms: O3_19  and  C10_20 
REMARK    8  A    between atoms: C14_24  and  O4_25 
ROOT
HETATM    1  C2  UNL     1      29.850  -5.499  -0.533  1.00  0.00     0.184 C 
HETATM    2  C3  UNL     1      29.141  -5.463   0.827  1.00  0.00     0.245 C 
HETATM    3  C4  UNL     1      30.166  -5.288   1.901  1.00  0.00     0.186 C 
HETATM    4  C5  UNL     1      31.428  -6.068   1.564  1.00  0.00     0.279 C 
HETATM    5  C8  UNL     1      31.111  -7.257   0.741  1.00  0.00     0.175 C 
HETATM    6  C14 UNL     1      30.508  -6.846  -0.612  1.00  0.00     0.176 C 
ENDROOT
BRANCH   5   7
HETATM    7  N3  UNL     1      32.120  -8.208   0.484  1.00  0.00    -0.288 N 
HETATM    8  C9  UNL     1      32.300  -9.244   1.382  1.00  0.00     0.179 C 
BRANCH   7   9
HETATM    9  O3  UNL     1      32.908  -8.095  -0.499  1.00  0.00    -0.273 OA
BRANCH   9  10
HETATM   10  C10 UNL     1      34.109  -7.489  -0.471  1.00  0.00     0.078 C 
HETATM   11  C11 UNL     1      34.128  -6.041  -0.926  1.00  0.00     0.048 C 
HETATM   12  C12 UNL     1      34.977  -8.218  -1.542  1.00  0.00     0.048 C 
HETATM   13  C13 UNL     1      34.921  -7.588   0.783  1.00  0.00     0.048 C 
ENDBRANCH   9  10
ENDBRANCH   7   9
ENDBRANCH   5   7
BRANCH   4  14
HETATM   14  N2  UNL     1      32.257  -6.261   2.706  1.00  0.00     0.089 N 
HETATM   15  C6  UNL     1      33.148  -5.077   2.883  1.00  0.00     0.310 C 
HETATM   16  C7  UNL     1      31.480  -6.245   3.956  1.00  0.00     0.310 C 
ENDBRANCH   4  14
BRANCH   6  17
HETATM   17  O4  UNL     1      29.534  -7.767  -1.005  1.00  0.00    -0.391 OA
ATOM     18  H4  UNL     1      29.984  -8.525  -1.357  1.00  0.00     0.210 HD
ENDBRANCH   6  17
BRANCH   3  19
HETATM   19  O2  UNL     1      30.437  -3.911   1.988  1.00  0.00    -0.391 OA
ATOM     20  H2  UNL     1      31.121  -3.804   2.638  1.00  0.00     0.210 HD
ENDBRANCH   3  19
BRANCH   1  21
HETATM   21  O1  UNL     1      28.902  -5.382  -1.546  1.00  0.00    -0.386 OA
HETATM   22  C1  UNL     1      29.543  -4.915  -2.703  1.00  0.00     0.202 C 
ENDBRANCH   1  21
BRANCH   2  23
HETATM   23  N1  UNL     1      28.096  -4.496   0.811  1.00  0.00    -0.070 N 
ATOM     24  H13 UNL     1      28.456  -3.548   0.706  1.00  0.00     0.274 HD
ATOM     25  H12 UNL     1      27.545  -4.543  -0.046  1.00  0.00     0.274 HD
ATOM     26  H11 UNL     1      27.514  -4.592   1.643  1.00  0.00     0.274 HD
ENDBRANCH   2  23
TORSDOF 8
ENDMDL
