MODEL 1
REMARK VINA RESULT: -9.211197701      0.000      0.000
REMARK  15 active torsions:
REMARK  status: ('A' for Active; 'I' for Inactive)
REMARK    1  A    between atoms: C2_2  and  C3_3 
REMARK    2  A    between atoms: C3_3  and  C4_4 
REMARK    3  A    between atoms: C4_4  and  C5_5 
REMARK    4  A    between atoms: C5_5  and  C6_6 
REMARK    5  A    between atoms: C6_6  and  N1_7 
REMARK    6  A    between atoms: N1_7  and  C7_9 
REMARK    7  A    between atoms: C10_14  and  C11_15 
REMARK    8  A    between atoms: C13_20  and  N4_21 
REMARK    9  A    between atoms: N4_21  and  C14_23 
REMARK   10  A    between atoms: C15_24  and  O2_25 
REMARK   11  A    between atoms: N6_31  and  C17_32 
REMARK   12  A    between atoms: C17_32  and  C18_33 
REMARK   13  A    between atoms: C18_33  and  C19_34 
REMARK   14  A    between atoms: C19_34  and  C20_35 
REMARK   15  A    between atoms: C20_35  and  C21_36 
REMARK       I    between atoms: C21_36  and  N7_38 
ROOT
HETATM    1  C14 UNL     1      18.816   8.309  21.115  1.00  0.00     0.169 A 
HETATM    2  C15 UNL     1      17.973   7.752  20.178  1.00  0.00     0.190 A 
HETATM    3  N5  UNL     1      16.900   7.275  20.825  1.00  0.00    -0.285 N 
ATOM      4  H5  UNL     1      16.098   6.805  20.408  1.00  0.00     0.172 HD
HETATM    5  C16 UNL     1      17.081   7.532  22.106  1.00  0.00     0.334 A 
HETATM    6  O3  UNL     1      16.219   7.194  22.989  1.00  0.00    -0.246 OA
HETATM    7  N6  UNL     1      18.245   8.166  22.334  1.00  0.00    -0.257 N 
ENDROOT
BRANCH   1   8
HETATM    8  N4  UNL     1      20.026   8.916  20.843  1.00  0.00    -0.321 N 
ATOM      9  H4  UNL     1      19.987   9.934  20.876  1.00  0.00     0.169 HD
BRANCH   8  10
HETATM   10  C13 UNL     1      21.169   8.465  20.562  1.00  0.00     0.152 A 
HETATM   11  C7  UNL     1      22.276   8.663  21.349  1.00  0.00     0.146 A 
HETATM   12  N2  UNL     1      23.445   8.109  20.922  1.00  0.00    -0.341 N 
HETATM   13  C8  UNL     1      23.548   7.394  19.788  1.00  0.00     0.037 A 
ATOM     14  H2  UNL     1      24.282   8.242  21.490  1.00  0.00     0.167 HD
HETATM   15  C9  UNL     1      24.869   6.828  19.411  1.00  0.00     0.070 C 
HETATM   16  C10 UNL     1      22.433   7.197  19.001  1.00  0.00     0.102 A 
HETATM   17  N3  UNL     1      21.279   7.736  19.409  1.00  0.00    -0.335 N 
ATOM     18  H3  UNL     1      20.447   7.598  18.836  1.00  0.00     0.168 HD
BRANCH  11  19
HETATM   19  N1  UNL     1      22.181   9.339  22.416  1.00  0.00    -0.373 N 
ATOM     20  H1  UNL     1      22.036   8.822  23.283  1.00  0.00     0.161 HD
BRANCH  19  21
HETATM   21  C6  UNL     1      22.259  10.769  22.513  1.00  0.00     0.121 C 
BRANCH  21  22
HETATM   22  C5  UNL     1      23.657  11.295  22.387  1.00  0.00     0.020 C 
BRANCH  22  23
HETATM   23  C4  UNL     1      24.309  11.304  23.752  1.00  0.00     0.002 C 
BRANCH  23  24
HETATM   24  C3  UNL     1      25.415  12.303  23.857  1.00  0.00    -0.000 C 
BRANCH  24  25
HETATM   25  C2  UNL     1      26.334  12.113  25.019  1.00  0.00    -0.005 C 
HETATM   26  C1  UNL     1      25.464  11.822  26.240  1.00  0.00     0.005 C 
ENDBRANCH  24  25
ENDBRANCH  23  24
ENDBRANCH  22  23
ENDBRANCH  21  22
ENDBRANCH  19  21
ENDBRANCH  11  19
BRANCH  16  27
HETATM   27  C11 UNL     1      22.505   6.420  17.743  1.00  0.00     0.174 C 
HETATM   28  C12 UNL     1      22.323   4.947  17.824  1.00  0.00     0.098 C 
HETATM   29  O1  UNL     1      22.710   6.958  16.632  1.00  0.00    -0.291 OA
ENDBRANCH  16  27
ENDBRANCH   8  10
ENDBRANCH   1   8
BRANCH   2  30
HETATM   30  O2  UNL     1      18.131   7.659  18.798  1.00  0.00    -0.343 OA
ATOM     31  H2  UNL     1      18.131   6.887  18.245  1.00  0.00     0.219 HD
ENDBRANCH   2  30
BRANCH   7  32
HETATM   32  C17 UNL     1      18.774   8.517  23.590  1.00  0.00     0.099 C 
BRANCH  32  33
HETATM   33  C18 UNL     1      18.410   9.707  24.336  1.00  0.00    -0.008 C 
BRANCH  33  34
HETATM   34  C19 UNL     1      18.386   9.800  25.793  1.00  0.00     0.038 C 
BRANCH  34  35
HETATM   35  C20 UNL     1      18.332  11.150  26.394  1.00  0.00     0.107 C 
BRANCH  35  36
HETATM   36  C21 UNL     1      19.761  11.488  26.794  1.00  0.00     0.220 C 
HETATM   37  O4  UNL     1      20.245  11.131  27.893  1.00  0.00    -0.273 OA
HETATM   38  N7  UNL     1      20.577  12.228  25.904  1.00  0.00    -0.351 N 
HETATM   39  C22 UNL     1      20.076  12.671  24.615  1.00  0.00     0.130 C 
HETATM   40  C28 UNL     1      21.934  12.569  26.235  1.00  0.00     0.130 C 
HETATM   41  C23 UNL     1      20.533  14.078  24.285  1.00  0.00     0.004 C 
HETATM   42  C24 UNL     1      20.253  15.004  25.445  1.00  0.00     0.007 C 
HETATM   43  C27 UNL     1      22.052  14.033  24.278  1.00  0.00     0.012 C 
HETATM   44  C25 UNL     1      21.449  14.968  26.336  1.00  0.00     0.007 C 
HETATM   45  C26 UNL     1      22.358  13.912  25.737  1.00  0.00     0.004 C 
ENDBRANCH  35  36
ENDBRANCH  34  35
ENDBRANCH  33  34
ENDBRANCH  32  33
ENDBRANCH   7  32
TORSDOF 15
ENDMDL
MODEL 2
REMARK VINA RESULT: -8.956023598      1.566      1.871
REMARK  15 active torsions:
REMARK  status: ('A' for Active; 'I' for Inactive)
REMARK    1  A    between atoms: C2_2  and  C3_3 
REMARK    2  A    between atoms: C3_3  and  C4_4 
REMARK    3  A    between atoms: C4_4  and  C5_5 
REMARK    4  A    between atoms: C5_5  and  C6_6 
REMARK    5  A    between atoms: C6_6  and  N1_7 
REMARK    6  A    between atoms: N1_7  and  C7_9 
REMARK    7  A    between atoms: C10_14  and  C11_15 
REMARK    8  A    between atoms: C13_20  and  N4_21 
REMARK    9  A    between atoms: N4_21  and  C14_23 
REMARK   10  A    between atoms: C15_24  and  O2_25 
REMARK   11  A    between atoms: N6_31  and  C17_32 
REMARK   12  A    between atoms: C17_32  and  C18_33 
REMARK   13  A    between atoms: C18_33  and  C19_34 
REMARK   14  A    between atoms: C19_34  and  C20_35 
REMARK   15  A    between atoms: C20_35  and  C21_36 
REMARK       I    between atoms: C21_36  and  N7_38 
ROOT
HETATM    1  C14 UNL     1      19.382   8.006  20.108  1.00  0.00     0.169 A 
HETATM    2  C15 UNL     1      18.822   7.622  18.908  1.00  0.00     0.190 A 
HETATM    3  N5  UNL     1      17.682   6.972  19.180  1.00  0.00    -0.285 N 
ATOM      4  H5  UNL     1      17.038   6.564  18.502  1.00  0.00     0.172 HD
HETATM    5  C16 UNL     1      17.550   6.960  20.491  1.00  0.00     0.334 A 
HETATM    6  O3  UNL     1      16.550   6.405  21.063  1.00  0.00    -0.246 OA
HETATM    7  N6  UNL     1      18.571   7.584  21.106  1.00  0.00    -0.257 N 
ENDROOT
BRANCH   1   8
HETATM    8  N4  UNL     1      20.561   8.711  20.252  1.00  0.00    -0.321 N 
ATOM      9  H4  UNL     1      20.425   9.671  20.568  1.00  0.00     0.169 HD
BRANCH   8  10
HETATM   10  C13 UNL     1      21.770   8.407  20.071  1.00  0.00     0.152 A 
HETATM   11  C7  UNL     1      22.819   9.156  20.544  1.00  0.00     0.146 A 
HETATM   12  N2  UNL     1      24.074   8.700  20.278  1.00  0.00    -0.341 N 
HETATM   13  C8  UNL     1      24.315   7.573  19.586  1.00  0.00     0.037 A 
ATOM     14  H2  UNL     1      24.870   9.240  20.620  1.00  0.00     0.167 HD
HETATM   15  C9  UNL     1      25.722   7.159  19.350  1.00  0.00     0.070 C 
HETATM   16  C10 UNL     1      23.259   6.824  19.113  1.00  0.00     0.102 A 
HETATM   17  N3  UNL     1      22.021   7.260  19.367  1.00  0.00    -0.335 N 
ATOM     18  H3  UNL     1      21.230   6.715  19.022  1.00  0.00     0.168 HD
BRANCH  11  19
HETATM   19  N1  UNL     1      22.593  10.221  21.193  1.00  0.00    -0.373 N 
ATOM     20  H1  UNL     1      21.626  10.407  21.458  1.00  0.00     0.161 HD
BRANCH  19  21
HETATM   21  C6  UNL     1      23.578  11.187  21.589  1.00  0.00     0.121 C 
BRANCH  21  22
HETATM   22  C5  UNL     1      23.912  11.127  23.048  1.00  0.00     0.020 C 
BRANCH  22  23
HETATM   23  C4  UNL     1      24.920  12.207  23.371  1.00  0.00     0.002 C 
BRANCH  23  24
HETATM   24  C3  UNL     1      25.856  11.815  24.468  1.00  0.00    -0.000 C 
BRANCH  24  25
HETATM   25  C2  UNL     1      26.829  12.870  24.880  1.00  0.00    -0.005 C 
HETATM   26  C1  UNL     1      26.033  13.971  25.578  1.00  0.00     0.005 C 
ENDBRANCH  24  25
ENDBRANCH  23  24
ENDBRANCH  22  23
ENDBRANCH  21  22
ENDBRANCH  19  21
ENDBRANCH  11  19
BRANCH  16  27
HETATM   27  C11 UNL     1      23.481   5.578  18.344  1.00  0.00     0.174 C 
HETATM   28  C12 UNL     1      23.285   5.624  16.871  1.00  0.00     0.098 C 
HETATM   29  O1  UNL     1      23.823   4.504  18.889  1.00  0.00    -0.291 OA
ENDBRANCH  16  27
ENDBRANCH   8  10
ENDBRANCH   1   8
BRANCH   2  30
HETATM   30  O2  UNL     1      19.289   7.831  17.613  1.00  0.00    -0.343 OA
ATOM     31  H2  UNL     1      19.432   7.199  16.919  1.00  0.00     0.219 HD
ENDBRANCH   2  30
BRANCH   7  32
HETATM   32  C17 UNL     1      18.775   7.684  22.495  1.00  0.00     0.099 C 
BRANCH  32  33
HETATM   33  C18 UNL     1      18.104   8.635  23.361  1.00  0.00    -0.008 C 
BRANCH  33  34
HETATM   34  C19 UNL     1      18.761   9.416  24.406  1.00  0.00     0.038 C 
BRANCH  34  35
HETATM   35  C20 UNL     1      18.485  10.868  24.456  1.00  0.00     0.107 C 
BRANCH  35  36
HETATM   36  C21 UNL     1      19.746  11.550  23.943  1.00  0.00     0.220 C 
HETATM   37  O4  UNL     1      20.377  11.120  22.950  1.00  0.00    -0.273 OA
HETATM   38  N7  UNL     1      20.229  12.707  24.602  1.00  0.00    -0.351 N 
HETATM   39  C22 UNL     1      19.543  13.257  25.759  1.00  0.00     0.130 C 
HETATM   40  C28 UNL     1      21.413  13.389  24.155  1.00  0.00     0.130 C 
HETATM   41  C23 UNL     1      20.516  13.719  26.825  1.00  0.00     0.004 C 
HETATM   42  C24 UNL     1      21.523  12.633  27.121  1.00  0.00     0.007 C 
HETATM   43  C27 UNL     1      21.382  14.781  26.167  1.00  0.00     0.012 C 
HETATM   44  C25 UNL     1      22.667  12.825  26.182  1.00  0.00     0.007 C 
HETATM   45  C26 UNL     1      22.240  13.953  25.262  1.00  0.00     0.004 C 
ENDBRANCH  35  36
ENDBRANCH  34  35
ENDBRANCH  33  34
ENDBRANCH  32  33
ENDBRANCH   7  32
TORSDOF 15
ENDMDL
MODEL 3
REMARK VINA RESULT: -8.940439575      2.576      6.154
REMARK  15 active torsions:
REMARK  status: ('A' for Active; 'I' for Inactive)
REMARK    1  A    between atoms: C2_2  and  C3_3 
REMARK    2  A    between atoms: C3_3  and  C4_4 
REMARK    3  A    between atoms: C4_4  and  C5_5 
REMARK    4  A    between atoms: C5_5  and  C6_6 
REMARK    5  A    between atoms: C6_6  and  N1_7 
REMARK    6  A    between atoms: N1_7  and  C7_9 
REMARK    7  A    between atoms: C10_14  and  C11_15 
REMARK    8  A    between atoms: C13_20  and  N4_21 
REMARK    9  A    between atoms: N4_21  and  C14_23 
REMARK   10  A    between atoms: C15_24  and  O2_25 
REMARK   11  A    between atoms: N6_31  and  C17_32 
REMARK   12  A    between atoms: C17_32  and  C18_33 
REMARK   13  A    between atoms: C18_33  and  C19_34 
REMARK   14  A    between atoms: C19_34  and  C20_35 
REMARK   15  A    between atoms: C20_35  and  C21_36 
REMARK       I    between atoms: C21_36  and  N7_38 
ROOT
HETATM    1  C14 UNL     1      19.306   8.337  20.872  1.00  0.00     0.169 A 
HETATM    2  C15 UNL     1      17.980   8.120  21.181  1.00  0.00     0.190 A 
HETATM    3  N5  UNL     1      17.829   8.326  22.497  1.00  0.00    -0.285 N 
ATOM      4  H5  UNL     1      16.963   8.243  23.029  1.00  0.00     0.172 HD
HETATM    5  C16 UNL     1      19.013   8.655  22.972  1.00  0.00     0.334 A 
HETATM    6  O3  UNL     1      19.194   8.914  24.212  1.00  0.00    -0.246 OA
HETATM    7  N6  UNL     1      19.954   8.675  22.011  1.00  0.00    -0.257 N 
ENDROOT
BRANCH   1   8
HETATM    8  N4  UNL     1      19.862   8.236  19.612  1.00  0.00    -0.321 N 
ATOM      9  H4  UNL     1      19.687   9.050  19.023  1.00  0.00     0.169 HD
BRANCH   8  10
HETATM   10  C13 UNL     1      20.540   7.339  19.042  1.00  0.00     0.152 A 
HETATM   11  C7  UNL     1      19.988   6.223  18.465  1.00  0.00     0.146 A 
HETATM   12  N2  UNL     1      20.845   5.342  17.878  1.00  0.00    -0.341 N 
HETATM   13  C8  UNL     1      22.177   5.524  17.846  1.00  0.00     0.037 A 
ATOM     14  H2  UNL     1      20.459   4.505  17.442  1.00  0.00     0.167 HD
HETATM   15  C9  UNL     1      23.027   4.505  17.178  1.00  0.00     0.070 C 
HETATM   16  C10 UNL     1      22.727   6.647  18.427  1.00  0.00     0.102 A 
HETATM   17  N3  UNL     1      21.896   7.520  19.007  1.00  0.00    -0.335 N 
ATOM     18  H3  UNL     1      22.290   8.355  19.440  1.00  0.00     0.168 HD
BRANCH  11  19
HETATM   19  N1  UNL     1      18.734   6.049  18.498  1.00  0.00    -0.373 N 
ATOM     20  H1  UNL     1      18.156   6.868  18.683  1.00  0.00     0.161 HD
BRANCH  19  21
HETATM   21  C6  UNL     1      18.054   4.801  18.298  1.00  0.00     0.121 C 
BRANCH  21  22
HETATM   22  C5  UNL     1      16.686   4.768  18.909  1.00  0.00     0.020 C 
BRANCH  22  23
HETATM   23  C4  UNL     1      15.659   4.568  17.817  1.00  0.00     0.002 C 
BRANCH  23  24
HETATM   24  C3  UNL     1      14.333   5.169  18.154  1.00  0.00    -0.000 C 
BRANCH  24  25
HETATM   25  C2  UNL     1      13.169   4.595  17.414  1.00  0.00    -0.005 C 
HETATM   26  C1  UNL     1      13.525   3.152  17.062  1.00  0.00     0.005 C 
ENDBRANCH  24  25
ENDBRANCH  23  24
ENDBRANCH  22  23
ENDBRANCH  21  22
ENDBRANCH  19  21
ENDBRANCH  11  19
BRANCH  16  27
HETATM   27  C11 UNL     1      24.189   6.883  18.417  1.00  0.00     0.174 C 
HETATM   28  C12 UNL     1      24.925   6.747  19.700  1.00  0.00     0.098 C 
HETATM   29  O1  UNL     1      24.812   7.189  17.375  1.00  0.00    -0.291 OA
ENDBRANCH  16  27
ENDBRANCH   8  10
ENDBRANCH   1   8
BRANCH   2  30
HETATM   30  O2  UNL     1      16.931   7.755  20.342  1.00  0.00    -0.343 OA
ATOM     31  H2  UNL     1      16.131   7.288  20.552  1.00  0.00     0.219 HD
ENDBRANCH   2  30
BRANCH   7  32
HETATM   32  C17 UNL     1      21.330   8.914  22.192  1.00  0.00     0.099 C 
BRANCH  32  33
HETATM   33  C18 UNL     1      21.913  10.213  22.468  1.00  0.00    -0.008 C 
BRANCH  33  34
HETATM   34  C19 UNL     1      23.334  10.528  22.350  1.00  0.00     0.038 C 
BRANCH  34  35
HETATM   35  C20 UNL     1      23.776  11.876  22.769  1.00  0.00     0.107 C 
BRANCH  35  36
HETATM   36  C21 UNL     1      23.544  11.943  24.272  1.00  0.00     0.220 C 
HETATM   37  O4  UNL     1      24.166  11.207  25.074  1.00  0.00    -0.273 OA
HETATM   38  N7  UNL     1      22.598  12.860  24.792  1.00  0.00    -0.351 N 
HETATM   39  C22 UNL     1      21.844  13.741  23.916  1.00  0.00     0.130 C 
HETATM   40  C28 UNL     1      22.345  12.962  26.203  1.00  0.00     0.130 C 
HETATM   41  C23 UNL     1      20.398  13.865  24.350  1.00  0.00     0.004 C 
HETATM   42  C24 UNL     1      19.798  12.495  24.569  1.00  0.00     0.007 C 
HETATM   43  C27 UNL     1      20.432  14.422  25.764  1.00  0.00     0.012 C 
HETATM   44  C25 UNL     1      20.053  12.124  25.992  1.00  0.00     0.007 C 
HETATM   45  C26 UNL     1      20.919  13.241  26.543  1.00  0.00     0.004 C 
ENDBRANCH  35  36
ENDBRANCH  34  35
ENDBRANCH  33  34
ENDBRANCH  32  33
ENDBRANCH   7  32
TORSDOF 15
ENDMDL
MODEL 4
REMARK VINA RESULT: -8.863164789      2.304      8.294
REMARK  15 active torsions:
REMARK  status: ('A' for Active; 'I' for Inactive)
REMARK    1  A    between atoms: C2_2  and  C3_3 
REMARK    2  A    between atoms: C3_3  and  C4_4 
REMARK    3  A    between atoms: C4_4  and  C5_5 
REMARK    4  A    between atoms: C5_5  and  C6_6 
REMARK    5  A    between atoms: C6_6  and  N1_7 
REMARK    6  A    between atoms: N1_7  and  C7_9 
REMARK    7  A    between atoms: C10_14  and  C11_15 
REMARK    8  A    between atoms: C13_20  and  N4_21 
REMARK    9  A    between atoms: N4_21  and  C14_23 
REMARK   10  A    between atoms: C15_24  and  O2_25 
REMARK   11  A    between atoms: N6_31  and  C17_32 
REMARK   12  A    between atoms: C17_32  and  C18_33 
REMARK   13  A    between atoms: C18_33  and  C19_34 
REMARK   14  A    between atoms: C19_34  and  C20_35 
REMARK   15  A    between atoms: C20_35  and  C21_36 
REMARK       I    between atoms: C21_36  and  N7_38 
ROOT
HETATM    1  C14 UNL     1      22.048  10.986  21.881  1.00  0.00     0.169 A 
HETATM    2  C15 UNL     1      23.184  11.504  21.296  1.00  0.00     0.190 A 
HETATM    3  N5  UNL     1      23.792  10.509  20.635  1.00  0.00    -0.285 N 
ATOM      4  H5  UNL     1      24.658  10.575  20.100  1.00  0.00     0.172 HD
HETATM    5  C16 UNL     1      23.058   9.428  20.810  1.00  0.00     0.334 A 
HETATM    6  O3  UNL     1      23.384   8.302  20.296  1.00  0.00    -0.246 OA
HETATM    7  N6  UNL     1      21.975   9.671  21.569  1.00  0.00    -0.257 N 
ENDROOT
BRANCH   1   8
HETATM    8  N4  UNL     1      21.143  11.699  22.641  1.00  0.00    -0.321 N 
ATOM      9  H4  UNL     1      20.486  12.246  22.085  1.00  0.00     0.169 HD
BRANCH   8  10
HETATM   10  C13 UNL     1      20.966  11.812  23.884  1.00  0.00     0.152 A 
HETATM   11  C7  UNL     1      21.775  12.562  24.701  1.00  0.00     0.146 A 
HETATM   12  N2  UNL     1      21.456  12.596  26.024  1.00  0.00    -0.341 N 
HETATM   13  C8  UNL     1      20.405  11.939  26.544  1.00  0.00     0.037 A 
ATOM     14  H2  UNL     1      22.043  13.148  26.651  1.00  0.00     0.167 HD
HETATM   15  C9  UNL     1      20.140  12.043  28.002  1.00  0.00     0.070 C 
HETATM   16  C10 UNL     1      19.595  11.187  25.721  1.00  0.00     0.102 A 
HETATM   17  N3  UNL     1      19.897  11.144  24.418  1.00  0.00    -0.335 N 
ATOM     18  H3  UNL     1      19.305  10.592  23.798  1.00  0.00     0.168 HD
BRANCH  11  19
HETATM   19  N1  UNL     1      22.768  13.178  24.213  1.00  0.00    -0.373 N 
ATOM     20  H1  UNL     1      22.846  13.203  23.196  1.00  0.00     0.161 HD
BRANCH  19  21
HETATM   21  C6  UNL     1      23.794  13.846  24.963  1.00  0.00     0.121 C 
BRANCH  21  22
HETATM   22  C5  UNL     1      24.920  12.941  25.360  1.00  0.00     0.020 C 
BRANCH  22  23
HETATM   23  C4  UNL     1      24.898  12.752  26.861  1.00  0.00     0.002 C 
BRANCH  23  24
HETATM   24  C3  UNL     1      24.626  11.338  27.261  1.00  0.00    -0.000 C 
BRANCH  24  25
HETATM   25  C2  UNL     1      23.631  11.170  28.362  1.00  0.00    -0.005 C 
HETATM   26  C1  UNL     1      23.999   9.892  29.113  1.00  0.00     0.005 C 
ENDBRANCH  24  25
ENDBRANCH  23  24
ENDBRANCH  22  23
ENDBRANCH  21  22
ENDBRANCH  19  21
ENDBRANCH  11  19
BRANCH  16  27
HETATM   27  C11 UNL     1      18.430  10.445  26.253  1.00  0.00     0.174 C 
HETATM   28  C12 UNL     1      17.207  11.219  26.590  1.00  0.00     0.098 C 
HETATM   29  O1  UNL     1      18.444   9.205  26.425  1.00  0.00    -0.291 OA
ENDBRANCH  16  27
ENDBRANCH   8  10
ENDBRANCH   1   8
BRANCH   2  30
HETATM   30  O2  UNL     1      23.678  12.805  21.334  1.00  0.00    -0.343 OA
ATOM     31  H2  UNL     1      24.479  13.153  20.963  1.00  0.00     0.219 HD
ENDBRANCH   2  30
BRANCH   7  32
HETATM   32  C17 UNL     1      21.030   8.724  22.005  1.00  0.00     0.099 C 
BRANCH  32  33
HETATM   33  C18 UNL     1      19.759   8.466  21.355  1.00  0.00    -0.008 C 
BRANCH  33  34
HETATM   34  C19 UNL     1      19.531   7.420  20.360  1.00  0.00     0.038 C 
BRANCH  34  35
HETATM   35  C20 UNL     1      20.217   7.550  19.057  1.00  0.00     0.107 C 
BRANCH  35  36
HETATM   36  C21 UNL     1      20.276   6.146  18.473  1.00  0.00     0.220 C 
HETATM   37  O4  UNL     1      19.381   5.296  18.694  1.00  0.00    -0.273 OA
HETATM   38  N7  UNL     1      21.372   5.776  17.656  1.00  0.00    -0.351 N 
HETATM   39  C22 UNL     1      22.442   6.713  17.362  1.00  0.00     0.130 C 
HETATM   40  C28 UNL     1      21.472   4.462  17.080  1.00  0.00     0.130 C 
HETATM   41  C23 UNL     1      23.802   6.046  17.399  1.00  0.00     0.004 C 
HETATM   42  C24 UNL     1      23.963   5.255  18.675  1.00  0.00     0.007 C 
HETATM   43  C27 UNL     1      23.756   4.947  16.350  1.00  0.00     0.012 C 
HETATM   44  C25 UNL     1      23.444   3.880  18.410  1.00  0.00     0.007 C 
HETATM   45  C26 UNL     1      22.868   3.938  17.009  1.00  0.00     0.004 C 
ENDBRANCH  35  36
ENDBRANCH  34  35
ENDBRANCH  33  34
ENDBRANCH  32  33
ENDBRANCH   7  32
TORSDOF 15
ENDMDL
MODEL 5
REMARK VINA RESULT: -8.856712183      2.108      4.785
REMARK  15 active torsions:
REMARK  status: ('A' for Active; 'I' for Inactive)
REMARK    1  A    between atoms: C2_2  and  C3_3 
REMARK    2  A    between atoms: C3_3  and  C4_4 
REMARK    3  A    between atoms: C4_4  and  C5_5 
REMARK    4  A    between atoms: C5_5  and  C6_6 
REMARK    5  A    between atoms: C6_6  and  N1_7 
REMARK    6  A    between atoms: N1_7  and  C7_9 
REMARK    7  A    between atoms: C10_14  and  C11_15 
REMARK    8  A    between atoms: C13_20  and  N4_21 
REMARK    9  A    between atoms: N4_21  and  C14_23 
REMARK   10  A    between atoms: C15_24  and  O2_25 
REMARK   11  A    between atoms: N6_31  and  C17_32 
REMARK   12  A    between atoms: C17_32  and  C18_33 
REMARK   13  A    between atoms: C18_33  and  C19_34 
REMARK   14  A    between atoms: C19_34  and  C20_35 
REMARK   15  A    between atoms: C20_35  and  C21_36 
REMARK       I    between atoms: C21_36  and  N7_38 
ROOT
HETATM    1  C14 UNL     1      18.262   9.092  25.013  1.00  0.00     0.169 A 
HETATM    2  C15 UNL     1      17.672   7.889  25.339  1.00  0.00     0.190 A 
HETATM    3  N5  UNL     1      17.051   8.045  26.517  1.00  0.00    -0.285 N 
ATOM      4  H5  UNL     1      16.523   7.336  27.024  1.00  0.00     0.172 HD
HETATM    5  C16 UNL     1      17.253   9.292  26.894  1.00  0.00     0.334 A 
HETATM    6  O3  UNL     1      16.780   9.749  27.992  1.00  0.00    -0.246 OA
HETATM    7  N6  UNL     1      17.993   9.975  26.002  1.00  0.00    -0.257 N 
ENDROOT
BRANCH   1   8
HETATM    8  N4  UNL     1      18.989   9.342  23.866  1.00  0.00    -0.321 N 
ATOM      9  H4  UNL     1      19.645  10.117  23.961  1.00  0.00     0.169 HD
BRANCH   8  10
HETATM   10  C13 UNL     1      19.005   8.806  22.726  1.00  0.00     0.152 A 
HETATM   11  C7  UNL     1      20.159   8.536  22.031  1.00  0.00     0.146 A 
HETATM   12  N2  UNL     1      20.022   7.946  20.812  1.00  0.00    -0.341 N 
HETATM   13  C8  UNL     1      18.830   7.627  20.279  1.00  0.00     0.037 A 
ATOM     14  H2  UNL     1      20.865   7.736  20.277  1.00  0.00     0.167 HD
HETATM   15  C9  UNL     1      18.788   6.983  18.941  1.00  0.00     0.070 C 
HETATM   16  C10 UNL     1      17.674   7.900  20.980  1.00  0.00     0.102 A 
HETATM   17  N3  UNL     1      17.794   8.479  22.179  1.00  0.00    -0.335 N 
ATOM     18  H3  UNL     1      16.947   8.685  22.709  1.00  0.00     0.168 HD
BRANCH  11  19
HETATM   19  N1  UNL     1      21.283   8.840  22.531  1.00  0.00    -0.373 N 
ATOM     20  H1  UNL     1      21.277   9.327  23.427  1.00  0.00     0.161 HD
BRANCH  19  21
HETATM   21  C6  UNL     1      22.564   8.558  21.948  1.00  0.00     0.121 C 
BRANCH  21  22
HETATM   22  C5  UNL     1      23.282   9.786  21.478  1.00  0.00     0.020 C 
BRANCH  22  23
HETATM   23  C4  UNL     1      23.359   9.769  19.968  1.00  0.00     0.002 C 
BRANCH  23  24
HETATM   24  C3  UNL     1      24.526   8.987  19.457  1.00  0.00    -0.000 C 
BRANCH  24  25
HETATM   25  C2  UNL     1      24.193   7.647  18.889  1.00  0.00    -0.005 C 
HETATM   26  C1  UNL     1      24.938   6.606  19.721  1.00  0.00     0.005 C 
ENDBRANCH  24  25
ENDBRANCH  23  24
ENDBRANCH  22  23
ENDBRANCH  21  22
ENDBRANCH  19  21
ENDBRANCH  11  19
BRANCH  16  27
HETATM   27  C11 UNL     1      16.341   7.568  20.428  1.00  0.00     0.174 C 
HETATM   28  C12 UNL     1      15.723   6.278  20.829  1.00  0.00     0.098 C 
HETATM   29  O1  UNL     1      15.729   8.330  19.645  1.00  0.00    -0.291 OA
ENDBRANCH  16  27
ENDBRANCH   8  10
ENDBRANCH   1   8
BRANCH   2  30
HETATM   30  O2  UNL     1      17.672   6.690  24.633  1.00  0.00    -0.343 OA
ATOM     31  H2  UNL     1      16.963   6.072  24.501  1.00  0.00     0.219 HD
ENDBRANCH   2  30
BRANCH   7  32
HETATM   32  C17 UNL     1      18.450  11.300  26.135  1.00  0.00     0.099 C 
BRANCH  32  33
HETATM   33  C18 UNL     1      19.563  11.708  26.970  1.00  0.00    -0.008 C 
BRANCH  33  34
HETATM   34  C19 UNL     1      20.486  12.796  26.653  1.00  0.00     0.038 C 
BRANCH  34  35
HETATM   35  C20 UNL     1      20.703  13.118  25.226  1.00  0.00     0.107 C 
BRANCH  35  36
HETATM   36  C21 UNL     1      21.775  12.154  24.738  1.00  0.00     0.220 C 
HETATM   37  O4  UNL     1      21.492  11.021  24.283  1.00  0.00    -0.273 OA
HETATM   38  N7  UNL     1      23.137  12.537  24.797  1.00  0.00    -0.351 N 
HETATM   39  C22 UNL     1      23.532  13.836  25.314  1.00  0.00     0.130 C 
HETATM   40  C28 UNL     1      24.185  11.663  24.346  1.00  0.00     0.130 C 
HETATM   41  C23 UNL     1      24.773  13.746  26.178  1.00  0.00     0.004 C 
HETATM   42  C24 UNL     1      24.614  12.656  27.211  1.00  0.00     0.007 C 
HETATM   43  C27 UNL     1      25.863  13.176  25.285  1.00  0.00     0.012 C 
HETATM   44  C25 UNL     1      25.112  11.390  26.597  1.00  0.00     0.007 C 
HETATM   45  C26 UNL     1      25.435  11.748  25.159  1.00  0.00     0.004 C 
ENDBRANCH  35  36
ENDBRANCH  34  35
ENDBRANCH  33  34
ENDBRANCH  32  33
ENDBRANCH   7  32
TORSDOF 15
ENDMDL
