MODEL 1
REMARK VINA RESULT: -5.082618612      0.000      0.000
REMARK  2 active torsions:
REMARK  status: ('A' for Active; 'I' for Inactive)
REMARK    1  A    between atoms: N1_2  and  C2_3 
REMARK    2  A    between atoms: C6_8  and  N2_9 
ROOT
HETATM    1  N2  UNL     1      17.515   3.684  14.049  1.00  0.00    -0.299 N 
ATOM      2  H2  UNL     1      18.021   4.562  13.939  1.00  0.00     0.173 HD
HETATM    3  C7  UNL     1      17.414   3.088  15.311  1.00  0.00     0.179 C 
HETATM    4  N3  UNL     1      17.349   2.589  16.375  1.00  0.00    -0.172 NA
ENDROOT
BRANCH   1   5
HETATM    5  C6  UNL     1      16.908   3.063  12.916  1.00  0.00     0.298 C 
HETATM    6  N1  UNL     1      17.407   3.484  11.640  1.00  0.00    -0.037 N 
HETATM    7  C1  UNL     1      16.510   4.486  11.043  1.00  0.00     0.276 C 
HETATM    8  C3  UNL     1      17.374   2.336  10.751  1.00  0.00     0.241 C 
HETATM    9  C4  UNL     1      16.704   1.209  11.508  1.00  0.00     0.032 C 
HETATM   10  C5  UNL     1      17.076   1.545  12.941  1.00  0.00     0.057 C 
BRANCH   6  11
HETATM   11  C2  UNL     1      18.717   4.064  11.656  1.00  0.00     0.353 C 
HETATM   12 CL1  UNL     1      19.973   3.006  10.999  1.00  0.00    -0.101 Cl
ENDBRANCH   6  11
ENDBRANCH   1   5
TORSDOF 2
ENDMDL
MODEL 2
REMARK VINA RESULT: -4.952291753      2.637      3.818
REMARK  2 active torsions:
REMARK  status: ('A' for Active; 'I' for Inactive)
REMARK    1  A    between atoms: N1_2  and  C2_3 
REMARK    2  A    between atoms: C6_8  and  N2_9 
ROOT
HETATM    1  N2  UNL     1      16.836   3.110  15.940  1.00  0.00    -0.299 N 
ATOM      2  H2  UNL     1      17.717   2.699  15.633  1.00  0.00     0.173 HD
HETATM    3  C7  UNL     1      15.901   2.327  16.628  1.00  0.00     0.179 C 
HETATM    4  N3  UNL     1      15.117   1.655  17.193  1.00  0.00    -0.172 NA
ENDROOT
BRANCH   1   5
HETATM    5  C6  UNL     1      16.557   4.482  15.669  1.00  0.00     0.298 C 
HETATM    6  N1  UNL     1      17.090   4.991  14.440  1.00  0.00    -0.037 N 
HETATM    7  C1  UNL     1      18.338   5.730  14.687  1.00  0.00     0.276 C 
HETATM    8  C3  UNL     1      16.146   5.962  13.916  1.00  0.00     0.241 C 
HETATM    9  C4  UNL     1      15.057   6.127  14.954  1.00  0.00     0.032 C 
HETATM   10  C5  UNL     1      15.055   4.757  15.609  1.00  0.00     0.057 C 
BRANCH   6  11
HETATM   11  C2  UNL     1      17.389   4.002  13.447  1.00  0.00     0.353 C 
HETATM   12 CL1  UNL     1      16.139   3.837  12.206  1.00  0.00    -0.101 Cl
ENDBRANCH   6  11
ENDBRANCH   1   5
TORSDOF 2
ENDMDL
MODEL 3
REMARK VINA RESULT: -4.889404564      2.993      4.561
REMARK  2 active torsions:
REMARK  status: ('A' for Active; 'I' for Inactive)
REMARK    1  A    between atoms: N1_2  and  C2_3 
REMARK    2  A    between atoms: C6_8  and  N2_9 
ROOT
HETATM    1  N2  UNL     1      15.974   4.028  12.552  1.00  0.00    -0.299 N 
ATOM      2  H2  UNL     1      15.216   4.710  12.568  1.00  0.00     0.173 HD
HETATM    3  C7  UNL     1      16.188   3.247  11.410  1.00  0.00     0.179 C 
HETATM    4  N3  UNL     1      16.349   2.587  10.449  1.00  0.00    -0.172 NA
ENDROOT
BRANCH   1   5
HETATM    5  C6  UNL     1      16.815   3.869  13.693  1.00  0.00     0.298 C 
HETATM    6  N1  UNL     1      16.579   4.787  14.768  1.00  0.00    -0.037 N 
HETATM    7  C1  UNL     1      17.553   5.889  14.727  1.00  0.00     0.276 C 
HETATM    8  C3  UNL     1      16.822   4.081  16.014  1.00  0.00     0.241 C 
HETATM    9  C4  UNL     1      17.351   2.710  15.651  1.00  0.00     0.032 C 
HETATM   10  C5  UNL     1      16.685   2.476  14.307  1.00  0.00     0.057 C 
BRANCH   6  11
HETATM   11  C2  UNL     1      15.279   5.390  14.783  1.00  0.00     0.353 C 
HETATM   12 CL1  UNL     1      14.442   5.240  16.334  1.00  0.00    -0.101 Cl
ENDBRANCH   6  11
ENDBRANCH   1   5
TORSDOF 2
ENDMDL
MODEL 4
REMARK VINA RESULT: -4.861647655      2.630      3.647
REMARK  2 active torsions:
REMARK  status: ('A' for Active; 'I' for Inactive)
REMARK    1  A    between atoms: N1_2  and  C2_3 
REMARK    2  A    between atoms: C6_8  and  N2_9 
ROOT
HETATM    1  N2  UNL     1      17.794   3.592  15.352  1.00  0.00    -0.299 N 
ATOM      2  H2  UNL     1      18.808   3.483  15.351  1.00  0.00     0.173 HD
HETATM    3  C7  UNL     1      16.970   2.464  15.433  1.00  0.00     0.179 C 
HETATM    4  N3  UNL     1      16.287   1.506  15.487  1.00  0.00    -0.172 NA
ENDROOT
BRANCH   1   5
HETATM    5  C6  UNL     1      17.217   4.894  15.271  1.00  0.00     0.298 C 
HETATM    6  N1  UNL     1      17.459   5.603  14.049  1.00  0.00    -0.037 N 
HETATM    7  C1  UNL     1      18.561   6.562  14.220  1.00  0.00     0.276 C 
HETATM    8  C3  UNL     1      16.278   6.397  13.757  1.00  0.00     0.241 C 
HETATM    9  C4  UNL     1      15.339   6.244  14.934  1.00  0.00     0.032 C 
HETATM   10  C5  UNL     1      15.698   4.854  15.428  1.00  0.00     0.057 C 
BRANCH   6  11
HETATM   11  C2  UNL     1      17.799   4.784  12.923  1.00  0.00     0.353 C 
HETATM   12 CL1  UNL     1      16.395   4.136  12.064  1.00  0.00    -0.101 Cl
ENDBRANCH   6  11
ENDBRANCH   1   5
TORSDOF 2
ENDMDL
MODEL 5
REMARK VINA RESULT: -4.816811478      2.325      2.920
REMARK  2 active torsions:
REMARK  status: ('A' for Active; 'I' for Inactive)
REMARK    1  A    between atoms: N1_2  and  C2_3 
REMARK    2  A    between atoms: C6_8  and  N2_9 
ROOT
HETATM    1  N2  UNL     1      16.151   3.658  16.173  1.00  0.00    -0.299 N 
ATOM      2  H2  UNL     1      16.452   4.445  16.747  1.00  0.00     0.173 HD
HETATM    3  C7  UNL     1      15.653   2.500  16.780  1.00  0.00     0.179 C 
HETATM    4  N3  UNL     1      15.250   1.525  17.303  1.00  0.00    -0.172 NA
ENDROOT
BRANCH   1   5
HETATM    5  C6  UNL     1      16.236   3.739  14.751  1.00  0.00     0.298 C 
HETATM    6  N1  UNL     1      17.079   4.780  14.240  1.00  0.00    -0.037 N 
HETATM    7  C1  UNL     1      16.273   5.943  13.837  1.00  0.00     0.276 C 
HETATM    8  C3  UNL     1      17.706   4.286  13.027  1.00  0.00     0.241 C 
HETATM    9  C4  UNL     1      17.106   2.927  12.739  1.00  0.00     0.032 C 
HETATM   10  C5  UNL     1      16.766   2.444  14.138  1.00  0.00     0.057 C 
BRANCH   6  11
HETATM   11  C2  UNL     1      18.072   5.265  15.152  1.00  0.00     0.353 C 
HETATM   12 CL1  UNL     1      19.322   6.253  14.384  1.00  0.00    -0.101 Cl
ENDBRANCH   6  11
ENDBRANCH   1   5
TORSDOF 2
ENDMDL
