MODEL 1
REMARK VINA RESULT: -5.170037366      0.000      0.000
REMARK  4 active torsions:
REMARK  status: ('A' for Active; 'I' for Inactive)
REMARK    1  A    between atoms: C3_3  and  C4_4 
REMARK    2  A    between atoms: C5_5  and  C6_6 
REMARK    3  A    between atoms: C6_6  and  C7_7 
REMARK    4  A    between atoms: C9_10  and  O2_11 
ROOT
HETATM    1  C1  UNL     1      19.493   9.647  14.300  1.00  0.00     0.113 C 
HETATM    2  C2  UNL     1      18.520   8.573  14.548  1.00  0.00    -0.097 C 
HETATM    3  C3  UNL     1      17.716   7.691  14.772  1.00  0.00    -0.015 C 
ENDROOT
BRANCH   3   4
HETATM    4  C4  UNL     1      16.775   6.669  15.058  1.00  0.00    -0.015 C 
HETATM    5  C5  UNL     1      15.974   5.796  15.322  1.00  0.00    -0.090 C 
BRANCH   5   6
HETATM    6  C6  UNL     1      15.013   4.746  15.665  1.00  0.00     0.129 C 
BRANCH   6   7
HETATM    7  C7  UNL     1      15.752   3.434  15.671  1.00  0.00     0.163 C 
HETATM    8  O1  UNL     1      15.027   2.390  16.276  1.00  0.00    -0.380 OA
HETATM    9  C8  UNL     1      15.636   2.515  17.545  1.00  0.00     0.202 C 
HETATM   10  C9  UNL     1      16.716   3.325  16.859  1.00  0.00     0.171 C 
BRANCH  10  11
HETATM   11  O2  UNL     1      17.841   2.557  16.506  1.00  0.00    -0.391 OA
ATOM     12  H2  UNL     1      18.633   3.076  16.588  1.00  0.00     0.210 HD
ENDBRANCH  10  11
ENDBRANCH   6   7
ENDBRANCH   5   6
ENDBRANCH   3   4
TORSDOF 4
ENDMDL
MODEL 2
REMARK VINA RESULT: -5.115696442      3.775      5.558
REMARK  4 active torsions:
REMARK  status: ('A' for Active; 'I' for Inactive)
REMARK    1  A    between atoms: C3_3  and  C4_4 
REMARK    2  A    between atoms: C5_5  and  C6_6 
REMARK    3  A    between atoms: C6_6  and  C7_7 
REMARK    4  A    between atoms: C9_10  and  O2_11 
ROOT
HETATM    1  C1  UNL     1      14.920   3.861  19.098  1.00  0.00     0.113 C 
HETATM    2  C2  UNL     1      15.512   3.725  17.760  1.00  0.00    -0.097 C 
HETATM    3  C3  UNL     1      16.004   3.633  16.653  1.00  0.00    -0.015 C 
ENDROOT
BRANCH   3   4
HETATM    4  C4  UNL     1      16.585   3.549  15.362  1.00  0.00    -0.015 C 
HETATM    5  C5  UNL     1      17.067   3.489  14.250  1.00  0.00    -0.090 C 
BRANCH   5   6
HETATM    6  C6  UNL     1      17.629   3.429  12.899  1.00  0.00     0.129 C 
BRANCH   6   7
HETATM    7  C7  UNL     1      16.707   2.588  12.056  1.00  0.00     0.163 C 
HETATM    8  O1  UNL     1      16.646   1.244  12.472  1.00  0.00    -0.380 OA
HETATM    9  C8  UNL     1      17.604   0.770  11.548  1.00  0.00     0.202 C 
HETATM   10  C9  UNL     1      17.403   2.067  10.792  1.00  0.00     0.171 C 
BRANCH  10  11
HETATM   11  O2  UNL     1      16.478   1.953   9.738  1.00  0.00    -0.391 OA
ATOM     12  H2  UNL     1      16.868   2.248   8.924  1.00  0.00     0.210 HD
ENDBRANCH  10  11
ENDBRANCH   6   7
ENDBRANCH   5   6
ENDBRANCH   3   4
TORSDOF 4
ENDMDL
MODEL 3
REMARK VINA RESULT: -5.029097553      1.414      2.147
REMARK  4 active torsions:
REMARK  status: ('A' for Active; 'I' for Inactive)
REMARK    1  A    between atoms: C3_3  and  C4_4 
REMARK    2  A    between atoms: C5_5  and  C6_6 
REMARK    3  A    between atoms: C6_6  and  C7_7 
REMARK    4  A    between atoms: C9_10  and  O2_11 
ROOT
HETATM    1  C1  UNL     1      20.165  11.246  15.030  1.00  0.00     0.113 C 
HETATM    2  C2  UNL     1      19.351  10.022  14.984  1.00  0.00    -0.097 C 
HETATM    3  C3  UNL     1      18.687   9.006  14.964  1.00  0.00    -0.015 C 
ENDROOT
BRANCH   3   4
HETATM    4  C4  UNL     1      17.917   7.815  14.964  1.00  0.00    -0.015 C 
HETATM    5  C5  UNL     1      17.272   6.787  14.976  1.00  0.00    -0.090 C 
BRANCH   5   6
HETATM    6  C6  UNL     1      16.511   5.536  15.006  1.00  0.00     0.129 C 
BRANCH   6   7
HETATM    7  C7  UNL     1      17.485   4.413  15.243  1.00  0.00     0.163 C 
HETATM    8  O1  UNL     1      17.834   3.722  14.066  1.00  0.00    -0.380 OA
HETATM    9  C8  UNL     1      16.894   2.681  14.234  1.00  0.00     0.202 C 
HETATM   10  C9  UNL     1      16.779   3.123  15.678  1.00  0.00     0.171 C 
BRANCH  10  11
HETATM   11  O2  UNL     1      17.602   2.385  16.548  1.00  0.00    -0.391 OA
ATOM     12  H2  UNL     1      17.436   1.455  16.449  1.00  0.00     0.210 HD
ENDBRANCH  10  11
ENDBRANCH   6   7
ENDBRANCH   5   6
ENDBRANCH   3   4
TORSDOF 4
ENDMDL
MODEL 4
REMARK VINA RESULT: -5.020848619      1.459      2.010
REMARK  4 active torsions:
REMARK  status: ('A' for Active; 'I' for Inactive)
REMARK    1  A    between atoms: C3_3  and  C4_4 
REMARK    2  A    between atoms: C5_5  and  C6_6 
REMARK    3  A    between atoms: C6_6  and  C7_7 
REMARK    4  A    between atoms: C9_10  and  O2_11 
ROOT
HETATM    1  C1  UNL     1      18.702   8.910  14.324  1.00  0.00     0.113 C 
HETATM    2  C2  UNL     1      18.217   7.557  14.634  1.00  0.00    -0.097 C 
HETATM    3  C3  UNL     1      17.835   6.435  14.898  1.00  0.00    -0.015 C 
ENDROOT
BRANCH   3   4
HETATM    4  C4  UNL     1      17.410   5.121  15.221  1.00  0.00    -0.015 C 
HETATM    5  C5  UNL     1      17.047   3.992  15.478  1.00  0.00    -0.090 C 
BRANCH   5   6
HETATM    6  C6  UNL     1      16.613   2.623  15.764  1.00  0.00     0.129 C 
BRANCH   6   7
HETATM    7  C7  UNL     1      16.090   2.594  17.175  1.00  0.00     0.163 C 
HETATM    8  O1  UNL     1      15.078   1.634  17.374  1.00  0.00    -0.380 OA
HETATM    9  C8  UNL     1      14.001   2.531  17.201  1.00  0.00     0.202 C 
HETATM   10  C9  UNL     1      15.001   3.650  17.405  1.00  0.00     0.171 C 
BRANCH  10  11
HETATM   11  O2  UNL     1      15.045   4.115  18.732  1.00  0.00    -0.391 OA
ATOM     12  H2  UNL     1      14.171   4.336  19.033  1.00  0.00     0.210 HD
ENDBRANCH  10  11
ENDBRANCH   6   7
ENDBRANCH   5   6
ENDBRANCH   3   4
TORSDOF 4
ENDMDL
MODEL 5
REMARK VINA RESULT: -4.996357185      1.829      1.872
REMARK  4 active torsions:
REMARK  status: ('A' for Active; 'I' for Inactive)
REMARK    1  A    between atoms: C3_3  and  C4_4 
REMARK    2  A    between atoms: C5_5  and  C6_6 
REMARK    3  A    between atoms: C6_6  and  C7_7 
REMARK    4  A    between atoms: C9_10  and  O2_11 
ROOT
HETATM    1  C1  UNL     1      16.927   8.559  11.903  1.00  0.00     0.113 C 
HETATM    2  C2  UNL     1      16.435   7.730  13.013  1.00  0.00    -0.097 C 
HETATM    3  C3  UNL     1      16.018   7.034  13.917  1.00  0.00    -0.015 C 
ENDROOT
BRANCH   3   4
HETATM    4  C4  UNL     1      15.523   6.205  14.955  1.00  0.00    -0.015 C 
HETATM    5  C5  UNL     1      15.095   5.481  15.830  1.00  0.00    -0.090 C 
BRANCH   5   6
HETATM    6  C6  UNL     1      14.575   4.589  16.868  1.00  0.00     0.129 C 
BRANCH   6   7
HETATM    7  C7  UNL     1      14.662   3.179  16.347  1.00  0.00     0.163 C 
HETATM    8  O1  UNL     1      14.107   2.227  17.223  1.00  0.00    -0.380 OA
HETATM    9  C8  UNL     1      15.331   1.869  17.832  1.00  0.00     0.202 C 
HETATM   10  C9  UNL     1      16.019   2.536  16.659  1.00  0.00     0.171 C 
BRANCH  10  11
HETATM   11  O2  UNL     1      16.376   1.631  15.642  1.00  0.00    -0.391 OA
ATOM     12  H2  UNL     1      16.039   0.765  15.839  1.00  0.00     0.210 HD
ENDBRANCH  10  11
ENDBRANCH   6   7
ENDBRANCH   5   6
ENDBRANCH   3   4
TORSDOF 4
ENDMDL
