MODEL 1
REMARK VINA RESULT: -8.856695211      0.000      0.000
REMARK  7 active torsions:
REMARK  status: ('A' for Active; 'I' for Inactive)
REMARK    1  A    between atoms: C2_2  and  O1_3 
REMARK    2  A    between atoms: C5_10  and  C6_11 
REMARK    3  A    between atoms: C8_15  and  N3_16 
REMARK    4  A    between atoms: C11_25  and  C12_26 
REMARK    5  A    between atoms: N7_29  and  C13_30 
REMARK    6  A    between atoms: C15_32  and  C16_33 
REMARK    7  A    between atoms: C26_46  and  O4_48 
ROOT
HETATM    1  C13 UNL     1     -25.013  32.662  -4.771  1.00  0.00     0.097 A 
HETATM    2  C14 UNL     1     -25.118  31.294  -4.746  1.00  0.00     0.055 A 
HETATM    3  C15 UNL     1     -26.329  30.764  -4.940  1.00  0.00     0.028 A 
HETATM    4  C24 UNL     1     -27.368  31.637  -5.151  1.00  0.00     0.100 A 
HETATM    5  C25 UNL     1     -28.775  31.335  -5.389  1.00  0.00     0.108 C 
HETATM    6  N8  UNL     1     -29.889  31.079  -5.567  1.00  0.00    -0.191 NA
HETATM    7  S1  UNL     1     -26.615  33.161  -5.068  1.00  0.00    -0.059 SA
ENDROOT
BRANCH   3   8
HETATM    8  C16 UNL     1     -26.597  29.301  -4.936  1.00  0.00     0.089 A 
HETATM    9  C17 UNL     1     -26.588  28.484  -3.808  1.00  0.00     0.052 A 
HETATM   10  C18 UNL     1     -26.879  27.213  -4.215  1.00  0.00     0.000 A 
HETATM   11  C19 UNL     1     -27.015  25.986  -3.578  1.00  0.00     0.014 A 
HETATM   12  C23 UNL     1     -27.058  27.288  -5.577  1.00  0.00     0.086 A 
HETATM   13  C20 UNL     1     -27.326  24.836  -4.274  1.00  0.00     0.001 A 
HETATM   14  C21 UNL     1     -27.500  24.933  -5.642  1.00  0.00     0.003 A 
HETATM   15  C22 UNL     1     -27.368  26.141  -6.273  1.00  0.00     0.038 A 
HETATM   16  O3  UNL     1     -26.883  28.522  -5.948  1.00  0.00    -0.309 OA
ENDBRANCH   3   8
BRANCH   1  17
HETATM   17  N7  UNL     1     -23.798  33.436  -4.583  1.00  0.00    -0.250 N 
HETATM   18  N6  UNL     1     -22.747  33.606  -5.458  1.00  0.00    -0.298 N 
HETATM   19  C12 UNL     1     -21.759  34.209  -4.930  1.00  0.00     0.045 C 
ATOM     20  H6  UNL     1     -22.760  33.282  -6.425  1.00  0.00     0.187 HD
HETATM   21  C28 UNL     1     -22.074  34.522  -3.518  1.00  0.00     0.122 C 
HETATM   22  C26 UNL     1     -23.523  34.187  -3.398  1.00  0.00     0.154 C 
HETATM   23  C27 UNL     1     -23.826  33.402  -2.132  1.00  0.00     0.073 C 
BRANCH  19  24
HETATM   24  C11 UNL     1     -20.503  34.535  -5.609  1.00  0.00     0.040 A 
HETATM   25  C6  UNL     1     -20.201  35.578  -6.473  1.00  0.00     0.034 A 
HETATM   26  N2  UNL     1     -18.873  35.468  -6.751  1.00  0.00    -0.353 N 
HETATM   27  C7  UNL     1     -18.329  34.411  -6.112  1.00  0.00     0.104 A 
ATOM     28  H2  UNL     1     -18.356  36.101  -7.361  1.00  0.00     0.166 HD
HETATM   29  C8  UNL     1     -17.037  33.886  -6.073  1.00  0.00     0.129 A 
HETATM   30  C10 UNL     1     -19.319  33.831  -5.410  1.00  0.00     0.078 A 
HETATM   31  N4  UNL     1     -16.834  32.794  -5.315  1.00  0.00    -0.337 N 
HETATM   32  C9  UNL     1     -17.813  32.204  -4.609  1.00  0.00     0.182 A 
ATOM     33  H4  UNL     1     -15.896  32.395  -5.275  1.00  0.00     0.168 HD
HETATM   34  N5  UNL     1     -19.029  32.737  -4.674  1.00  0.00    -0.350 N 
ATOM     35  H5  UNL     1     -19.781  32.298  -4.141  1.00  0.00     0.166 HD
BRANCH  25  36
HETATM   36  C5  UNL     1     -21.150  36.569  -6.972  1.00  0.00     0.100 C 
HETATM   37  C2  UNL     1     -20.715  37.036  -8.373  1.00  0.00     0.139 C 
HETATM   38  C1  UNL     1     -20.849  35.917  -9.372  1.00  0.00     0.071 C 
HETATM   39  N1  UNL     1     -21.849  37.963  -8.606  1.00  0.00    -0.329 N 
HETATM   40  C3  UNL     1     -22.979  37.140  -8.347  1.00  0.00     0.220 C 
ATOM     41  H1  UNL     1     -21.825  38.944  -8.883  1.00  0.00     0.165 HD
HETATM   42  O2  UNL     1     -24.129  37.139  -8.804  1.00  0.00    -0.274 OA
HETATM   43  C4  UNL     1     -22.537  36.123  -7.294  1.00  0.00     0.118 C 
BRANCH  37  44
HETATM   44  O1  UNL     1     -19.502  37.642  -8.400  1.00  0.00    -0.370 OA
ATOM     45  H1  UNL     1     -19.066  37.655  -7.555  1.00  0.00     0.212 HD
ENDBRANCH  37  44
ENDBRANCH  25  36
BRANCH  29  46
HETATM   46  N3  UNL     1     -16.105  34.449  -6.747  1.00  0.00    -0.384 N 
ATOM     47  H32 UNL     1     -16.214  34.724  -7.724  1.00  0.00     0.157 HD
ATOM     48  H31 UNL     1     -15.206  34.640  -6.303  1.00  0.00     0.157 HD
ENDBRANCH  29  46
ENDBRANCH  19  24
BRANCH  22  49
HETATM   49  O4  UNL     1     -24.332  35.336  -3.463  1.00  0.00    -0.369 OA
ATOM     50  H4  UNL     1     -25.171  35.091  -3.092  1.00  0.00     0.212 HD
ENDBRANCH  22  49
ENDBRANCH   1  17
TORSDOF 7
ENDMDL
MODEL 2
REMARK VINA RESULT: -8.734368929      2.017      4.044
REMARK  7 active torsions:
REMARK  status: ('A' for Active; 'I' for Inactive)
REMARK    1  A    between atoms: C2_2  and  O1_3 
REMARK    2  A    between atoms: C5_10  and  C6_11 
REMARK    3  A    between atoms: C8_15  and  N3_16 
REMARK    4  A    between atoms: C11_25  and  C12_26 
REMARK    5  A    between atoms: N7_29  and  C13_30 
REMARK    6  A    between atoms: C15_32  and  C16_33 
REMARK    7  A    between atoms: C26_46  and  O4_48 
ROOT
HETATM    1  C13 UNL     1     -25.513  32.189  -4.562  1.00  0.00     0.097 A 
HETATM    2  C14 UNL     1     -25.553  30.819  -4.503  1.00  0.00     0.055 A 
HETATM    3  C15 UNL     1     -26.728  30.225  -4.735  1.00  0.00     0.028 A 
HETATM    4  C24 UNL     1     -27.797  31.040  -5.014  1.00  0.00     0.100 A 
HETATM    5  C25 UNL     1     -29.176  30.664  -5.304  1.00  0.00     0.108 C 
HETATM    6  N8  UNL     1     -30.268  30.349  -5.523  1.00  0.00    -0.191 NA
HETATM    7  S1  UNL     1     -27.123  32.601  -4.941  1.00  0.00    -0.059 SA
ENDROOT
BRANCH   3   8
HETATM    8  C16 UNL     1     -26.925  28.751  -4.703  1.00  0.00     0.089 A 
HETATM    9  C17 UNL     1     -26.834  27.952  -3.566  1.00  0.00     0.052 A 
HETATM   10  C18 UNL     1     -27.079  26.662  -3.945  1.00  0.00     0.000 A 
HETATM   11  C19 UNL     1     -27.132  25.439  -3.289  1.00  0.00     0.014 A 
HETATM   12  C23 UNL     1     -27.313  26.710  -5.300  1.00  0.00     0.086 A 
HETATM   13  C20 UNL     1     -27.414  24.266  -3.958  1.00  0.00     0.001 A 
HETATM   14  C21 UNL     1     -27.645  24.336  -5.319  1.00  0.00     0.003 A 
HETATM   15  C22 UNL     1     -27.594  25.540  -5.970  1.00  0.00     0.038 A 
HETATM   16  O3  UNL     1     -27.212  27.945  -5.693  1.00  0.00    -0.309 OA
ENDBRANCH   3   8
BRANCH   1  17
HETATM   17  N7  UNL     1     -24.347  33.026  -4.343  1.00  0.00    -0.250 N 
HETATM   18  N6  UNL     1     -23.237  33.175  -5.146  1.00  0.00    -0.298 N 
HETATM   19  C12 UNL     1     -22.316  33.859  -4.593  1.00  0.00     0.045 C 
ATOM     20  H6  UNL     1     -23.162  32.780  -6.084  1.00  0.00     0.187 HD
HETATM   21  C28 UNL     1     -22.753  34.262  -3.239  1.00  0.00     0.122 C 
HETATM   22  C26 UNL     1     -24.194  33.875  -3.203  1.00  0.00     0.154 C 
HETATM   23  C27 UNL     1     -24.567  33.174  -1.906  1.00  0.00     0.073 C 
BRANCH  19  24
HETATM   24  C11 UNL     1     -21.024  34.187  -5.199  1.00  0.00     0.040 A 
HETATM   25  C6  UNL     1     -19.764  33.663  -4.950  1.00  0.00     0.034 A 
HETATM   26  N2  UNL     1     -18.924  34.254  -5.843  1.00  0.00    -0.353 N 
HETATM   27  C7  UNL     1     -19.588  35.122  -6.634  1.00  0.00     0.104 A 
ATOM     28  H2  UNL     1     -17.923  34.066  -5.906  1.00  0.00     0.166 HD
HETATM   29  C8  UNL     1     -19.186  35.955  -7.678  1.00  0.00     0.129 A 
HETATM   30  C10 UNL     1     -20.876  35.089  -6.248  1.00  0.00     0.078 A 
HETATM   31  N4  UNL     1     -20.130  36.711  -8.267  1.00  0.00    -0.337 N 
HETATM   32  C9  UNL     1     -21.420  36.689  -7.892  1.00  0.00     0.182 A 
ATOM     33  H4  UNL     1     -19.856  37.327  -9.031  1.00  0.00     0.168 HD
HETATM   34  N5  UNL     1     -21.761  35.880  -6.893  1.00  0.00    -0.350 N 
ATOM     35  H5  UNL     1     -22.738  35.854  -6.600  1.00  0.00     0.166 HD
BRANCH  25  36
HETATM   36  C5  UNL     1     -19.441  32.683  -3.916  1.00  0.00     0.100 C 
HETATM   37  C2  UNL     1     -17.923  32.426  -3.909  1.00  0.00     0.139 C 
HETATM   38  C1  UNL     1     -17.178  33.650  -3.448  1.00  0.00     0.071 C 
HETATM   39  N1  UNL     1     -17.916  31.464  -2.780  1.00  0.00    -0.329 N 
HETATM   40  C3  UNL     1     -18.617  32.172  -1.766  1.00  0.00     0.220 C 
ATOM     41  H1  UNL     1     -17.510  30.529  -2.740  1.00  0.00     0.165 HD
HETATM   42  O2  UNL     1     -18.534  32.156  -0.532  1.00  0.00    -0.274 OA
HETATM   43  C4  UNL     1     -19.619  33.075  -2.488  1.00  0.00     0.118 C 
BRANCH  37  44
HETATM   44  O1  UNL     1     -17.446  31.908  -5.068  1.00  0.00    -0.370 OA
ATOM     45  H1  UNL     1     -18.115  31.492  -5.600  1.00  0.00     0.212 HD
ENDBRANCH  37  44
ENDBRANCH  25  36
BRANCH  29  46
HETATM   46  N3  UNL     1     -17.956  35.975  -8.034  1.00  0.00    -0.384 N 
ATOM     47  H32 UNL     1     -17.661  36.053  -9.007  1.00  0.00     0.157 HD
ATOM     48  H31 UNL     1     -17.225  35.911  -7.325  1.00  0.00     0.157 HD
ENDBRANCH  29  46
ENDBRANCH  19  24
BRANCH  22  49
HETATM   49  O4  UNL     1     -25.037  34.980  -3.418  1.00  0.00    -0.369 OA
ATOM     50  H4  UNL     1     -24.472  35.741  -3.463  1.00  0.00     0.212 HD
ENDBRANCH  22  49
ENDBRANCH   1  17
TORSDOF 7
ENDMDL
MODEL 3
REMARK VINA RESULT: -8.673243414      3.024      9.535
REMARK  7 active torsions:
REMARK  status: ('A' for Active; 'I' for Inactive)
REMARK    1  A    between atoms: C2_2  and  O1_3 
REMARK    2  A    between atoms: C5_10  and  C6_11 
REMARK    3  A    between atoms: C8_15  and  N3_16 
REMARK    4  A    between atoms: C11_25  and  C12_26 
REMARK    5  A    between atoms: N7_29  and  C13_30 
REMARK    6  A    between atoms: C15_32  and  C16_33 
REMARK    7  A    between atoms: C26_46  and  O4_48 
ROOT
HETATM    1  C13 UNL     1     -24.437  33.218  -3.781  1.00  0.00     0.097 A 
HETATM    2  C14 UNL     1     -23.140  33.162  -4.225  1.00  0.00     0.055 A 
HETATM    3  C15 UNL     1     -22.545  34.317  -4.538  1.00  0.00     0.028 A 
HETATM    4  C24 UNL     1     -23.284  35.464  -4.386  1.00  0.00     0.100 A 
HETATM    5  C25 UNL     1     -22.888  36.843  -4.648  1.00  0.00     0.108 C 
HETATM    6  N8  UNL     1     -22.561  37.931  -4.871  1.00  0.00    -0.191 NA
HETATM    7  S1  UNL     1     -24.780  34.887  -3.815  1.00  0.00    -0.059 SA
ENDROOT
BRANCH   3   8
HETATM    8  C16 UNL     1     -21.146  34.413  -5.035  1.00  0.00     0.089 A 
HETATM    9  C17 UNL     1     -20.049  33.755  -4.485  1.00  0.00     0.052 A 
HETATM   10  C18 UNL     1     -18.949  34.098  -5.218  1.00  0.00     0.000 A 
HETATM   11  C19 UNL     1     -17.598  33.778  -5.171  1.00  0.00     0.014 A 
HETATM   12  C23 UNL     1     -19.404  34.955  -6.194  1.00  0.00     0.086 A 
HETATM   13  C20 UNL     1     -16.695  34.296  -6.076  1.00  0.00     0.001 A 
HETATM   14  C21 UNL     1     -17.172  35.156  -7.048  1.00  0.00     0.003 A 
HETATM   15  C22 UNL     1     -18.504  35.473  -7.099  1.00  0.00     0.038 A 
HETATM   16  O3  UNL     1     -20.686  35.106  -6.045  1.00  0.00    -0.309 OA
ENDBRANCH   3   8
BRANCH   1  17
HETATM   17  N7  UNL     1     -25.263  32.088  -3.392  1.00  0.00    -0.250 N 
HETATM   18  N6  UNL     1     -25.869  31.151  -4.201  1.00  0.00    -0.298 N 
HETATM   19  C12 UNL     1     -26.658  30.385  -3.562  1.00  0.00     0.045 C 
ATOM     20  H6  UNL     1     -25.702  31.080  -5.206  1.00  0.00     0.187 HD
HETATM   21  C28 UNL     1     -26.669  30.774  -2.135  1.00  0.00     0.122 C 
HETATM   22  C26 UNL     1     -25.559  31.765  -2.031  1.00  0.00     0.154 C 
HETATM   23  C27 UNL     1     -25.957  32.989  -1.221  1.00  0.00     0.073 C 
BRANCH  19  24
HETATM   24  C11 UNL     1     -27.441  29.294  -4.149  1.00  0.00     0.040 A 
HETATM   25  C6  UNL     1     -28.526  29.340  -5.011  1.00  0.00     0.034 A 
HETATM   26  N2  UNL     1     -28.823  28.047  -5.316  1.00  0.00    -0.353 N 
HETATM   27  C7  UNL     1     -27.986  27.195  -4.688  1.00  0.00     0.104 A 
ATOM     28  H2  UNL     1     -29.579  27.759  -5.938  1.00  0.00     0.166 HD
HETATM   29  C8  UNL     1     -27.881  25.804  -4.673  1.00  0.00     0.129 A 
HETATM   30  C10 UNL     1     -27.135  27.949  -3.969  1.00  0.00     0.078 A 
HETATM   31  N4  UNL     1     -26.906  25.264  -3.919  1.00  0.00    -0.337 N 
HETATM   32  C9  UNL     1     -26.049  26.004  -3.196  1.00  0.00     0.182 A 
ATOM     33  H4  UNL     1     -26.814  24.249  -3.895  1.00  0.00     0.168 HD
HETATM   34  N5  UNL     1     -26.185  27.326  -3.239  1.00  0.00    -0.350 N 
ATOM     35  H5  UNL     1     -25.539  27.898  -2.694  1.00  0.00     0.166 HD
BRANCH  25  36
HETATM   36  C5  UNL     1     -29.198  30.554  -5.468  1.00  0.00     0.100 C 
HETATM   37  C2  UNL     1     -28.669  30.939  -6.862  1.00  0.00     0.139 C 
HETATM   38  C1  UNL     1     -29.089  29.922  -7.890  1.00  0.00     0.071 C 
HETATM   39  N1  UNL     1     -29.534  32.129  -7.052  1.00  0.00    -0.329 N 
HETATM   40  C3  UNL     1     -30.833  31.611  -6.799  1.00  0.00     0.220 C 
ATOM     41  H1  UNL     1     -29.264  33.080  -7.301  1.00  0.00     0.165 HD
HETATM   42  O2  UNL     1     -31.949  31.914  -7.238  1.00  0.00    -0.274 OA
HETATM   43  C4  UNL     1     -30.654  30.482  -5.782  1.00  0.00     0.118 C 
BRANCH  37  44
HETATM   44  O1  UNL     1     -27.343  31.220  -6.890  1.00  0.00    -0.370 OA
ATOM     45  H1  UNL     1     -27.060  31.785  -6.180  1.00  0.00     0.212 HD
ENDBRANCH  37  44
ENDBRANCH  25  36
BRANCH  29  46
HETATM   46  N3  UNL     1     -28.699  25.100  -5.363  1.00  0.00    -0.384 N 
ATOM     47  H32 UNL     1     -28.424  24.601  -6.210  1.00  0.00     0.157 HD
ATOM     48  H31 UNL     1     -29.672  25.023  -5.067  1.00  0.00     0.157 HD
ENDBRANCH  29  46
ENDBRANCH  19  24
BRANCH  22  49
HETATM   49  O4  UNL     1     -24.391  31.189  -1.500  1.00  0.00    -0.369 OA
ATOM     50  H4  UNL     1     -24.473  31.247  -0.555  1.00  0.00     0.212 HD
ENDBRANCH  22  49
ENDBRANCH   1  17
TORSDOF 7
ENDMDL
MODEL 4
REMARK VINA RESULT: -8.633434219      1.352      1.607
REMARK  7 active torsions:
REMARK  status: ('A' for Active; 'I' for Inactive)
REMARK    1  A    between atoms: C2_2  and  O1_3 
REMARK    2  A    between atoms: C5_10  and  C6_11 
REMARK    3  A    between atoms: C8_15  and  N3_16 
REMARK    4  A    between atoms: C11_25  and  C12_26 
REMARK    5  A    between atoms: N7_29  and  C13_30 
REMARK    6  A    between atoms: C15_32  and  C16_33 
REMARK    7  A    between atoms: C26_46  and  O4_48 
ROOT
HETATM    1  C13 UNL     1     -25.778  32.301  -4.701  1.00  0.00     0.097 A 
HETATM    2  C14 UNL     1     -25.715  30.931  -4.639  1.00  0.00     0.055 A 
HETATM    3  C15 UNL     1     -26.852  30.252  -4.815  1.00  0.00     0.028 A 
HETATM    4  C24 UNL     1     -27.990  30.985  -5.045  1.00  0.00     0.100 A 
HETATM    5  C25 UNL     1     -29.349  30.508  -5.269  1.00  0.00     0.108 C 
HETATM    6  N8  UNL     1     -30.425  30.113  -5.436  1.00  0.00    -0.191 NA
HETATM    7  S1  UNL     1     -27.430  32.592  -5.006  1.00  0.00    -0.059 SA
ENDROOT
BRANCH   3   8
HETATM    8  C16 UNL     1     -26.939  28.768  -4.771  1.00  0.00     0.089 A 
HETATM    9  C17 UNL     1     -26.825  27.989  -3.622  1.00  0.00     0.052 A 
HETATM   10  C18 UNL     1     -26.960  26.681  -3.993  1.00  0.00     0.000 A 
HETATM   11  C19 UNL     1     -26.943  25.464  -3.324  1.00  0.00     0.014 A 
HETATM   12  C23 UNL     1     -27.152  26.698  -5.356  1.00  0.00     0.086 A 
HETATM   13  C20 UNL     1     -27.113  24.266  -3.988  1.00  0.00     0.001 A 
HETATM   14  C21 UNL     1     -27.304  24.305  -5.357  1.00  0.00     0.003 A 
HETATM   15  C22 UNL     1     -27.322  25.503  -6.020  1.00  0.00     0.038 A 
HETATM   16  O3  UNL     1     -27.132  27.934  -5.760  1.00  0.00    -0.309 OA
ENDBRANCH   3   8
BRANCH   1  17
HETATM   17  N7  UNL     1     -24.667  33.222  -4.538  1.00  0.00    -0.250 N 
HETATM   18  N6  UNL     1     -23.724  33.600  -5.470  1.00  0.00    -0.298 N 
HETATM   19  C12 UNL     1     -22.786  34.297  -4.966  1.00  0.00     0.045 C 
ATOM     20  H6  UNL     1     -23.774  33.348  -6.457  1.00  0.00     0.187 HD
HETATM   21  C28 UNL     1     -23.022  34.461  -3.515  1.00  0.00     0.122 C 
HETATM   22  C26 UNL     1     -24.398  33.918  -3.319  1.00  0.00     0.154 C 
HETATM   23  C27 UNL     1     -24.488  33.010  -2.103  1.00  0.00     0.073 C 
BRANCH  19  24
HETATM   24  C11 UNL     1     -21.646  34.844  -5.706  1.00  0.00     0.040 A 
HETATM   25  C6  UNL     1     -21.591  35.893  -6.612  1.00  0.00     0.034 A 
HETATM   26  N2  UNL     1     -20.278  36.042  -6.940  1.00  0.00    -0.353 N 
HETATM   27  C7  UNL     1     -19.510  35.142  -6.292  1.00  0.00     0.104 A 
ATOM     28  H2  UNL     1     -19.922  36.743  -7.590  1.00  0.00     0.166 HD
HETATM   29  C8  UNL     1     -18.138  34.891  -6.289  1.00  0.00     0.129 A 
HETATM   30  C10 UNL     1     -20.338  34.401  -5.533  1.00  0.00     0.078 A 
HETATM   31  N4  UNL     1     -17.692  33.891  -5.508  1.00  0.00    -0.337 N 
HETATM   32  C9  UNL     1     -18.506  33.143  -4.745  1.00  0.00     0.182 A 
ATOM     33  H4  UNL     1     -16.692  33.692  -5.493  1.00  0.00     0.168 HD
HETATM   34  N5  UNL     1     -19.807  33.417  -4.776  1.00  0.00    -0.350 N 
ATOM     35  H5  UNL     1     -20.436  32.856  -4.200  1.00  0.00     0.166 HD
BRANCH  25  36
HETATM   36  C5  UNL     1     -22.738  36.652  -7.102  1.00  0.00     0.100 C 
HETATM   37  C2  UNL     1     -22.874  37.955  -6.294  1.00  0.00     0.139 C 
HETATM   38  C1  UNL     1     -21.720  38.880  -6.577  1.00  0.00     0.071 C 
HETATM   39  N1  UNL     1     -24.048  38.491  -7.026  1.00  0.00    -0.329 N 
HETATM   40  C3  UNL     1     -23.623  38.425  -8.380  1.00  0.00     0.220 C 
ATOM     41  H1  UNL     1     -24.936  38.822  -6.652  1.00  0.00     0.165 HD
HETATM   42  O2  UNL     1     -23.891  39.118  -9.370  1.00  0.00    -0.274 OA
HETATM   43  C4  UNL     1     -22.668  37.234  -8.474  1.00  0.00     0.118 C 
BRANCH  37  44
HETATM   44  O1  UNL     1     -23.100  37.761  -4.970  1.00  0.00    -0.370 OA
ATOM     45  H1  UNL     1     -23.006  36.855  -4.698  1.00  0.00     0.212 HD
ENDBRANCH  37  44
ENDBRANCH  25  36
BRANCH  29  46
HETATM   46  N3  UNL     1     -17.362  35.605  -7.017  1.00  0.00    -0.384 N 
ATOM     47  H32 UNL     1     -17.536  35.780  -8.007  1.00  0.00     0.157 HD
ATOM     48  H31 UNL     1     -16.529  36.025  -6.605  1.00  0.00     0.157 HD
ENDBRANCH  29  46
ENDBRANCH  19  24
BRANCH  22  49
HETATM   49  O4  UNL     1     -25.357  34.944  -3.231  1.00  0.00    -0.369 OA
ATOM     50  H4  UNL     1     -24.872  35.759  -3.189  1.00  0.00     0.212 HD
ENDBRANCH  22  49
ENDBRANCH   1  17
TORSDOF 7
ENDMDL
MODEL 5
REMARK VINA RESULT: -8.597081934      4.459      9.474
REMARK  7 active torsions:
REMARK  status: ('A' for Active; 'I' for Inactive)
REMARK    1  A    between atoms: C2_2  and  O1_3 
REMARK    2  A    between atoms: C5_10  and  C6_11 
REMARK    3  A    between atoms: C8_15  and  N3_16 
REMARK    4  A    between atoms: C11_25  and  C12_26 
REMARK    5  A    between atoms: N7_29  and  C13_30 
REMARK    6  A    between atoms: C15_32  and  C16_33 
REMARK    7  A    between atoms: C26_46  and  O4_48 
ROOT
HETATM    1  C13 UNL     1     -21.103  36.951  -7.495  1.00  0.00     0.097 A 
HETATM    2  C14 UNL     1     -20.910  37.167  -8.837  1.00  0.00     0.055 A 
HETATM    3  C15 UNL     1     -21.530  38.213  -9.389  1.00  0.00     0.028 A 
HETATM    4  C24 UNL     1     -22.309  38.987  -8.565  1.00  0.00     0.100 A 
HETATM    5  C25 UNL     1     -23.087  40.174  -8.899  1.00  0.00     0.108 C 
HETATM    6  N8  UNL     1     -23.706  41.110  -9.183  1.00  0.00    -0.191 NA
HETATM    7  S1  UNL     1     -22.147  38.224  -7.052  1.00  0.00    -0.059 SA
ENDROOT
BRANCH   3   8
HETATM    8  C16 UNL     1     -21.418  38.569 -10.829  1.00  0.00     0.089 A 
HETATM    9  C17 UNL     1     -22.034  37.888 -11.876  1.00  0.00     0.052 A 
HETATM   10  C18 UNL     1     -21.691  38.518 -13.039  1.00  0.00     0.000 A 
HETATM   11  C19 UNL     1     -21.979  38.323 -14.384  1.00  0.00     0.014 A 
HETATM   12  C23 UNL     1     -20.876  39.564 -12.670  1.00  0.00     0.086 A 
HETATM   13  C20 UNL     1     -21.471  39.149 -15.365  1.00  0.00     0.001 A 
HETATM   14  C21 UNL     1     -20.654  40.194 -14.973  1.00  0.00     0.003 A 
HETATM   15  C22 UNL     1     -20.368  40.391 -13.648  1.00  0.00     0.038 A 
HETATM   16  O3  UNL     1     -20.749  39.551 -11.376  1.00  0.00    -0.309 OA
ENDBRANCH   3   8
BRANCH   1  17
HETATM   17  N7  UNL     1     -20.527  35.878  -6.704  1.00  0.00    -0.250 N 
HETATM   18  N6  UNL     1     -20.859  35.482  -5.427  1.00  0.00    -0.298 N 
HETATM   19  C12 UNL     1     -20.056  34.615  -4.954  1.00  0.00     0.045 C 
ATOM     20  H6  UNL     1     -21.664  35.845  -4.915  1.00  0.00     0.187 HD
HETATM   21  C28 UNL     1     -19.004  34.327  -5.954  1.00  0.00     0.122 C 
HETATM   22  C26 UNL     1     -19.486  35.023  -7.183  1.00  0.00     0.154 C 
HETATM   23  C27 UNL     1     -18.375  35.797  -7.876  1.00  0.00     0.073 C 
BRANCH  19  24
HETATM   24  C11 UNL     1     -20.151  34.006  -3.626  1.00  0.00     0.040 A 
HETATM   25  C6  UNL     1     -21.145  34.115  -2.665  1.00  0.00     0.034 A 
HETATM   26  N2  UNL     1     -20.784  33.283  -1.650  1.00  0.00    -0.353 N 
HETATM   27  C7  UNL     1     -19.616  32.663  -1.922  1.00  0.00     0.104 A 
ATOM     28  H2  UNL     1     -21.325  33.145  -0.796  1.00  0.00     0.166 HD
HETATM   29  C8  UNL     1     -18.844  31.740  -1.217  1.00  0.00     0.129 A 
HETATM   30  C10 UNL     1     -19.219  33.100  -3.130  1.00  0.00     0.078 A 
HETATM   31  N4  UNL     1     -17.705  31.316  -1.793  1.00  0.00    -0.337 N 
HETATM   32  C9  UNL     1     -17.295  31.743  -2.999  1.00  0.00     0.182 A 
ATOM     33  H4  UNL     1     -17.127  30.641  -1.293  1.00  0.00     0.168 HD
HETATM   34  N5  UNL     1     -18.062  32.623  -3.637  1.00  0.00    -0.350 N 
ATOM     35  H5  UNL     1     -17.761  32.954  -4.554  1.00  0.00     0.166 HD
BRANCH  25  36
HETATM   36  C5  UNL     1     -22.324  34.973  -2.755  1.00  0.00     0.100 C 
HETATM   37  C2  UNL     1     -23.496  34.174  -3.353  1.00  0.00     0.139 C 
HETATM   38  C1  UNL     1     -23.944  33.095  -2.404  1.00  0.00     0.071 C 
HETATM   39  N1  UNL     1     -24.502  35.261  -3.280  1.00  0.00    -0.329 N 
HETATM   40  C3  UNL     1     -24.417  35.669  -1.921  1.00  0.00     0.220 C 
ATOM     41  H1  UNL     1     -25.103  35.625  -4.018  1.00  0.00     0.165 HD
HETATM   42  O2  UNL     1     -25.254  36.138  -1.140  1.00  0.00    -0.274 OA
HETATM   43  C4  UNL     1     -22.970  35.424  -1.488  1.00  0.00     0.118 C 
BRANCH  37  44
HETATM   44  O1  UNL     1     -23.270  33.725  -4.613  1.00  0.00    -0.370 OA
ATOM     45  H1  UNL     1     -23.834  34.126  -5.265  1.00  0.00     0.212 HD
ENDBRANCH  37  44
ENDBRANCH  25  36
BRANCH  29  46
HETATM   46  N3  UNL     1     -19.237  31.333  -0.067  1.00  0.00    -0.384 N 
ATOM     47  H32 UNL     1     -19.243  31.930   0.760  1.00  0.00     0.157 HD
ATOM     48  H31 UNL     1     -19.561  30.372   0.045  1.00  0.00     0.157 HD
ENDBRANCH  29  46
ENDBRANCH  19  24
BRANCH  22  49
HETATM   49  O4  UNL     1     -20.092  34.131  -8.086  1.00  0.00    -0.369 OA
ATOM     50  H4  UNL     1     -19.446  33.460  -8.271  1.00  0.00     0.212 HD
ENDBRANCH  22  49
ENDBRANCH   1  17
TORSDOF 7
ENDMDL
