MODEL 1
REMARK VINA RESULT: -8.504641350      0.000      0.000
REMARK  7 active torsions:
REMARK  status: ('A' for Active; 'I' for Inactive)
REMARK    1  A    between atoms: N1_1  and  C1_4 
REMARK    2  A    between atoms: N3_9  and  C3_10 
REMARK    3  A    between atoms: C3_10  and  C4_11 
REMARK       I    between atoms: C4_11  and  N4_13 
REMARK    4  A    between atoms: N4_13  and  C5_15 
REMARK    5  A    between atoms: C6_18  and  N6_19 
REMARK    6  A    between atoms: N6_19  and  N7_21 
REMARK    7  A    between atoms: N10_28  and  N11_29 
ROOT
HETATM    1  C4  UNL     1      12.963 -10.368  12.930  1.00  0.00     0.256 C 
HETATM    2  O2  UNL     1      13.375 -11.538  12.853  1.00  0.00    -0.271 OA
HETATM    3  N4  UNL     1      11.748 -10.096  13.627  1.00  0.00    -0.156 N 
ATOM      4  H4  UNL     1      11.706 -10.220  14.639  1.00  0.00     0.187 HD
ENDROOT
BRANCH   1   5
HETATM    5  C3  UNL     1      13.667  -9.200  12.331  1.00  0.00     0.260 C 
BRANCH   5   6
HETATM    6  N3  UNL     1      15.060  -9.170  12.709  1.00  0.00    -0.197 N 
HETATM    7  C2  UNL     1      16.036  -9.851  12.085  1.00  0.00     0.357 A 
HETATM    8  N2  UNL     1      17.186  -9.570  12.721  1.00  0.00    -0.137 N 
HETATM    9  O1  UNL     1      15.923 -10.613  11.091  1.00  0.00    -0.244 OA
HETATM   10  C1  UNL     1      16.925  -8.711  13.746  1.00  0.00     0.716 A 
ATOM     11  H2  UNL     1      18.105  -9.940  12.476  1.00  0.00     0.189 HD
HETATM   12  N10 UNL     1      15.584  -8.475  13.719  1.00  0.00    -0.020 N 
BRANCH  10  13
HETATM   13  N1  UNL     1      17.751  -8.202  14.595  1.00  0.00    -0.231 N 
ATOM     14  H12 UNL     1      18.532  -8.697  15.025  1.00  0.00     0.174 HD
ATOM     15  H11 UNL     1      17.770  -7.253  14.971  1.00  0.00     0.174 HD
ENDBRANCH  10  13
BRANCH  12  16
HETATM   16  N11 UNL     1      14.844  -7.659  14.573  1.00  0.00    -0.309 N 
ATOM     17 2H11 UNL     1      14.093  -7.995  15.176  1.00  0.00     0.179 HD
ATOM     18 1H11 UNL     1      14.939  -6.653  14.713  1.00  0.00     0.179 HD
ENDBRANCH  12  16
ENDBRANCH   5   6
ENDBRANCH   1   5
BRANCH   3  19
HETATM   19  C5  UNL     1      10.704  -9.694  12.988  1.00  0.00     0.714 A 
HETATM   20  N5  UNL     1       9.729 -10.432  12.439  1.00  0.00    -0.018 N 
HETATM   21  C6  UNL     1       8.852  -9.596  11.881  1.00  0.00     0.726 A 
ATOM     22  H5  UNL     1       9.669 -11.451  12.445  1.00  0.00     0.203 HD
HETATM   23  N8  UNL     1       9.284  -8.353  12.086  1.00  0.00    -0.116 N 
HETATM   24  N9  UNL     1      10.410  -8.410  12.759  1.00  0.00    -0.117 N 
ATOM     25  H8  UNL     1       8.819  -7.500  11.773  1.00  0.00     0.206 HD
ATOM     26  H9  UNL     1      10.967  -7.609  13.057  1.00  0.00     0.206 HD
BRANCH  21  27
HETATM   27  N6  UNL     1       7.666 -10.017  11.192  1.00  0.00    -0.137 N 
ATOM     28  H6  UNL     1       7.210 -10.906  11.398  1.00  0.00     0.205 HD
BRANCH  27  29
HETATM   29  N7  UNL     1       7.169  -9.141  10.221  1.00  0.00    -0.331 N 
ATOM     30  H72 UNL     1       7.682  -8.970   9.357  1.00  0.00     0.177 HD
ATOM     31  H71 UNL     1       6.277  -8.692  10.432  1.00  0.00     0.177 HD
ENDBRANCH  27  29
ENDBRANCH  21  27
ENDBRANCH   3  19
TORSDOF 7
ENDMDL
MODEL 2
REMARK VINA RESULT: -8.400618337      0.765      1.338
REMARK  7 active torsions:
REMARK  status: ('A' for Active; 'I' for Inactive)
REMARK    1  A    between atoms: N1_1  and  C1_4 
REMARK    2  A    between atoms: N3_9  and  C3_10 
REMARK    3  A    between atoms: C3_10  and  C4_11 
REMARK       I    between atoms: C4_11  and  N4_13 
REMARK    4  A    between atoms: N4_13  and  C5_15 
REMARK    5  A    between atoms: C6_18  and  N6_19 
REMARK    6  A    between atoms: N6_19  and  N7_21 
REMARK    7  A    between atoms: N10_28  and  N11_29 
ROOT
HETATM    1  C4  UNL     1      12.992 -10.367  12.961  1.00  0.00     0.256 C 
HETATM    2  O2  UNL     1      13.405 -11.539  12.938  1.00  0.00    -0.271 OA
HETATM    3  N4  UNL     1      11.757 -10.071  13.613  1.00  0.00    -0.156 N 
ATOM      4  H4  UNL     1      11.686 -10.159  14.626  1.00  0.00     0.187 HD
ENDROOT
BRANCH   1   5
HETATM    5  C3  UNL     1      13.713  -9.221  12.341  1.00  0.00     0.260 C 
BRANCH   5   6
HETATM    6  N3  UNL     1      15.100  -9.189  12.741  1.00  0.00    -0.197 N 
HETATM    7  C2  UNL     1      16.085  -9.880  12.142  1.00  0.00     0.357 A 
HETATM    8  N2  UNL     1      17.225  -9.594  12.793  1.00  0.00    -0.137 N 
HETATM    9  O1  UNL     1      15.986 -10.655  11.157  1.00  0.00    -0.244 OA
HETATM   10  C1  UNL     1      16.950  -8.721  13.802  1.00  0.00     0.716 A 
ATOM     11  H2  UNL     1      18.146  -9.968  12.568  1.00  0.00     0.189 HD
HETATM   12  N10 UNL     1      15.609  -8.482  13.750  1.00  0.00    -0.020 N 
BRANCH  10  13
HETATM   13  N1  UNL     1      17.763  -8.201  14.658  1.00  0.00    -0.231 N 
ATOM     14  H12 UNL     1      17.673  -7.269  15.061  1.00  0.00     0.174 HD
ATOM     15  H11 UNL     1      18.602  -8.613  15.066  1.00  0.00     0.174 HD
ENDBRANCH  10  13
BRANCH  12  16
HETATM   16  N11 UNL     1      14.857  -7.653  14.581  1.00  0.00    -0.309 N 
ATOM     17 2H11 UNL     1      14.918  -6.635  14.578  1.00  0.00     0.179 HD
ATOM     18 1H11 UNL     1      14.169  -7.929  15.281  1.00  0.00     0.179 HD
ENDBRANCH  12  16
ENDBRANCH   5   6
ENDBRANCH   1   5
BRANCH   3  19
HETATM   19  C5  UNL     1      10.733  -9.694  12.929  1.00  0.00     0.714 A 
HETATM   20  N5  UNL     1      10.549  -8.539  12.274  1.00  0.00    -0.018 N 
HETATM   21  C6  UNL     1       9.341  -8.582  11.706  1.00  0.00     0.726 A 
ATOM     22  H5  UNL     1      11.212  -7.766  12.218  1.00  0.00     0.203 HD
HETATM   23  N8  UNL     1       8.787  -9.754  12.012  1.00  0.00    -0.116 N 
HETATM   24  N9  UNL     1       9.631 -10.431  12.755  1.00  0.00    -0.117 N 
ATOM     25  H8  UNL     1       7.863 -10.072  11.718  1.00  0.00     0.206 HD
ATOM     26  H9  UNL     1       9.473 -11.364  13.135  1.00  0.00     0.206 HD
BRANCH  21  27
HETATM   27  N6  UNL     1       8.787  -7.520  10.916  1.00  0.00    -0.137 N 
ATOM     28  H6  UNL     1       8.015  -7.678  10.268  1.00  0.00     0.205 HD
BRANCH  27  29
HETATM   29  N7  UNL     1       9.365  -6.257  11.083  1.00  0.00    -0.331 N 
ATOM     30  H72 UNL     1       9.670  -5.937  12.002  1.00  0.00     0.177 HD
ATOM     31  H71 UNL     1       9.458  -5.688  10.242  1.00  0.00     0.177 HD
ENDBRANCH  27  29
ENDBRANCH  21  27
ENDBRANCH   3  19
TORSDOF 7
ENDMDL
MODEL 3
REMARK VINA RESULT: -8.265984816      1.455      2.147
REMARK  7 active torsions:
REMARK  status: ('A' for Active; 'I' for Inactive)
REMARK    1  A    between atoms: N1_1  and  C1_4 
REMARK    2  A    between atoms: N3_9  and  C3_10 
REMARK    3  A    between atoms: C3_10  and  C4_11 
REMARK       I    between atoms: C4_11  and  N4_13 
REMARK    4  A    between atoms: N4_13  and  C5_15 
REMARK    5  A    between atoms: C6_18  and  N6_19 
REMARK    6  A    between atoms: N6_19  and  N7_21 
REMARK    7  A    between atoms: N10_28  and  N11_29 
ROOT
HETATM    1  C4  UNL     1      12.243 -10.243  13.315  1.00  0.00     0.256 C 
HETATM    2  O2  UNL     1      12.694 -11.300  13.787  1.00  0.00    -0.271 OA
HETATM    3  N4  UNL     1      10.954  -9.786  13.725  1.00  0.00    -0.156 N 
ATOM      4  H4  UNL     1      10.810  -9.468  14.683  1.00  0.00     0.187 HD
ENDROOT
BRANCH   1   5
HETATM    5  C3  UNL     1      12.970  -9.396  12.330  1.00  0.00     0.260 C 
BRANCH   5   6
HETATM    6  N3  UNL     1      14.243  -8.955  12.848  1.00  0.00    -0.197 N 
HETATM    7  C2  UNL     1      14.448  -7.786  13.480  1.00  0.00     0.357 A 
HETATM    8  N2  UNL     1      15.749  -7.734  13.811  1.00  0.00    -0.137 N 
HETATM    9  O1  UNL     1      13.599  -6.892  13.729  1.00  0.00    -0.244 OA
HETATM   10  C1  UNL     1      16.359  -8.875  13.383  1.00  0.00     0.716 A 
ATOM     11  H2  UNL     1      16.206  -6.966  14.303  1.00  0.00     0.189 HD
HETATM   12  N10 UNL     1      15.394  -9.625  12.782  1.00  0.00    -0.020 N 
BRANCH  10  13
HETATM   13  N1  UNL     1      17.597  -9.216  13.501  1.00  0.00    -0.231 N 
ATOM     14  H12 UNL     1      18.199  -8.976  14.289  1.00  0.00     0.174 HD
ATOM     15  H11 UNL     1      18.169  -9.762  12.858  1.00  0.00     0.174 HD
ENDBRANCH  10  13
BRANCH  12  16
HETATM   16  N11 UNL     1      15.533 -10.879  12.187  1.00  0.00    -0.309 N 
ATOM     17 2H11 UNL     1      14.831 -11.617  12.239  1.00  0.00     0.179 HD
ATOM     18 1H11 UNL     1      16.321 -11.226  11.640  1.00  0.00     0.179 HD
ENDBRANCH  12  16
ENDBRANCH   5   6
ENDBRANCH   1   5
BRANCH   3  19
HETATM   19  C5  UNL     1       9.971  -9.772  12.892  1.00  0.00     0.714 A 
HETATM   20  N5  UNL     1       9.548  -8.762  12.119  1.00  0.00    -0.018 N 
HETATM   21  C6  UNL     1       8.502  -9.199  11.416  1.00  0.00     0.726 A 
ATOM     22  H5  UNL     1       9.953  -7.826  12.077  1.00  0.00     0.203 HD
HETATM   23  N8  UNL     1       8.283 -10.468  11.754  1.00  0.00    -0.116 N 
HETATM   24  N9  UNL     1       9.175 -10.819  12.651  1.00  0.00    -0.117 N 
ATOM     25  H8  UNL     1       7.546 -11.067  11.379  1.00  0.00     0.206 HD
ATOM     26  H9  UNL     1       9.249 -11.737  13.090  1.00  0.00     0.206 HD
BRANCH  21  27
HETATM   27  N6  UNL     1       7.775  -8.396  10.473  1.00  0.00    -0.137 N 
ATOM     28  H6  UNL     1       8.086  -7.461  10.211  1.00  0.00     0.205 HD
BRANCH  27  29
HETATM   29  N7  UNL     1       6.617  -8.969   9.936  1.00  0.00    -0.331 N 
ATOM     30  H72 UNL     1       6.526  -9.980   9.845  1.00  0.00     0.177 HD
ATOM     31  H71 UNL     1       5.886  -8.319   9.646  1.00  0.00     0.177 HD
ENDBRANCH  27  29
ENDBRANCH  21  27
ENDBRANCH   3  19
TORSDOF 7
ENDMDL
MODEL 4
REMARK VINA RESULT: -8.167617528      1.999      6.973
REMARK  7 active torsions:
REMARK  status: ('A' for Active; 'I' for Inactive)
REMARK    1  A    between atoms: N1_1  and  C1_4 
REMARK    2  A    between atoms: N3_9  and  C3_10 
REMARK    3  A    between atoms: C3_10  and  C4_11 
REMARK       I    between atoms: C4_11  and  N4_13 
REMARK    4  A    between atoms: N4_13  and  C5_15 
REMARK    5  A    between atoms: C6_18  and  N6_19 
REMARK    6  A    between atoms: N6_19  and  N7_21 
REMARK    7  A    between atoms: N10_28  and  N11_29 
ROOT
HETATM    1  C4  UNL     1      11.405  -9.719  12.895  1.00  0.00     0.256 C 
HETATM    2  O2  UNL     1      11.009 -10.849  13.227  1.00  0.00    -0.271 OA
HETATM    3  N4  UNL     1      12.688  -9.576  12.285  1.00  0.00    -0.156 N 
ATOM      4  H4  UNL     1      12.848  -9.951  11.351  1.00  0.00     0.187 HD
ENDROOT
BRANCH   1   5
HETATM    5  C3  UNL     1      10.617  -8.471  13.094  1.00  0.00     0.260 C 
BRANCH   5   6
HETATM    6  N3  UNL     1       9.680  -8.260  12.016  1.00  0.00    -0.197 N 
HETATM    7  C2  UNL     1       9.680  -7.190  11.201  1.00  0.00     0.357 A 
HETATM    8  N2  UNL     1       8.668  -7.351  10.333  1.00  0.00    -0.137 N 
HETATM    9  O1  UNL     1      10.468  -6.210  11.226  1.00  0.00    -0.244 OA
HETATM   10  C1  UNL     1       8.034  -8.526  10.606  1.00  0.00     0.716 A 
ATOM     11  H2  UNL     1       8.416  -6.700   9.589  1.00  0.00     0.189 HD
HETATM   12  N10 UNL     1       8.687  -9.077  11.667  1.00  0.00    -0.020 N 
BRANCH  10  13
HETATM   13  N1  UNL     1       7.017  -9.046  10.008  1.00  0.00    -0.231 N 
ATOM     14  H12 UNL     1       6.949  -9.213   9.005  1.00  0.00     0.174 HD
ATOM     15  H11 UNL     1       6.139  -9.370  10.415  1.00  0.00     0.174 HD
ENDBRANCH  10  13
BRANCH  12  16
HETATM   16  N11 UNL     1       8.405 -10.283  12.309  1.00  0.00    -0.309 N 
ATOM     17 2H11 UNL     1       8.809 -11.180  12.041  1.00  0.00     0.179 HD
ATOM     18 1H11 UNL     1       7.784 -10.437  13.103  1.00  0.00     0.179 HD
ENDBRANCH  12  16
ENDBRANCH   5   6
ENDBRANCH   1   5
BRANCH   3  19
HETATM   19  C5  UNL     1      13.643  -8.976  12.907  1.00  0.00     0.714 A 
HETATM   20  N5  UNL     1      14.934  -9.330  12.989  1.00  0.00    -0.018 N 
HETATM   21  C6  UNL     1      15.559  -8.416  13.734  1.00  0.00     0.726 A 
ATOM     22  H5  UNL     1      15.362 -10.151  12.560  1.00  0.00     0.203 HD
HETATM   23  N8  UNL     1      14.659  -7.507  14.107  1.00  0.00    -0.116 N 
HETATM   24  N9  UNL     1      13.494  -7.846  13.605  1.00  0.00    -0.117 N 
ATOM     25  H8  UNL     1      14.843  -6.687  14.685  1.00  0.00     0.206 HD
ATOM     26  H9  UNL     1      12.621  -7.333  13.727  1.00  0.00     0.206 HD
BRANCH  21  27
HETATM   27  N6  UNL     1      16.959  -8.455  14.048  1.00  0.00    -0.137 N 
ATOM     28  H6  UNL     1      17.662  -8.672  13.342  1.00  0.00     0.205 HD
BRANCH  27  29
HETATM   29  N7  UNL     1      17.303  -8.180  15.376  1.00  0.00    -0.331 N 
ATOM     30  H72 UNL     1      17.107  -8.850  16.119  1.00  0.00     0.177 HD
ATOM     31  H71 UNL     1      17.755  -7.281  15.547  1.00  0.00     0.177 HD
ENDBRANCH  27  29
ENDBRANCH  21  27
ENDBRANCH   3  19
TORSDOF 7
ENDMDL
MODEL 5
REMARK VINA RESULT: -8.152379783      1.696      2.240
REMARK  7 active torsions:
REMARK  status: ('A' for Active; 'I' for Inactive)
REMARK    1  A    between atoms: N1_1  and  C1_4 
REMARK    2  A    between atoms: N3_9  and  C3_10 
REMARK    3  A    between atoms: C3_10  and  C4_11 
REMARK       I    between atoms: C4_11  and  N4_13 
REMARK    4  A    between atoms: N4_13  and  C5_15 
REMARK    5  A    between atoms: C6_18  and  N6_19 
REMARK    6  A    between atoms: N6_19  and  N7_21 
REMARK    7  A    between atoms: N10_28  and  N11_29 
ROOT
HETATM    1  C4  UNL     1      11.794  -9.797  13.018  1.00  0.00     0.256 C 
HETATM    2  O2  UNL     1      11.664 -10.923  13.527  1.00  0.00    -0.271 OA
HETATM    3  N4  UNL     1      10.830  -8.783  13.304  1.00  0.00    -0.156 N 
ATOM      4  H4  UNL     1      10.768  -8.396  14.246  1.00  0.00     0.187 HD
ENDROOT
BRANCH   1   5
HETATM    5  C3  UNL     1      12.911  -9.421  12.109  1.00  0.00     0.260 C 
BRANCH   5   6
HETATM    6  N3  UNL     1      14.014  -8.840  12.838  1.00  0.00    -0.197 N 
HETATM    7  C2  UNL     1      13.981  -7.642  13.448  1.00  0.00     0.357 A 
HETATM    8  N2  UNL     1      15.185  -7.451  14.013  1.00  0.00    -0.137 N 
HETATM    9  O1  UNL     1      13.019  -6.835  13.497  1.00  0.00    -0.244 OA
HETATM   10  C1  UNL     1      15.972  -8.533  13.754  1.00  0.00     0.716 A 
ATOM     11  H2  UNL     1      15.464  -6.629  14.549  1.00  0.00     0.189 HD
HETATM   12  N10 UNL     1      15.215  -9.391  13.014  1.00  0.00    -0.020 N 
BRANCH  10  13
HETATM   13  N1  UNL     1      17.191  -8.742  14.116  1.00  0.00    -0.231 N 
ATOM     14  H12 UNL     1      18.016  -8.487  13.573  1.00  0.00     0.174 HD
ATOM     15  H11 UNL     1      17.533  -9.180  14.971  1.00  0.00     0.174 HD
ENDBRANCH  10  13
BRANCH  12  16
HETATM   16  N11 UNL     1      15.585 -10.636  12.509  1.00  0.00    -0.309 N 
ATOM     17 2H11 UNL     1      15.873 -11.425  13.088  1.00  0.00     0.179 HD
ATOM     18 1H11 UNL     1      15.622 -10.928  11.533  1.00  0.00     0.179 HD
ENDBRANCH  12  16
ENDBRANCH   5   6
ENDBRANCH   1   5
BRANCH   3  19
HETATM   19  C5  UNL     1      10.041  -8.354  12.382  1.00  0.00     0.714 A 
HETATM   20  N5  UNL     1       8.976  -8.967  11.846  1.00  0.00    -0.018 N 
HETATM   21  C6  UNL     1       8.458  -8.152  10.925  1.00  0.00     0.726 A 
ATOM     22  H5  UNL     1       8.624  -9.892  12.097  1.00  0.00     0.203 HD
HETATM   23  N8  UNL     1       9.200  -7.046  10.895  1.00  0.00    -0.116 N 
HETATM   24  N9  UNL     1      10.162  -7.166  11.779  1.00  0.00    -0.117 N 
ATOM     25  H8  UNL     1       9.046  -6.241  10.287  1.00  0.00     0.206 HD
ATOM     26  H9  UNL     1      10.881  -6.470  11.975  1.00  0.00     0.206 HD
BRANCH  21  27
HETATM   27  N6  UNL     1       7.303  -8.464  10.133  1.00  0.00    -0.137 N 
ATOM     28  H6  UNL     1       6.744  -7.738   9.686  1.00  0.00     0.205 HD
BRANCH  27  29
HETATM   29  N7  UNL     1       6.985  -9.821  10.010  1.00  0.00    -0.331 N 
ATOM     30  H72 UNL     1       6.762 -10.228   9.101  1.00  0.00     0.177 HD
ATOM     31  H71 UNL     1       6.992 -10.367  10.872  1.00  0.00     0.177 HD
ENDBRANCH  27  29
ENDBRANCH  21  27
ENDBRANCH   3  19
TORSDOF 7
ENDMDL
