MODEL 1
REMARK VINA RESULT: -7.958383919      0.000      0.000
REMARK  6 active torsions:
REMARK  status: ('A' for Active; 'I' for Inactive)
REMARK    1  A    between atoms: C2_2  and  C5_16 
REMARK    2  A    between atoms: N1_3  and  N2_5 
REMARK    3  A    between atoms: C3_8  and  N4_9 
REMARK    4  A    between atoms: C5_16  and  O2_17 
REMARK    5  A    between atoms: C5_16  and  N6_19 
REMARK    6  A    between atoms: C6_22  and  N8_23 
ROOT
HETATM    1  C5  UNL     1      12.828  -8.461  12.550  1.00  0.00     0.307 C 
ENDROOT
BRANCH   1   2
HETATM    2  C2  UNL     1      12.235  -9.784  12.812  1.00  0.00     0.052 C 
HETATM    3  C1  UNL     1      13.071 -10.883  13.420  1.00  0.00     0.070 C 
HETATM    4  N1  UNL     1      11.028 -10.078  12.554  1.00  0.00    -0.279 N 
ATOM      5  H1  UNL     1      10.761 -11.034  12.789  1.00  0.00     0.188 HD
BRANCH   4   6
HETATM    6  N2  UNL     1      10.027  -9.322  12.010  1.00  0.00    -0.127 N 
HETATM    7  N3  UNL     1      10.231  -8.046  11.647  1.00  0.00    -0.106 N 
HETATM    8  C3  UNL     1       9.094  -7.543  11.139  1.00  0.00     0.696 A 
ATOM      9  H3  UNL     1      11.111  -7.538  11.742  1.00  0.00     0.208 HD
HETATM   10  N5  UNL     1       8.186  -8.520  11.191  1.00  0.00    -0.137 N 
HETATM   11  C4  UNL     1       8.754  -9.601  11.721  1.00  0.00     0.375 A 
ATOM     12  H5  UNL     1       7.219  -8.451  10.877  1.00  0.00     0.189 HD
HETATM   13  O1  UNL     1       8.245 -10.732  11.944  1.00  0.00    -0.243 OA
BRANCH   8  14
HETATM   14  N4  UNL     1       8.930  -6.324  10.685  1.00  0.00    -0.233 N 
ATOM     15  H42 UNL     1       8.400  -6.033   9.863  1.00  0.00     0.174 HD
ATOM     16  H41 UNL     1       9.318  -5.476  11.098  1.00  0.00     0.174 HD
ENDBRANCH   8  14
ENDBRANCH   4   6
ENDBRANCH   1   2
BRANCH   1  17
HETATM   17  O2  UNL     1      12.350  -7.457  13.378  1.00  0.00    -0.369 OA
ATOM     18  H2  UNL     1      12.775  -7.425  14.227  1.00  0.00     0.212 HD
ENDBRANCH   1  17
BRANCH   1  19
HETATM   19  N6  UNL     1      14.283  -8.477  12.591  1.00  0.00    -0.074 N 
HETATM   20  N7  UNL     1      15.089  -8.897  11.629  1.00  0.00    -0.113 N 
HETATM   21  C6  UNL     1      16.367  -8.772  12.000  1.00  0.00     0.705 A 
ATOM     22  H7  UNL     1      14.778  -9.264  10.731  1.00  0.00     0.206 HD
HETATM   23  N9  UNL     1      16.375  -8.256  13.241  1.00  0.00    -0.020 N 
HETATM   24  C7  UNL     1      15.076  -8.072  13.610  1.00  0.00     0.710 A 
ATOM     25  H9  UNL     1      17.199  -8.042  13.803  1.00  0.00     0.203 HD
HETATM   26  N10 UNL     1      14.731  -7.590  14.748  1.00  0.00    -0.233 N 
ATOM     27 2H10 UNL     1      13.758  -7.452  15.024  1.00  0.00     0.174 HD
ATOM     28 1H10 UNL     1      15.330  -7.284  15.516  1.00  0.00     0.174 HD
BRANCH  21  29
HETATM   29  N8  UNL     1      17.421  -9.079  11.323  1.00  0.00    -0.233 N 
ATOM     30  H82 UNL     1      17.580  -9.978  10.868  1.00  0.00     0.174 HD
ATOM     31  H81 UNL     1      18.238  -8.497  11.138  1.00  0.00     0.174 HD
ENDBRANCH  21  29
ENDBRANCH   1  19
TORSDOF 6
ENDMDL
MODEL 2
REMARK VINA RESULT: -7.920917712      1.853      6.222
REMARK  6 active torsions:
REMARK  status: ('A' for Active; 'I' for Inactive)
REMARK    1  A    between atoms: C2_2  and  C5_16 
REMARK    2  A    between atoms: N1_3  and  N2_5 
REMARK    3  A    between atoms: C3_8  and  N4_9 
REMARK    4  A    between atoms: C5_16  and  O2_17 
REMARK    5  A    between atoms: C5_16  and  N6_19 
REMARK    6  A    between atoms: C6_22  and  N8_23 
ROOT
HETATM    1  C5  UNL     1      10.734  -8.501  12.793  1.00  0.00     0.307 C 
ENDROOT
BRANCH   1   2
HETATM    2  C2  UNL     1      11.404  -7.488  11.957  1.00  0.00     0.052 C 
HETATM    3  C1  UNL     1      10.585  -6.499  11.164  1.00  0.00     0.070 C 
HETATM    4  N1  UNL     1      12.663  -7.385  11.849  1.00  0.00    -0.279 N 
ATOM      5  H1  UNL     1      12.980  -6.636  11.232  1.00  0.00     0.188 HD
BRANCH   4   6
HETATM    6  N2  UNL     1      13.666  -8.113  12.426  1.00  0.00    -0.127 N 
HETATM    7  N3  UNL     1      14.671  -7.520  13.090  1.00  0.00    -0.106 N 
HETATM    8  C3  UNL     1      15.507  -8.461  13.559  1.00  0.00     0.696 A 
ATOM      9  H3  UNL     1      14.781  -6.514  13.219  1.00  0.00     0.208 HD
HETATM   10  N5  UNL     1      15.010  -9.639  13.179  1.00  0.00    -0.137 N 
HETATM   11  C4  UNL     1      13.891  -9.427  12.490  1.00  0.00     0.375 A 
ATOM     12  H5  UNL     1      15.419 -10.551  13.382  1.00  0.00     0.189 HD
HETATM   13  O1  UNL     1      13.120 -10.270  11.958  1.00  0.00    -0.243 OA
BRANCH   8  14
HETATM   14  N4  UNL     1      16.597  -8.240  14.255  1.00  0.00    -0.233 N 
ATOM     15  H42 UNL     1      17.229  -7.443  14.183  1.00  0.00     0.174 HD
ATOM     16  H41 UNL     1      16.974  -8.849  14.981  1.00  0.00     0.174 HD
ENDBRANCH   8  14
ENDBRANCH   4   6
ENDBRANCH   1   2
BRANCH   1  17
HETATM   17  O2  UNL     1      10.406  -8.051  14.063  1.00  0.00    -0.369 OA
ATOM     18  H2  UNL     1      10.257  -8.749  14.690  1.00  0.00     0.212 HD
ENDBRANCH   1  17
BRANCH   1  19
HETATM   19  N6  UNL     1       9.555  -9.067  12.155  1.00  0.00    -0.074 N 
HETATM   20  N7  UNL     1       8.817  -8.491  11.220  1.00  0.00    -0.113 N 
HETATM   21  C6  UNL     1       7.810  -9.291  10.857  1.00  0.00     0.705 A 
ATOM     22  H7  UNL     1       8.993  -7.566  10.831  1.00  0.00     0.206 HD
HETATM   23  N9  UNL     1       7.909 -10.416  11.588  1.00  0.00    -0.020 N 
HETATM   24  C7  UNL     1       8.997 -10.276  12.396  1.00  0.00     0.710 A 
ATOM     25  H9  UNL     1       7.286 -11.222  11.544  1.00  0.00     0.203 HD
HETATM   26  N10 UNL     1       9.375 -11.180  13.226  1.00  0.00    -0.233 N 
ATOM     27 2H10 UNL     1      10.189 -11.075  13.832  1.00  0.00     0.174 HD
ATOM     28 1H10 UNL     1       8.954 -12.092  13.408  1.00  0.00     0.174 HD
BRANCH  21  29
HETATM   29  N8  UNL     1       6.894  -9.062   9.978  1.00  0.00    -0.233 N 
ATOM     30  H82 UNL     1       6.482  -8.149   9.791  1.00  0.00     0.174 HD
ATOM     31  H81 UNL     1       6.450  -9.731   9.349  1.00  0.00     0.174 HD
ENDBRANCH  21  29
ENDBRANCH   1  19
TORSDOF 6
ENDMDL
MODEL 3
REMARK VINA RESULT: -7.853483050      2.731      4.892
REMARK  6 active torsions:
REMARK  status: ('A' for Active; 'I' for Inactive)
REMARK    1  A    between atoms: C2_2  and  C5_16 
REMARK    2  A    between atoms: N1_3  and  N2_5 
REMARK    3  A    between atoms: C3_8  and  N4_9 
REMARK    4  A    between atoms: C5_16  and  O2_17 
REMARK    5  A    between atoms: C5_16  and  N6_19 
REMARK    6  A    between atoms: C6_22  and  N8_23 
ROOT
HETATM    1  C5  UNL     1      13.229  -8.097  12.106  1.00  0.00     0.307 C 
ENDROOT
BRANCH   1   2
HETATM    2  C2  UNL     1      13.619  -7.239  13.238  1.00  0.00     0.052 C 
HETATM    3  C1  UNL     1      14.603  -7.741  14.266  1.00  0.00     0.070 C 
HETATM    4  N1  UNL     1      13.170  -6.066  13.420  1.00  0.00    -0.279 N 
ATOM      5  H1  UNL     1      13.531  -5.594  14.249  1.00  0.00     0.188 HD
BRANCH   4   6
HETATM    6  N2  UNL     1      12.282  -5.332  12.685  1.00  0.00    -0.127 N 
HETATM    7  N3  UNL     1      11.061  -5.804  12.385  1.00  0.00    -0.106 N 
HETATM    8  C3  UNL     1      10.395  -4.886  11.666  1.00  0.00     0.696 A 
ATOM      9  H3  UNL     1      10.696  -6.717  12.661  1.00  0.00     0.208 HD
HETATM   10  N5  UNL     1      11.215  -3.842  11.525  1.00  0.00    -0.137 N 
HETATM   11  C4  UNL     1      12.361  -4.115  12.144  1.00  0.00     0.375 A 
ATOM     12  H5  UNL     1      10.999  -2.979  11.026  1.00  0.00     0.189 HD
HETATM   13  O1  UNL     1      13.393  -3.398  12.247  1.00  0.00    -0.243 OA
BRANCH   8  14
HETATM   14  N4  UNL     1       9.174  -5.011  11.204  1.00  0.00    -0.233 N 
ATOM     15  H42 UNL     1       8.311  -4.673  11.628  1.00  0.00     0.174 HD
ATOM     16  H41 UNL     1       8.911  -5.475  10.335  1.00  0.00     0.174 HD
ENDBRANCH   8  14
ENDBRANCH   4   6
ENDBRANCH   1   2
BRANCH   1  17
HETATM   17  O2  UNL     1      14.234  -8.953  11.679  1.00  0.00    -0.369 OA
ATOM     18  H2  UNL     1      14.015  -9.874  11.764  1.00  0.00     0.212 HD
ENDBRANCH   1  17
BRANCH   1  19
HETATM   19  N6  UNL     1      12.017  -8.859  12.367  1.00  0.00    -0.074 N 
HETATM   20  N7  UNL     1      10.808  -8.591  11.900  1.00  0.00    -0.113 N 
HETATM   21  C6  UNL     1       9.925  -9.494  12.337  1.00  0.00     0.705 A 
ATOM     22  H7  UNL     1      10.582  -7.805  11.291  1.00  0.00     0.206 HD
HETATM   23  N9  UNL     1      10.595 -10.367  13.109  1.00  0.00    -0.020 N 
HETATM   24  C7  UNL     1      11.898  -9.972  13.128  1.00  0.00     0.710 A 
ATOM     25  H9  UNL     1      10.200 -11.175  13.592  1.00  0.00     0.203 HD
HETATM   26  N10 UNL     1      12.812 -10.595  13.780  1.00  0.00    -0.233 N 
ATOM     27 2H10 UNL     1      13.788 -10.298  13.794  1.00  0.00     0.174 HD
ATOM     28 1H10 UNL     1      12.722 -11.434  14.354  1.00  0.00     0.174 HD
BRANCH  21  29
HETATM   29  N8  UNL     1       8.661  -9.551  12.087  1.00  0.00    -0.233 N 
ATOM     30  H82 UNL     1       8.160  -8.911  11.470  1.00  0.00     0.174 HD
ATOM     31  H81 UNL     1       7.980 -10.218  12.450  1.00  0.00     0.174 HD
ENDBRANCH  21  29
ENDBRANCH   1  19
TORSDOF 6
ENDMDL
MODEL 4
REMARK VINA RESULT: -7.834501136      1.845      6.350
REMARK  6 active torsions:
REMARK  status: ('A' for Active; 'I' for Inactive)
REMARK    1  A    between atoms: C2_2  and  C5_16 
REMARK    2  A    between atoms: N1_3  and  N2_5 
REMARK    3  A    between atoms: C3_8  and  N4_9 
REMARK    4  A    between atoms: C5_16  and  O2_17 
REMARK    5  A    between atoms: C5_16  and  N6_19 
REMARK    6  A    between atoms: C6_22  and  N8_23 
ROOT
HETATM    1  C5  UNL     1      10.704  -8.320  12.604  1.00  0.00     0.307 C 
ENDROOT
BRANCH   1   2
HETATM    2  C2  UNL     1      11.148  -7.162  11.808  1.00  0.00     0.052 C 
HETATM    3  C1  UNL     1      10.152  -6.379  10.990  1.00  0.00     0.070 C 
HETATM    4  N1  UNL     1      12.351  -6.763  11.757  1.00  0.00    -0.279 N 
ATOM      5  H1  UNL     1      12.507  -5.949  11.162  1.00  0.00     0.188 HD
BRANCH   4   6
HETATM    6  N2  UNL     1      13.473  -7.245  12.370  1.00  0.00    -0.127 N 
HETATM    7  N3  UNL     1      14.381  -7.973  11.699  1.00  0.00    -0.106 N 
HETATM    8  C3  UNL     1      15.380  -8.311  12.531  1.00  0.00     0.696 A 
ATOM      9  H3  UNL     1      14.321  -8.229  10.713  1.00  0.00     0.208 HD
HETATM   10  N5  UNL     1      15.082  -7.785  13.721  1.00  0.00    -0.137 N 
HETATM   11  C4  UNL     1      13.923  -7.138  13.622  1.00  0.00     0.375 A 
ATOM     12  H5  UNL     1      15.648  -7.865  14.565  1.00  0.00     0.189 HD
HETATM   13  O1  UNL     1      13.293  -6.507  14.512  1.00  0.00    -0.243 OA
BRANCH   8  14
HETATM   14  N4  UNL     1      16.436  -9.021  12.213  1.00  0.00    -0.233 N 
ATOM     15  H42 UNL     1      16.858  -9.128  11.291  1.00  0.00     0.174 HD
ATOM     16  H41 UNL     1      16.995  -9.580  12.857  1.00  0.00     0.174 HD
ENDBRANCH   8  14
ENDBRANCH   4   6
ENDBRANCH   1   2
BRANCH   1  17
HETATM   17  O2  UNL     1      10.485  -8.030  13.942  1.00  0.00    -0.369 OA
ATOM     18  H2  UNL     1      10.192  -8.775  14.454  1.00  0.00     0.212 HD
ENDBRANCH   1  17
BRANCH   1  19
HETATM   19  N6  UNL     1       9.527  -8.970  12.046  1.00  0.00    -0.074 N 
HETATM   20  N7  UNL     1       8.728  -8.476  11.115  1.00  0.00    -0.113 N 
HETATM   21  C6  UNL     1       7.744  -9.336  10.835  1.00  0.00     0.705 A 
ATOM     22  H7  UNL     1       8.846  -7.565  10.672  1.00  0.00     0.206 HD
HETATM   23  N9  UNL     1       7.923 -10.416  11.617  1.00  0.00    -0.020 N 
HETATM   24  C7  UNL     1       9.034 -10.188  12.371  1.00  0.00     0.710 A 
ATOM     25  H9  UNL     1       7.336 -11.250  11.640  1.00  0.00     0.203 HD
HETATM   26  N10 UNL     1       9.486 -11.029  13.229  1.00  0.00    -0.233 N 
ATOM     27 2H10 UNL     1      10.318 -10.858  13.794  1.00  0.00     0.174 HD
ATOM     28 1H10 UNL     1       9.114 -11.948  13.474  1.00  0.00     0.174 HD
BRANCH  21  29
HETATM   29  N8  UNL     1       6.785  -9.193   9.985  1.00  0.00    -0.233 N 
ATOM     30  H82 UNL     1       5.837  -8.900  10.220  1.00  0.00     0.174 HD
ATOM     31  H81 UNL     1       6.816  -9.344   8.976  1.00  0.00     0.174 HD
ENDBRANCH  21  29
ENDBRANCH   1  19
TORSDOF 6
ENDMDL
MODEL 5
REMARK VINA RESULT: -7.834196014      1.999      3.423
REMARK  6 active torsions:
REMARK  status: ('A' for Active; 'I' for Inactive)
REMARK    1  A    between atoms: C2_2  and  C5_16 
REMARK    2  A    between atoms: N1_3  and  N2_5 
REMARK    3  A    between atoms: C3_8  and  N4_9 
REMARK    4  A    between atoms: C5_16  and  O2_17 
REMARK    5  A    between atoms: C5_16  and  N6_19 
REMARK    6  A    between atoms: C6_22  and  N8_23 
ROOT
HETATM    1  C5  UNL     1      11.706  -7.434  13.356  1.00  0.00     0.307 C 
ENDROOT
BRANCH   1   2
HETATM    2  C2  UNL     1      11.972  -6.315  12.434  1.00  0.00     0.052 C 
HETATM    3  C1  UNL     1      13.270  -5.551  12.525  1.00  0.00     0.070 C 
HETATM    4  N1  UNL     1      11.159  -5.932  11.539  1.00  0.00    -0.279 N 
ATOM      5  H1  UNL     1      11.481  -5.142  10.978  1.00  0.00     0.188 HD
BRANCH   4   6
HETATM    6  N2  UNL     1       9.921  -6.404  11.204  1.00  0.00    -0.127 N 
HETATM    7  N3  UNL     1       9.748  -7.655  10.747  1.00  0.00    -0.106 N 
HETATM    8  C3  UNL     1       8.444  -7.861  10.503  1.00  0.00     0.696 A 
ATOM      9  H3  UNL     1      10.491  -8.342  10.609  1.00  0.00     0.208 HD
HETATM   10  N5  UNL     1       7.813  -6.727  10.813  1.00  0.00    -0.137 N 
HETATM   11  C4  UNL     1       8.711  -5.842  11.238  1.00  0.00     0.375 A 
ATOM     12  H5  UNL     1       6.809  -6.565  10.737  1.00  0.00     0.189 HD
HETATM   13  O1  UNL     1       8.530  -4.656  11.625  1.00  0.00    -0.243 OA
BRANCH   8  14
HETATM   14  N4  UNL     1       7.915  -8.972  10.049  1.00  0.00    -0.233 N 
ATOM     15  H42 UNL     1       8.343  -9.897  10.016  1.00  0.00     0.174 HD
ATOM     16  H41 UNL     1       6.979  -9.068   9.654  1.00  0.00     0.174 HD
ENDBRANCH   8  14
ENDBRANCH   4   6
ENDBRANCH   1   2
BRANCH   1  17
HETATM   17  O2  UNL     1      10.363  -7.756  13.474  1.00  0.00    -0.369 OA
ATOM     18  H2  UNL     1      10.048  -7.766  14.370  1.00  0.00     0.212 HD
ENDBRANCH   1  17
BRANCH   1  19
HETATM   19  N6  UNL     1      12.468  -8.630  13.024  1.00  0.00    -0.074 N 
HETATM   20  N7  UNL     1      13.785  -8.753  13.058  1.00  0.00    -0.113 N 
HETATM   21  C6  UNL     1      14.150  -9.986  12.693  1.00  0.00     0.705 A 
ATOM     22  H7  UNL     1      14.431  -8.011  13.324  1.00  0.00     0.206 HD
HETATM   23  N9  UNL     1      13.027 -10.671  12.418  1.00  0.00    -0.020 N 
HETATM   24  C7  UNL     1      11.978  -9.826  12.625  1.00  0.00     0.710 A 
ATOM     25  H9  UNL     1      12.970 -11.642  12.112  1.00  0.00     0.203 HD
HETATM   26  N10 UNL     1      10.754 -10.171  12.451  1.00  0.00    -0.233 N 
ATOM     27 2H10 UNL     1       9.969  -9.537  12.605  1.00  0.00     0.174 HD
ATOM     28 1H10 UNL     1      10.385 -11.073  12.149  1.00  0.00     0.174 HD
BRANCH  21  29
HETATM   29  N8  UNL     1      15.345 -10.465  12.609  1.00  0.00    -0.233 N 
ATOM     30  H82 UNL     1      16.127 -10.189  13.202  1.00  0.00     0.174 HD
ATOM     31  H81 UNL     1      15.691 -11.172  11.960  1.00  0.00     0.174 HD
ENDBRANCH  21  29
ENDBRANCH   1  19
TORSDOF 6
ENDMDL
