MODEL 1
REMARK VINA RESULT: -4.914677597      0.000      0.000
REMARK  3 active torsions:
REMARK  status: ('A' for Active; 'I' for Inactive)
REMARK    1  A    between atoms: O1_1  and  C1_3 
REMARK    2  A    between atoms: C1_3  and  C2_4 
REMARK    3  A    between atoms: C3_5  and  C4_6 
ROOT
HETATM    1  C1  UNL     1      18.717  17.751  44.860  1.00  0.00     0.328 C 
HETATM    2  C5  UNL     1      19.277  17.265  43.515  1.00  0.00     0.069 C 
HETATM    3  C6  UNL     1      20.388  16.376  43.984  1.00  0.00     0.041 C 
HETATM    4  C7  UNL     1      20.831  17.066  45.265  1.00  0.00     0.278 C 
HETATM    5  N1  UNL     1      19.990  18.255  45.402  1.00  0.00     0.136 N 
HETATM    6  C8  UNL     1      20.391  19.166  44.343  1.00  0.00     0.278 C 
HETATM    7  C9  UNL     1      19.898  18.556  43.036  1.00  0.00     0.041 C 
ENDROOT
BRANCH   1   8
HETATM    8  O1  UNL     1      17.826  18.778  44.673  1.00  0.00    -0.353 OA
ATOM      9  H1  UNL     1      17.901  19.502  45.284  1.00  0.00     0.213 HD
ENDBRANCH   1   8
BRANCH   1  10
HETATM   10  C2  UNL     1      18.214  16.621  45.585  1.00  0.00    -0.035 C 
HETATM   11  C3  UNL     1      17.772  15.676  46.187  1.00  0.00    -0.091 C 
BRANCH  11  12
HETATM   12  C4  UNL     1      17.208  14.522  46.916  1.00  0.00     0.179 C 
HETATM   13 BR1  UNL     1      15.701  15.113  47.967  1.00  0.00    -0.083 Br
ENDBRANCH  11  12
ENDBRANCH   1  10
TORSDOF 3
ENDMDL
MODEL 2
REMARK VINA RESULT: -4.587819266      0.968      1.196
REMARK  3 active torsions:
REMARK  status: ('A' for Active; 'I' for Inactive)
REMARK    1  A    between atoms: O1_1  and  C1_3 
REMARK    2  A    between atoms: C1_3  and  C2_4 
REMARK    3  A    between atoms: C3_5  and  C4_6 
ROOT
HETATM    1  C1  UNL     1      19.340  17.160  44.483  1.00  0.00     0.328 C 
HETATM    2  C5  UNL     1      20.696  16.501  44.191  1.00  0.00     0.069 C 
HETATM    3  C6  UNL     1      21.299  16.489  45.563  1.00  0.00     0.041 C 
HETATM    4  C7  UNL     1      20.708  17.747  46.183  1.00  0.00     0.278 C 
HETATM    5  N1  UNL     1      19.875  18.360  45.149  1.00  0.00     0.136 N 
HETATM    6  C8  UNL     1      20.783  18.852  44.128  1.00  0.00     0.278 C 
HETATM    7  C9  UNL     1      21.346  17.625  43.419  1.00  0.00     0.041 C 
ENDROOT
BRANCH   1   8
HETATM    8  O1  UNL     1      18.701  17.494  43.316  1.00  0.00    -0.353 OA
ATOM      9  H1  UNL     1      17.755  17.563  43.372  1.00  0.00     0.213 HD
ENDBRANCH   1   8
BRANCH   1  10
HETATM   10  C2  UNL     1      18.599  16.315  45.374  1.00  0.00    -0.035 C 
HETATM   11  C3  UNL     1      17.964  15.600  46.106  1.00  0.00    -0.091 C 
BRANCH  11  12
HETATM   12  C4  UNL     1      17.171  14.717  46.985  1.00  0.00     0.179 C 
HETATM   13 BR1  UNL     1      15.653  15.698  47.662  1.00  0.00    -0.083 Br
ENDBRANCH  11  12
ENDBRANCH   1  10
TORSDOF 3
ENDMDL
MODEL 3
REMARK VINA RESULT: -4.502008182      1.761      2.291
REMARK  3 active torsions:
REMARK  status: ('A' for Active; 'I' for Inactive)
REMARK    1  A    between atoms: O1_1  and  C1_3 
REMARK    2  A    between atoms: C1_3  and  C2_4 
REMARK    3  A    between atoms: C3_5  and  C4_6 
ROOT
HETATM    1  C1  UNL     1      20.318  17.085  44.790  1.00  0.00     0.328 C 
HETATM    2  C5  UNL     1      20.258  18.574  44.419  1.00  0.00     0.069 C 
HETATM    3  C6  UNL     1      19.159  18.561  43.400  1.00  0.00     0.041 C 
HETATM    4  C7  UNL     1      19.334  17.191  42.760  1.00  0.00     0.278 C 
HETATM    5  N1  UNL     1      20.485  16.575  43.420  1.00  0.00     0.136 N 
HETATM    6  C8  UNL     1      21.653  17.325  42.993  1.00  0.00     0.278 C 
HETATM    7  C9  UNL     1      21.568  18.686  43.674  1.00  0.00     0.041 C 
ENDROOT
BRANCH   1   8
HETATM    8  O1  UNL     1      21.431  16.819  45.549  1.00  0.00    -0.353 OA
ATOM      9  H1  UNL     1      21.434  17.200  46.419  1.00  0.00     0.213 HD
ENDBRANCH   1   8
BRANCH   1  10
HETATM   10  C2  UNL     1      19.066  16.706  45.376  1.00  0.00    -0.035 C 
HETATM   11  C3  UNL     1      18.023  16.384  45.886  1.00  0.00    -0.091 C 
BRANCH  11  12
HETATM   12  C4  UNL     1      16.756  15.985  46.532  1.00  0.00     0.179 C 
HETATM   13 BR1  UNL     1      16.986  14.257  47.361  1.00  0.00    -0.083 Br
ENDBRANCH  11  12
ENDBRANCH   1  10
TORSDOF 3
ENDMDL
MODEL 4
REMARK VINA RESULT: -4.138624368      1.755      2.340
REMARK  3 active torsions:
REMARK  status: ('A' for Active; 'I' for Inactive)
REMARK    1  A    between atoms: O1_1  and  C1_3 
REMARK    2  A    between atoms: C1_3  and  C2_4 
REMARK    3  A    between atoms: C3_5  and  C4_6 
ROOT
HETATM    1  C1  UNL     1      19.639  16.595  45.626  1.00  0.00     0.328 C 
HETATM    2  C5  UNL     1      20.079  18.066  45.599  1.00  0.00     0.069 C 
HETATM    3  C6  UNL     1      19.213  18.593  44.496  1.00  0.00     0.041 C 
HETATM    4  C7  UNL     1      19.087  17.383  43.582  1.00  0.00     0.278 C 
HETATM    5  N1  UNL     1      19.879  16.320  44.199  1.00  0.00     0.136 N 
HETATM    6  C8  UNL     1      21.270  16.721  44.078  1.00  0.00     0.278 C 
HETATM    7  C9  UNL     1      21.471  17.888  45.039  1.00  0.00     0.041 C 
ENDROOT
BRANCH   1   8
HETATM    8  O1  UNL     1      20.480  15.850  46.414  1.00  0.00    -0.353 OA
ATOM      9  H1  UNL     1      21.234  15.479  45.971  1.00  0.00     0.213 HD
ENDBRANCH   1   8
BRANCH   1  10
HETATM   10  C2  UNL     1      18.250  16.535  45.976  1.00  0.00    -0.035 C 
HETATM   11  C3  UNL     1      17.085  16.465  46.273  1.00  0.00    -0.091 C 
BRANCH  11  12
HETATM   12  C4  UNL     1      15.659  16.354  46.642  1.00  0.00     0.179 C 
HETATM   13 BR1  UNL     1      15.484  15.149  48.139  1.00  0.00    -0.083 Br
ENDBRANCH  11  12
ENDBRANCH   1  10
TORSDOF 3
ENDMDL
MODEL 5
REMARK VINA RESULT: -4.062235597      3.351      4.568
REMARK  3 active torsions:
REMARK  status: ('A' for Active; 'I' for Inactive)
REMARK    1  A    between atoms: O1_1  and  C1_3 
REMARK    2  A    between atoms: C1_3  and  C2_4 
REMARK    3  A    between atoms: C3_5  and  C4_6 
ROOT
HETATM    1  C1  UNL     1      21.251  16.942  44.560  1.00  0.00     0.328 C 
HETATM    2  C5  UNL     1      20.051  16.263  45.238  1.00  0.00     0.069 C 
HETATM    3  C6  UNL     1      18.968  17.255  44.939  1.00  0.00     0.041 C 
HETATM    4  C7  UNL     1      19.731  18.571  44.935  1.00  0.00     0.278 C 
HETATM    5  N1  UNL     1      21.122  18.239  45.246  1.00  0.00     0.136 N 
HETATM    6  C8  UNL     1      21.142  17.813  46.634  1.00  0.00     0.278 C 
HETATM    7  C9  UNL     1      20.455  16.453  46.682  1.00  0.00     0.041 C 
ENDROOT
BRANCH   1   8
HETATM    8  O1  UNL     1      22.423  16.320  44.912  1.00  0.00    -0.353 OA
ATOM      9  H1  UNL     1      23.152  16.898  45.103  1.00  0.00     0.213 HD
ENDBRANCH   1   8
BRANCH   1  10
HETATM   10  C2  UNL     1      20.996  17.030  43.153  1.00  0.00    -0.035 C 
HETATM   11  C3  UNL     1      20.770  17.087  41.971  1.00  0.00    -0.091 C 
BRANCH  11  12
HETATM   12  C4  UNL     1      20.478  17.137  40.524  1.00  0.00     0.179 C 
HETATM   13 BR1  UNL     1      18.718  17.881  40.258  1.00  0.00    -0.083 Br
ENDBRANCH  11  12
ENDBRANCH   1  10
TORSDOF 3
ENDMDL
