MODEL 1
REMARK VINA RESULT: -10.692596352      0.000      0.000
REMARK  8 active torsions:
REMARK  status: ('A' for Active; 'I' for Inactive)
REMARK    1  A    between atoms: N1_1  and  C1_4 
REMARK    2  A    between atoms: C5_15  and  N5_16 
REMARK    3  A    between atoms: N5_16  and  C6_18 
REMARK    4  A    between atoms: C6_18  and  C7_19 
REMARK    5  A    between atoms: C11_25  and  N7_26 
REMARK    6  A    between atoms: N7_26  and  C12_28 
REMARK    7  A    between atoms: C12_28  and  C13_29 
REMARK    8  A    between atoms: N8_31  and  C15_32 
ROOT
HETATM    1  C7  UNL     1      27.121  74.350  -1.132  1.00  0.00     0.003 A 
HETATM    2  C8  UNL     1      28.485  74.285  -1.189  1.00  0.00     0.014 A 
HETATM    3  C9  UNL     1      29.155  73.663  -0.155  1.00  0.00     0.018 A 
HETATM    4  C10 UNL     1      28.451  73.127   0.897  1.00  0.00     0.089 A 
HETATM    5  N6  UNL     1      27.108  73.181   0.973  1.00  0.00    -0.352 N 
ATOM      6  H6  UNL     1      26.606  72.777   1.764  1.00  0.00     0.166 HD
HETATM    7  C11 UNL     1      26.450  73.790  -0.039  1.00  0.00     0.109 A 
ENDROOT
BRANCH   1   8
HETATM    8  C6  UNL     1      26.320  74.986  -2.182  1.00  0.00     0.163 C 
BRANCH   8   9
HETATM    9  N5  UNL     1      26.986  75.162  -3.419  1.00  0.00    -0.370 N 
ATOM     10  H5  UNL     1      27.160  74.301  -3.939  1.00  0.00     0.161 HD
BRANCH   9  11
HETATM   11  C5  UNL     1      27.398  76.214  -3.980  1.00  0.00     0.132 A 
HETATM   12  N4  UNL     1      27.110  77.467  -3.534  1.00  0.00    -0.337 N 
HETATM   13  C4  UNL     1      27.556  78.564  -4.138  1.00  0.00     0.182 A 
ATOM     14  H4  UNL     1      26.528  77.567  -2.703  1.00  0.00     0.168 HD
HETATM   15  N3  UNL     1      28.320  78.472  -5.227  1.00  0.00    -0.346 N 
HETATM   16  C3  UNL     1      28.637  77.251  -5.711  1.00  0.00     0.133 A 
ATOM     17  H3  UNL     1      28.662  79.314  -5.689  1.00  0.00     0.167 HD
HETATM   18  C2  UNL     1      29.420  77.145  -6.822  1.00  0.00     0.288 A 
HETATM   19  C17 UNL     1      28.184  76.100  -5.102  1.00  0.00     0.125 A 
HETATM   20  N2  UNL     1      29.762  75.930  -7.338  1.00  0.00    -0.154 N 
HETATM   21  O1  UNL     1      29.881  78.147  -7.448  1.00  0.00    -0.265 OA
HETATM   22  C1  UNL     1      29.308  74.818  -6.727  1.00  0.00     0.679 A 
ATOM     23  H2  UNL     1      30.350  75.865  -8.169  1.00  0.00     0.187 HD
HETATM   24  N14 UNL     1      28.539  74.937  -5.637  1.00  0.00    -0.186 N 
ATOM     25  H14 UNL     1      28.205  74.083  -5.190  1.00  0.00     0.184 HD
BRANCH  22  26
HETATM   26  N1  UNL     1      29.651  73.683  -7.234  1.00  0.00    -0.234 N 
ATOM     27  H12 UNL     1      30.215  73.592  -8.079  1.00  0.00     0.174 HD
ATOM     28  H11 UNL     1      29.330  72.841  -6.756  1.00  0.00     0.174 HD
ENDBRANCH  22  26
ENDBRANCH   9  11
ENDBRANCH   8   9
ENDBRANCH   1   8
BRANCH   7  29
HETATM   29  N7  UNL     1      25.174  73.857  -0.029  1.00  0.00    -0.370 N 
ATOM     30  H7  UNL     1      24.774  74.457  -0.749  1.00  0.00     0.161 HD
BRANCH  29  31
HETATM   31  C12 UNL     1      24.226  73.236   0.815  1.00  0.00     0.181 C 
BRANCH  31  32
HETATM   32  C13 UNL     1      23.736  74.103   1.930  1.00  0.00     0.058 A 
HETATM   33  C14 UNL     1      22.561  74.013   2.626  1.00  0.00     0.144 A 
HETATM   34  N8  UNL     1      22.569  75.006   3.524  1.00  0.00    -0.228 N 
HETATM   35  N12 UNL     1      23.720  75.683   3.375  1.00  0.00    -0.014 NA
HETATM   36  N13 UNL     1      24.437  75.138   2.405  1.00  0.00    -0.285 N 
ATOM     37  H13 UNL     1      25.352  75.450   2.082  1.00  0.00     0.184 HD
BRANCH  34  38
HETATM   38  C15 UNL     1      21.586  75.347   4.491  1.00  0.00     0.193 A 
HETATM   39  N9  UNL     1      21.679  75.358   5.828  1.00  0.00    -0.221 N 
HETATM   40  O2  UNL     1      20.551  75.732   6.341  1.00  0.00    -0.153 OA
ATOM     41  H9  UNL     1      22.512  75.108   6.362  1.00  0.00     0.198 HD
HETATM   42  N10 UNL     1      19.667  75.985   5.407  1.00  0.00    -0.222 N 
HETATM   43  C16 UNL     1      20.276  75.756   4.234  1.00  0.00     0.169 A 
ATOM     44  H10 UNL     1      18.706  76.295   5.545  1.00  0.00     0.198 HD
HETATM   45  N11 UNL     1      19.780  75.878   3.051  1.00  0.00    -0.381 N 
ATOM     46 2H11 UNL     1      20.242  75.705   2.159  1.00  0.00     0.157 HD
ATOM     47 1H11 UNL     1      18.822  76.177   2.863  1.00  0.00     0.157 HD
ENDBRANCH  34  38
ENDBRANCH  31  32
ENDBRANCH  29  31
ENDBRANCH   7  29
TORSDOF 8
ENDMDL
MODEL 2
REMARK VINA RESULT: -10.443310264      5.385      8.609
REMARK  8 active torsions:
REMARK  status: ('A' for Active; 'I' for Inactive)
REMARK    1  A    between atoms: N1_1  and  C1_4 
REMARK    2  A    between atoms: C5_15  and  N5_16 
REMARK    3  A    between atoms: N5_16  and  C6_18 
REMARK    4  A    between atoms: C6_18  and  C7_19 
REMARK    5  A    between atoms: C11_25  and  N7_26 
REMARK    6  A    between atoms: N7_26  and  C12_28 
REMARK    7  A    between atoms: C12_28  and  C13_29 
REMARK    8  A    between atoms: N8_31  and  C15_32 
ROOT
HETATM    1  C7  UNL     1      28.194  73.799  -1.459  1.00  0.00     0.003 A 
HETATM    2  C8  UNL     1      28.980  73.188  -0.522  1.00  0.00     0.014 A 
HETATM    3  C9  UNL     1      29.260  73.872   0.644  1.00  0.00     0.018 A 
HETATM    4  C10 UNL     1      28.753  75.135   0.840  1.00  0.00     0.089 A 
HETATM    5  N6  UNL     1      27.979  75.755  -0.071  1.00  0.00    -0.352 N 
ATOM      6  H6  UNL     1      27.614  76.693   0.095  1.00  0.00     0.166 HD
HETATM    7  C11 UNL     1      27.703  75.086  -1.213  1.00  0.00     0.109 A 
ENDROOT
BRANCH   1   8
HETATM    8  C6  UNL     1      27.838  73.155  -2.726  1.00  0.00     0.163 C 
BRANCH   8   9
HETATM    9  N5  UNL     1      28.901  73.031  -3.654  1.00  0.00    -0.370 N 
ATOM     10  H5  UNL     1      29.457  73.877  -3.785  1.00  0.00     0.161 HD
BRANCH   9  11
HETATM   11  C5  UNL     1      29.269  72.042  -4.345  1.00  0.00     0.132 A 
HETATM   12  N4  UNL     1      29.316  70.768  -3.868  1.00  0.00    -0.337 N 
HETATM   13  C4  UNL     1      29.705  69.737  -4.612  1.00  0.00     0.182 A 
ATOM     14  H4  UNL     1      29.043  70.598  -2.901  1.00  0.00     0.168 HD
HETATM   15  N3  UNL     1      30.069  69.921  -5.882  1.00  0.00    -0.346 N 
HETATM   16  C3  UNL     1      30.040  71.166  -6.404  1.00  0.00     0.133 A 
ATOM     17  H3  UNL     1      30.367  69.130  -6.452  1.00  0.00     0.167 HD
HETATM   18  C2  UNL     1      30.409  71.364  -7.702  1.00  0.00     0.288 A 
HETATM   19  C17 UNL     1      29.642  72.249  -5.651  1.00  0.00     0.125 A 
HETATM   20  N2  UNL     1      30.389  72.606  -8.265  1.00  0.00    -0.154 N 
HETATM   21  O1  UNL     1      30.788  70.430  -8.470  1.00  0.00    -0.265 OA
HETATM   22  C1  UNL     1      29.997  73.652  -7.510  1.00  0.00     0.679 A 
ATOM     23  H2  UNL     1      30.666  72.741  -9.238  1.00  0.00     0.187 HD
HETATM   24  N14 UNL     1      29.639  73.442  -6.236  1.00  0.00    -0.186 N 
ATOM     25  H14 UNL     1      29.346  74.246  -5.682  1.00  0.00     0.184 HD
BRANCH  22  26
HETATM   26  N1  UNL     1      29.984  74.814  -8.069  1.00  0.00    -0.234 N 
ATOM     27  H12 UNL     1      29.139  75.253  -8.433  1.00  0.00     0.174 HD
ATOM     28  H11 UNL     1      30.875  75.305  -8.147  1.00  0.00     0.174 HD
ENDBRANCH  22  26
ENDBRANCH   9  11
ENDBRANCH   8   9
ENDBRANCH   1   8
BRANCH   7  29
HETATM   29  N7  UNL     1      26.960  75.618  -2.107  1.00  0.00    -0.370 N 
ATOM     30  H7  UNL     1      26.271  74.988  -2.517  1.00  0.00     0.161 HD
BRANCH  29  31
HETATM   31  C12 UNL     1      26.935  76.934  -2.620  1.00  0.00     0.181 C 
BRANCH  31  32
HETATM   32  C13 UNL     1      27.639  77.096  -3.928  1.00  0.00     0.058 A 
HETATM   33  C14 UNL     1      27.820  78.238  -4.663  1.00  0.00     0.144 A 
HETATM   34  N8  UNL     1      28.507  77.886  -5.757  1.00  0.00    -0.228 N 
HETATM   35  N12 UNL     1      28.735  76.563  -5.689  1.00  0.00    -0.014 NA
HETATM   36  N13 UNL     1      28.209  76.075  -4.576  1.00  0.00    -0.285 N 
ATOM     37  H13 UNL     1      28.235  75.102  -4.271  1.00  0.00     0.184 HD
BRANCH  34  38
HETATM   38  C15 UNL     1      28.951  78.696  -6.834  1.00  0.00     0.193 A 
HETATM   39  N9  UNL     1      28.701  78.577  -8.146  1.00  0.00    -0.221 N 
HETATM   40  O2  UNL     1      29.298  79.526  -8.793  1.00  0.00    -0.153 OA
ATOM     41  H9  UNL     1      28.127  77.848  -8.571  1.00  0.00     0.198 HD
HETATM   42  N10 UNL     1      29.961  80.309  -7.977  1.00  0.00    -0.222 N 
HETATM   43  C16 UNL     1      29.769  79.824  -6.742  1.00  0.00     0.169 A 
ATOM     44  H10 UNL     1      30.514  81.127  -8.232  1.00  0.00     0.198 HD
HETATM   45  N11 UNL     1      30.238  80.283  -5.633  1.00  0.00    -0.381 N 
ATOM     46 2H11 UNL     1      30.092  79.915  -4.694  1.00  0.00     0.157 HD
ATOM     47 1H11 UNL     1      30.836  81.107  -5.565  1.00  0.00     0.157 HD
ENDBRANCH  34  38
ENDBRANCH  31  32
ENDBRANCH  29  31
ENDBRANCH   7  29
TORSDOF 8
ENDMDL
MODEL 3
REMARK VINA RESULT: -10.434679129      5.182      8.337
REMARK  8 active torsions:
REMARK  status: ('A' for Active; 'I' for Inactive)
REMARK    1  A    between atoms: N1_1  and  C1_4 
REMARK    2  A    between atoms: C5_15  and  N5_16 
REMARK    3  A    between atoms: N5_16  and  C6_18 
REMARK    4  A    between atoms: C6_18  and  C7_19 
REMARK    5  A    between atoms: C11_25  and  N7_26 
REMARK    6  A    between atoms: N7_26  and  C12_28 
REMARK    7  A    between atoms: C12_28  and  C13_29 
REMARK    8  A    between atoms: N8_31  and  C15_32 
ROOT
HETATM    1  C7  UNL     1      28.265  73.694  -1.438  1.00  0.00     0.003 A 
HETATM    2  C8  UNL     1      29.151  73.227  -0.509  1.00  0.00     0.014 A 
HETATM    3  C9  UNL     1      29.296  73.931   0.669  1.00  0.00     0.018 A 
HETATM    4  C10 UNL     1      28.559  75.071   0.886  1.00  0.00     0.089 A 
HETATM    5  N6  UNL     1      27.681  75.548  -0.017  1.00  0.00    -0.352 N 
ATOM      6  H6  UNL     1      27.145  76.397   0.164  1.00  0.00     0.166 HD
HETATM    7  C11 UNL     1      27.538  74.860  -1.172  1.00  0.00     0.109 A 
ENDROOT
BRANCH   1   8
HETATM    8  C6  UNL     1      28.037  73.017  -2.718  1.00  0.00     0.163 C 
BRANCH   8   9
HETATM    9  N5  UNL     1      29.191  72.856  -3.523  1.00  0.00    -0.370 N 
ATOM     10  H5  UNL     1      29.905  73.574  -3.398  1.00  0.00     0.161 HD
BRANCH   9  11
HETATM   11  C5  UNL     1      29.477  71.965  -4.369  1.00  0.00     0.132 A 
HETATM   12  N4  UNL     1      29.546  70.639  -4.071  1.00  0.00    -0.337 N 
HETATM   13  C4  UNL     1      29.847  69.714  -4.978  1.00  0.00     0.182 A 
ATOM     14  H4  UNL     1      29.360  70.343  -3.114  1.00  0.00     0.168 HD
HETATM   15  N3  UNL     1      30.095  70.063  -6.241  1.00  0.00    -0.346 N 
HETATM   16  C3  UNL     1      30.039  71.367  -6.590  1.00  0.00     0.133 A 
ATOM     17  H3  UNL     1      30.325  69.353  -6.936  1.00  0.00     0.167 HD
HETATM   18  C2  UNL     1      30.289  71.734  -7.879  1.00  0.00     0.288 A 
HETATM   19  C17 UNL     1      29.731  72.342  -5.666  1.00  0.00     0.125 A 
HETATM   20  N2  UNL     1      30.240  73.040  -8.269  1.00  0.00    -0.154 N 
HETATM   21  O1  UNL     1      30.580  70.908  -8.796  1.00  0.00    -0.265 OA
HETATM   22  C1  UNL     1      29.937  73.978  -7.349  1.00  0.00     0.679 A 
ATOM     23  H2  UNL     1      30.427  73.302  -9.237  1.00  0.00     0.187 HD
HETATM   24  N14 UNL     1      29.694  73.602  -6.086  1.00  0.00    -0.186 N 
ATOM     25  H14 UNL     1      29.468  74.327  -5.405  1.00  0.00     0.184 HD
BRANCH  22  26
HETATM   26  N1  UNL     1      29.893  75.204  -7.746  1.00  0.00    -0.234 N 
ATOM     27  H12 UNL     1      30.276  75.983  -7.210  1.00  0.00     0.174 HD
ATOM     28  H11 UNL     1      29.444  75.389  -8.643  1.00  0.00     0.174 HD
ENDBRANCH  22  26
ENDBRANCH   9  11
ENDBRANCH   8   9
ENDBRANCH   1   8
BRANCH   7  29
HETATM   29  N7  UNL     1      26.708  75.257  -2.059  1.00  0.00    -0.370 N 
ATOM     30  H7  UNL     1      26.131  74.519  -2.462  1.00  0.00     0.161 HD
BRANCH  29  31
HETATM   31  C12 UNL     1      26.456  76.549  -2.572  1.00  0.00     0.181 C 
BRANCH  31  32
HETATM   32  C13 UNL     1      27.393  76.971  -3.657  1.00  0.00     0.058 A 
HETATM   33  C14 UNL     1      27.744  78.240  -4.035  1.00  0.00     0.144 A 
HETATM   34  N8  UNL     1      28.607  78.114  -5.051  1.00  0.00    -0.228 N 
HETATM   35  N12 UNL     1      28.775  76.801  -5.284  1.00  0.00    -0.014 NA
HETATM   36  N13 UNL     1      28.039  76.098  -4.438  1.00  0.00    -0.285 N 
ATOM     37  H13 UNL     1      27.975  75.082  -4.391  1.00  0.00     0.184 HD
BRANCH  34  38
HETATM   38  C15 UNL     1      29.269  79.126  -5.794  1.00  0.00     0.193 A 
HETATM   39  N9  UNL     1      30.003  80.159  -5.356  1.00  0.00    -0.221 N 
HETATM   40  O2  UNL     1      30.430  80.849  -6.364  1.00  0.00    -0.153 OA
ATOM     41  H9  UNL     1      30.195  80.369  -4.377  1.00  0.00     0.198 HD
HETATM   42  N10 UNL     1      30.020  80.335  -7.498  1.00  0.00    -0.222 N 
HETATM   43  C16 UNL     1      29.290  79.254  -7.185  1.00  0.00     0.169 A 
ATOM     44  H10 UNL     1      30.218  80.688  -8.434  1.00  0.00     0.198 HD
HETATM   45  N11 UNL     1      28.693  78.446  -7.991  1.00  0.00    -0.381 N 
ATOM     46 2H11 UNL     1      28.139  77.624  -7.753  1.00  0.00     0.157 HD
ATOM     47 1H11 UNL     1      28.709  78.540  -9.007  1.00  0.00     0.157 HD
ENDBRANCH  34  38
ENDBRANCH  31  32
ENDBRANCH  29  31
ENDBRANCH   7  29
TORSDOF 8
ENDMDL
MODEL 4
REMARK VINA RESULT: -10.363331732      0.893      1.016
REMARK  8 active torsions:
REMARK  status: ('A' for Active; 'I' for Inactive)
REMARK    1  A    between atoms: N1_1  and  C1_4 
REMARK    2  A    between atoms: C5_15  and  N5_16 
REMARK    3  A    between atoms: N5_16  and  C6_18 
REMARK    4  A    between atoms: C6_18  and  C7_19 
REMARK    5  A    between atoms: C11_25  and  N7_26 
REMARK    6  A    between atoms: N7_26  and  C12_28 
REMARK    7  A    between atoms: C12_28  and  C13_29 
REMARK    8  A    between atoms: N8_31  and  C15_32 
ROOT
HETATM    1  C7  UNL     1      27.112  74.753  -0.774  1.00  0.00     0.003 A 
HETATM    2  C8  UNL     1      28.462  74.799  -0.561  1.00  0.00     0.014 A 
HETATM    3  C9  UNL     1      28.985  74.063   0.483  1.00  0.00     0.018 A 
HETATM    4  C10 UNL     1      28.154  73.309   1.278  1.00  0.00     0.089 A 
HETATM    5  N6  UNL     1      26.823  73.251   1.086  1.00  0.00    -0.352 N 
ATOM      6  H6  UNL     1      26.225  72.686   1.689  1.00  0.00     0.166 HD
HETATM    7  C11 UNL     1      26.309  73.971   0.064  1.00  0.00     0.109 A 
ENDROOT
BRANCH   1   8
HETATM    8  C6  UNL     1      26.462  75.495  -1.858  1.00  0.00     0.163 C 
BRANCH   8   9
HETATM    9  N5  UNL     1      27.182  75.528  -3.077  1.00  0.00    -0.370 N 
ATOM     10  H5  UNL     1      27.467  74.615  -3.431  1.00  0.00     0.161 HD
BRANCH   9  11
HETATM   11  C5  UNL     1      27.527  76.507  -3.794  1.00  0.00     0.132 A 
HETATM   12  N4  UNL     1      27.228  77.800  -3.495  1.00  0.00    -0.337 N 
HETATM   13  C4  UNL     1      27.602  78.820  -4.262  1.00  0.00     0.182 A 
ATOM     14  H4  UNL     1      26.695  77.995  -2.647  1.00  0.00     0.168 HD
HETATM   15  N3  UNL     1      28.301  78.604  -5.377  1.00  0.00    -0.346 N 
HETATM   16  C3  UNL     1      28.624  77.338  -5.719  1.00  0.00     0.133 A 
ATOM     17  H3  UNL     1      28.588  79.386  -5.965  1.00  0.00     0.167 HD
HETATM   18  C2  UNL     1      29.341  77.106  -6.857  1.00  0.00     0.288 A 
HETATM   19  C17 UNL     1      28.246  76.267  -4.940  1.00  0.00     0.125 A 
HETATM   20  N2  UNL     1      29.688  75.843  -7.234  1.00  0.00    -0.154 N 
HETATM   21  O1  UNL     1      29.732  78.028  -7.635  1.00  0.00    -0.265 OA
HETATM   22  C1  UNL     1      29.307  74.809  -6.457  1.00  0.00     0.679 A 
ATOM     23  H2  UNL     1      30.225  75.683  -8.086  1.00  0.00     0.187 HD
HETATM   24  N14 UNL     1      28.603  75.052  -5.343  1.00  0.00    -0.186 N 
ATOM     25  H14 UNL     1      28.323  74.256  -4.770  1.00  0.00     0.184 HD
BRANCH  22  26
HETATM   26  N1  UNL     1      29.652  73.626  -6.835  1.00  0.00    -0.234 N 
ATOM     27  H12 UNL     1      29.570  72.800  -6.242  1.00  0.00     0.174 HD
ATOM     28  H11 UNL     1      30.029  73.527  -7.778  1.00  0.00     0.174 HD
ENDBRANCH  22  26
ENDBRANCH   9  11
ENDBRANCH   8   9
ENDBRANCH   1   8
BRANCH   7  29
HETATM   29  N7  UNL     1      25.053  73.942  -0.177  1.00  0.00    -0.370 N 
ATOM     30  H7  UNL     1      24.709  74.725  -0.732  1.00  0.00     0.161 HD
BRANCH  29  31
HETATM   31  C12 UNL     1      24.065  73.005   0.200  1.00  0.00     0.181 C 
BRANCH  31  32
HETATM   32  C13 UNL     1      23.006  73.559   1.097  1.00  0.00     0.058 A 
HETATM   33  C14 UNL     1      23.125  73.989   2.392  1.00  0.00     0.144 A 
HETATM   34  N8  UNL     1      21.908  74.395   2.775  1.00  0.00    -0.228 N 
HETATM   35  N12 UNL     1      21.071  74.214   1.739  1.00  0.00    -0.014 NA
HETATM   36  N13 UNL     1      21.733  73.705   0.713  1.00  0.00    -0.285 N 
ATOM     37  H13 UNL     1      21.346  73.469  -0.200  1.00  0.00     0.184 HD
BRANCH  34  38
HETATM   38  C15 UNL     1      21.494  74.931   4.023  1.00  0.00     0.193 A 
HETATM   39  N9  UNL     1      22.047  74.782   5.236  1.00  0.00    -0.221 N 
HETATM   40  O2  UNL     1      21.358  75.439   6.113  1.00  0.00    -0.153 OA
ATOM     41  H9  UNL     1      22.883  74.234   5.437  1.00  0.00     0.198 HD
HETATM   42  N10 UNL     1      20.338  76.046   5.556  1.00  0.00    -0.222 N 
HETATM   43  C16 UNL     1      20.388  75.753   4.248  1.00  0.00     0.169 A 
ATOM     44  H10 UNL     1      19.643  76.626   6.026  1.00  0.00     0.198 HD
HETATM   45  N11 UNL     1      19.578  76.138   3.323  1.00  0.00    -0.381 N 
ATOM     46 2H11 UNL     1      19.616  75.916   2.328  1.00  0.00     0.157 HD
ATOM     47 1H11 UNL     1      18.770  76.738   3.487  1.00  0.00     0.157 HD
ENDBRANCH  34  38
ENDBRANCH  31  32
ENDBRANCH  29  31
ENDBRANCH   7  29
TORSDOF 8
ENDMDL
MODEL 5
REMARK VINA RESULT: -10.324567569      1.916     10.081
REMARK  8 active torsions:
REMARK  status: ('A' for Active; 'I' for Inactive)
REMARK    1  A    between atoms: N1_1  and  C1_4 
REMARK    2  A    between atoms: C5_15  and  N5_16 
REMARK    3  A    between atoms: N5_16  and  C6_18 
REMARK    4  A    between atoms: C6_18  and  C7_19 
REMARK    5  A    between atoms: C11_25  and  N7_26 
REMARK    6  A    between atoms: N7_26  and  C12_28 
REMARK    7  A    between atoms: C12_28  and  C13_29 
REMARK    8  A    between atoms: N8_31  and  C15_32 
ROOT
HETATM    1  C7  UNL     1      26.402  73.837  -0.077  1.00  0.00     0.003 A 
HETATM    2  C8  UNL     1      27.181  73.237   0.872  1.00  0.00     0.014 A 
HETATM    3  C9  UNL     1      28.459  73.716   1.070  1.00  0.00     0.018 A 
HETATM    4  C10 UNL     1      28.922  74.773   0.321  1.00  0.00     0.089 A 
HETATM    5  N6  UNL     1      28.172  75.378  -0.620  1.00  0.00    -0.352 N 
ATOM      6  H6  UNL     1      28.536  76.160  -1.165  1.00  0.00     0.166 HD
HETATM    7  C11 UNL     1      26.919  74.909  -0.815  1.00  0.00     0.109 A 
ENDROOT
BRANCH   1   8
HETATM    8  C6  UNL     1      25.031  73.403  -0.360  1.00  0.00     0.163 C 
BRANCH   8   9
HETATM    9  N5  UNL     1      24.245  73.124   0.785  1.00  0.00    -0.370 N 
ATOM     10  H5  UNL     1      24.074  72.133   0.956  1.00  0.00     0.161 HD
BRANCH   9  11
HETATM   11  C5  UNL     1      23.722  73.906   1.625  1.00  0.00     0.132 A 
HETATM   12  N4  UNL     1      24.443  74.706   2.458  1.00  0.00    -0.337 N 
HETATM   13  C4  UNL     1      23.874  75.525   3.337  1.00  0.00     0.182 A 
ATOM     14  H4  UNL     1      25.461  74.674   2.405  1.00  0.00     0.168 HD
HETATM   15  N3  UNL     1      22.546  75.594   3.433  1.00  0.00    -0.346 N 
HETATM   16  C3  UNL     1      21.784  74.821   2.629  1.00  0.00     0.133 A 
ATOM     17  H3  UNL     1      22.110  76.224   4.107  1.00  0.00     0.167 HD
HETATM   18  C2  UNL     1      20.424  74.886   2.718  1.00  0.00     0.288 A 
HETATM   19  C17 UNL     1      22.352  73.964   1.712  1.00  0.00     0.125 A 
HETATM   20  N2  UNL     1      19.622  74.123   1.922  1.00  0.00    -0.154 N 
HETATM   21  O1  UNL     1      19.813  75.644   3.531  1.00  0.00    -0.265 OA
HETATM   22  C1  UNL     1      20.200  73.290   1.032  1.00  0.00     0.679 A 
ATOM     23  H2  UNL     1      18.607  74.181   1.997  1.00  0.00     0.187 HD
HETATM   24  N14 UNL     1      21.536  73.237   0.957  1.00  0.00    -0.186 N 
ATOM     25  H14 UNL     1      21.953  72.600   0.278  1.00  0.00     0.184 HD
BRANCH  22  26
HETATM   26  N1  UNL     1      19.417  72.584   0.289  1.00  0.00    -0.234 N 
ATOM     27  H12 UNL     1      19.742  72.038  -0.509  1.00  0.00     0.174 HD
ATOM     28  H11 UNL     1      18.424  72.584   0.523  1.00  0.00     0.174 HD
ENDBRANCH  22  26
ENDBRANCH   9  11
ENDBRANCH   8   9
ENDBRANCH   1   8
BRANCH   7  29
HETATM   29  N7  UNL     1      26.156  75.454  -1.683  1.00  0.00    -0.370 N 
ATOM     30  H7  UNL     1      25.403  76.021  -1.293  1.00  0.00     0.161 HD
BRANCH  29  31
HETATM   31  C12 UNL     1      26.183  75.402  -3.095  1.00  0.00     0.181 C 
BRANCH  31  32
HETATM   32  C13 UNL     1      26.902  76.544  -3.737  1.00  0.00     0.058 A 
HETATM   33  C14 UNL     1      27.423  76.621  -5.001  1.00  0.00     0.144 A 
HETATM   34  N8  UNL     1      27.970  77.837  -5.119  1.00  0.00    -0.228 N 
HETATM   35  N12 UNL     1      27.787  78.482  -3.954  1.00  0.00    -0.014 NA
HETATM   36  N13 UNL     1      27.136  77.701  -3.107  1.00  0.00    -0.285 N 
ATOM     37  H13 UNL     1      26.864  77.936  -2.153  1.00  0.00     0.184 HD
BRANCH  34  38
HETATM   38  C15 UNL     1      28.636  78.416  -6.231  1.00  0.00     0.193 A 
HETATM   39  N9  UNL     1      28.544  78.104  -7.532  1.00  0.00    -0.221 N 
HETATM   40  O2  UNL     1      29.320  78.876  -8.222  1.00  0.00    -0.153 OA
ATOM     41  H9  UNL     1      27.953  77.368  -7.919  1.00  0.00     0.198 HD
HETATM   42  N10 UNL     1      29.956  79.722  -7.448  1.00  0.00    -0.222 N 
HETATM   43  C16 UNL     1      29.555  79.467  -6.193  1.00  0.00     0.169 A 
ATOM     44  H10 UNL     1      30.624  80.435  -7.742  1.00  0.00     0.198 HD
HETATM   45  N11 UNL     1      29.925  80.060  -5.112  1.00  0.00    -0.381 N 
ATOM     46 2H11 UNL     1      29.620  79.867  -4.158  1.00  0.00     0.157 HD
ATOM     47 1H11 UNL     1      30.596  80.828  -5.084  1.00  0.00     0.157 HD
ENDBRANCH  34  38
ENDBRANCH  31  32
ENDBRANCH  29  31
ENDBRANCH   7  29
TORSDOF 8
ENDMDL
