MODEL 1
REMARK VINA RESULT: -9.542170494      0.000      0.000
REMARK  16 active torsions:
REMARK  status: ('A' for Active; 'I' for Inactive)
REMARK    1  A    between atoms: C3_5  and  N2_6 
REMARK    2  A    between atoms: N2_6  and  N3_8 
REMARK    3  A    between atoms: N3_8  and  C4_10 
REMARK    4  A    between atoms: C7_13  and  O1_14 
REMARK    5  A    between atoms: C12_24  and  C13_25 
REMARK    6  A    between atoms: C13_25  and  N5_26 
REMARK    7  A    between atoms: C14_27  and  N6_28 
REMARK    8  A    between atoms: N7_31  and  C15_32 
REMARK    9  A    between atoms: C15_32  and  C16_33 
REMARK   10  A    between atoms: C15_32  and  C18_37 
REMARK   11  A    between atoms: C16_33  and  C17_34 
REMARK   12  A    between atoms: C18_37  and  O5_38 
REMARK   13  A    between atoms: C18_37  and  C19_40 
REMARK   14  A    between atoms: C19_40  and  O6_41 
REMARK   15  A    between atoms: C19_40  and  C20_43 
REMARK   16  A    between atoms: C20_43  and  O7_44 
ROOT
HETATM    1  N5  UNL     1      28.990  72.953  -2.940  1.00  0.00    -0.169 N 
HETATM    2  C14 UNL     1      28.640  74.141  -3.462  1.00  0.00     0.683 A 
HETATM    3  N7  UNL     1      28.476  74.104  -4.788  1.00  0.00    -0.158 N 
HETATM    4  C21 UNL     1      28.724  72.842  -5.132  1.00  0.00     0.163 A 
HETATM    5  C22 UNL     1      29.050  72.083  -3.975  1.00  0.00     0.165 A 
HETATM    6  C23 UNL     1      29.319  70.739  -4.051  1.00  0.00     0.280 A 
HETATM    7  O8  UNL     1      29.594  70.056  -3.049  1.00  0.00    -0.265 OA
HETATM    8  N8  UNL     1      29.270  70.150  -5.280  1.00  0.00    -0.273 N 
ATOM      9  H8  UNL     1      29.466  69.154  -5.373  1.00  0.00     0.173 HD
HETATM   10  C24 UNL     1      28.969  70.867  -6.354  1.00  0.00     0.330 A 
HETATM   11  O9  UNL     1      28.939  70.270  -7.487  1.00  0.00    -0.246 OA
HETATM   12  N9  UNL     1      28.694  72.199  -6.313  1.00  0.00    -0.287 N 
HETATM   13  C25 UNL     1      28.383  72.912  -7.518  1.00  0.00     0.163 C 
ENDROOT
BRANCH   1  14
HETATM   14  C13 UNL     1      29.307  72.637  -1.585  1.00  0.00     0.196 C 
BRANCH  14  15
HETATM   15  C12 UNL     1      28.403  72.977  -0.478  1.00  0.00     0.027 A 
HETATM   16  C2  UNL     1      28.529  73.326   0.836  1.00  0.00     0.022 A 
HETATM   17  C1  UNL     1      29.892  73.410   1.521  1.00  0.00     0.069 C 
HETATM   18  N1  UNL     1      27.438  73.614   1.520  1.00  0.00    -0.338 N 
HETATM   19  C3  UNL     1      26.262  73.561   0.927  1.00  0.00     0.164 A 
ATOM     20  H1  UNL     1      27.504  73.876   2.503  1.00  0.00     0.168 HD
HETATM   21  S1  UNL     1      26.662  73.094  -0.642  1.00  0.00    -0.053 SA
BRANCH  19  22
HETATM   22  N2  UNL     1      25.073  73.811   1.455  1.00  0.00    -0.279 N 
ATOM     23  H2  UNL     1      24.938  74.652   2.015  1.00  0.00     0.189 HD
BRANCH  22  24
HETATM   24  N3  UNL     1      24.005  72.940   1.254  1.00  0.00    -0.293 N 
ATOM     25  H3  UNL     1      24.147  71.942   1.407  1.00  0.00     0.187 HD
BRANCH  24  26
HETATM   26  C4  UNL     1      22.729  73.396   0.844  1.00  0.00     0.129 A 
HETATM   27  C5  UNL     1      22.215  73.462  -0.383  1.00  0.00     0.027 A 
HETATM   28  C6  UNL     1      22.722  73.128  -1.608  1.00  0.00     0.052 A 
HETATM   29  C10 UNL     1      20.928  73.973  -0.331  1.00  0.00     0.048 A 
HETATM   30  C7  UNL     1      21.951  73.305  -2.739  1.00  0.00     0.066 A 
HETATM   31  C8  UNL     1      20.668  73.811  -2.715  1.00  0.00     0.039 A 
HETATM   32  C9  UNL     1      20.162  74.146  -1.478  1.00  0.00     0.033 A 
HETATM   33  N4  UNL     1      20.582  74.242   0.884  1.00  0.00    -0.321 N 
HETATM   34  C11 UNL     1      21.671  73.907   1.725  1.00  0.00     0.275 A 
ATOM     35  H4  UNL     1      19.686  74.626   1.184  1.00  0.00     0.169 HD
HETATM   36  O2  UNL     1      21.673  74.043   2.965  1.00  0.00    -0.266 OA
BRANCH  30  37
HETATM   37  O1  UNL     1      22.480  72.960  -3.991  1.00  0.00    -0.361 OA
ATOM     38  H1  UNL     1      21.943  73.064  -4.767  1.00  0.00     0.217 HD
ENDBRANCH  30  37
ENDBRANCH  24  26
ENDBRANCH  22  24
ENDBRANCH  19  22
ENDBRANCH  14  15
ENDBRANCH   1  14
BRANCH   2  39
HETATM   39  N6  UNL     1      28.390  75.150  -2.726  1.00  0.00    -0.234 N 
ATOM     40  H62 UNL     1      28.535  75.185  -1.716  1.00  0.00     0.174 HD
ATOM     41  H61 UNL     1      28.102  76.046  -3.120  1.00  0.00     0.174 HD
ENDBRANCH   2  39
BRANCH   3  42
HETATM   42  C15 UNL     1      28.125  75.200  -5.584  1.00  0.00     0.151 C 
BRANCH  42  43
HETATM   43  C16 UNL     1      28.876  76.496  -5.178  1.00  0.00     0.142 C 
BRANCH  43  44
HETATM   44  C17 UNL     1      29.557  77.089  -6.333  1.00  0.00     0.174 C 
HETATM   45  O3  UNL     1      30.322  76.400  -7.012  1.00  0.00    -0.648 OA
HETATM   46  O4  UNL     1      29.329  78.406  -6.639  1.00  0.00    -0.648 OA
ENDBRANCH  43  44
ENDBRANCH  42  43
BRANCH  42  47
HETATM   47  C18 UNL     1      26.646  75.611  -5.372  1.00  0.00     0.173 C 
BRANCH  47  48
HETATM   48  O5  UNL     1      26.533  76.520  -4.326  1.00  0.00    -0.391 OA
ATOM     49  H5  UNL     1      25.740  76.361  -3.826  1.00  0.00     0.210 HD
ENDBRANCH  47  48
BRANCH  47  50
HETATM   50  C19 UNL     1      25.776  74.425  -5.053  1.00  0.00     0.172 C 
BRANCH  50  51
HETATM   51  O6  UNL     1      25.278  74.415  -3.771  1.00  0.00    -0.391 OA
ATOM     52  H6  UNL     1      24.619  73.750  -3.612  1.00  0.00     0.210 HD
ENDBRANCH  50  51
BRANCH  50  53
HETATM   53  C20 UNL     1      24.564  74.572  -5.996  1.00  0.00     0.198 C 
BRANCH  53  54
HETATM   54  O7  UNL     1      23.601  75.408  -5.432  1.00  0.00    -0.398 OA
ATOM     55  H7  UNL     1      22.741  75.220  -5.792  1.00  0.00     0.209 HD
ENDBRANCH  53  54
ENDBRANCH  50  53
ENDBRANCH  47  50
ENDBRANCH  42  47
ENDBRANCH   3  42
TORSDOF 16
ENDMDL
MODEL 2
REMARK VINA RESULT: -9.469568758      1.724      3.164
REMARK  16 active torsions:
REMARK  status: ('A' for Active; 'I' for Inactive)
REMARK    1  A    between atoms: C3_5  and  N2_6 
REMARK    2  A    between atoms: N2_6  and  N3_8 
REMARK    3  A    between atoms: N3_8  and  C4_10 
REMARK    4  A    between atoms: C7_13  and  O1_14 
REMARK    5  A    between atoms: C12_24  and  C13_25 
REMARK    6  A    between atoms: C13_25  and  N5_26 
REMARK    7  A    between atoms: C14_27  and  N6_28 
REMARK    8  A    between atoms: N7_31  and  C15_32 
REMARK    9  A    between atoms: C15_32  and  C16_33 
REMARK   10  A    between atoms: C15_32  and  C18_37 
REMARK   11  A    between atoms: C16_33  and  C17_34 
REMARK   12  A    between atoms: C18_37  and  O5_38 
REMARK   13  A    between atoms: C18_37  and  C19_40 
REMARK   14  A    between atoms: C19_40  and  O6_41 
REMARK   15  A    between atoms: C19_40  and  C20_43 
REMARK   16  A    between atoms: C20_43  and  O7_44 
ROOT
HETATM    1  N5  UNL     1      29.377  72.064  -3.077  1.00  0.00    -0.169 N 
HETATM    2  C14 UNL     1      29.184  73.257  -3.665  1.00  0.00     0.683 A 
HETATM    3  N7  UNL     1      29.324  73.217  -4.994  1.00  0.00    -0.158 N 
HETATM    4  C21 UNL     1      29.611  71.947  -5.273  1.00  0.00     0.163 A 
HETATM    5  C22 UNL     1      29.647  71.187  -4.072  1.00  0.00     0.165 A 
HETATM    6  C23 UNL     1      29.892  69.837  -4.085  1.00  0.00     0.280 A 
HETATM    7  O8  UNL     1      29.916  69.153  -3.047  1.00  0.00    -0.265 OA
HETATM    8  N8  UNL     1      30.107  69.242  -5.293  1.00  0.00    -0.273 N 
ATOM      9  H8  UNL     1      30.294  68.240  -5.339  1.00  0.00     0.173 HD
HETATM   10  C24 UNL     1      30.076  69.959  -6.408  1.00  0.00     0.330 A 
HETATM   11  O9  UNL     1      30.287  69.357  -7.517  1.00  0.00    -0.246 OA
HETATM   12  N9  UNL     1      29.833  71.299  -6.430  1.00  0.00    -0.287 N 
HETATM   13  C25 UNL     1      29.820  72.011  -7.674  1.00  0.00     0.163 C 
ENDROOT
BRANCH   1  14
HETATM   14  C13 UNL     1      29.371  71.748  -1.686  1.00  0.00     0.196 C 
BRANCH  14  15
HETATM   15  C12 UNL     1      28.460  72.413  -0.745  1.00  0.00     0.027 A 
HETATM   16  C2  UNL     1      28.563  73.036   0.466  1.00  0.00     0.022 A 
HETATM   17  C1  UNL     1      29.896  73.144   1.206  1.00  0.00     0.069 C 
HETATM   18  N1  UNL     1      27.480  73.572   0.995  1.00  0.00    -0.338 N 
HETATM   19  C3  UNL     1      26.332  73.497   0.350  1.00  0.00     0.164 A 
ATOM     20  H1  UNL     1      27.529  74.042   1.899  1.00  0.00     0.168 HD
HETATM   21  S1  UNL     1      26.751  72.653  -1.047  1.00  0.00    -0.053 SA
BRANCH  19  22
HETATM   22  N2  UNL     1      25.154  73.971   0.729  1.00  0.00    -0.279 N 
ATOM     23  H2  UNL     1      24.982  74.975   0.696  1.00  0.00     0.189 HD
BRANCH  22  24
HETATM   24  N3  UNL     1      24.149  73.113   1.171  1.00  0.00    -0.293 N 
ATOM     25  H3  UNL     1      24.367  72.126   1.307  1.00  0.00     0.187 HD
BRANCH  24  26
HETATM   26  C4  UNL     1      22.836  73.569   1.437  1.00  0.00     0.129 A 
HETATM   27  C5  UNL     1      22.338  74.088   2.558  1.00  0.00     0.027 A 
HETATM   28  C6  UNL     1      22.901  74.346   3.777  1.00  0.00     0.052 A 
HETATM   29  C10 UNL     1      21.000  74.400   2.383  1.00  0.00     0.048 A 
HETATM   30  C7  UNL     1      22.134  74.901   4.781  1.00  0.00     0.066 A 
HETATM   31  C8  UNL     1      20.801  75.221   4.633  1.00  0.00     0.039 A 
HETATM   32  C9  UNL     1      20.238  74.959   3.402  1.00  0.00     0.033 A 
HETATM   33  N4  UNL     1      20.604  74.104   1.189  1.00  0.00    -0.321 N 
HETATM   34  C11 UNL     1      21.711  73.561   0.493  1.00  0.00     0.275 A 
ATOM     35  H4  UNL     1      19.665  74.238   0.815  1.00  0.00     0.169 HD
HETATM   36  O2  UNL     1      21.678  73.168  -0.691  1.00  0.00    -0.266 OA
BRANCH  30  37
HETATM   37  O1  UNL     1      22.720  75.161   6.028  1.00  0.00    -0.361 OA
ATOM     38  H1  UNL     1      22.946  76.055   6.258  1.00  0.00     0.217 HD
ENDBRANCH  30  37
ENDBRANCH  24  26
ENDBRANCH  22  24
ENDBRANCH  19  22
ENDBRANCH  14  15
ENDBRANCH   1  14
BRANCH   2  39
HETATM   39  N6  UNL     1      28.800  74.277  -3.005  1.00  0.00    -0.234 N 
ATOM     40  H62 UNL     1      28.008  74.870  -3.257  1.00  0.00     0.174 HD
ATOM     41  H61 UNL     1      29.216  74.525  -2.107  1.00  0.00     0.174 HD
ENDBRANCH   2  39
BRANCH   3  42
HETATM   42  C15 UNL     1      29.190  74.316  -5.849  1.00  0.00     0.151 C 
BRANCH  42  43
HETATM   43  C16 UNL     1      30.346  75.340  -5.687  1.00  0.00     0.142 C 
BRANCH  43  44
HETATM   44  C17 UNL     1      31.230  75.319  -6.856  1.00  0.00     0.174 C 
HETATM   45  O3  UNL     1      30.746  75.259  -7.989  1.00  0.00    -0.648 OA
HETATM   46  O4  UNL     1      32.587  75.368  -6.668  1.00  0.00    -0.648 OA
ENDBRANCH  43  44
ENDBRANCH  42  43
BRANCH  42  47
HETATM   47  C18 UNL     1      27.952  75.175  -5.487  1.00  0.00     0.173 C 
BRANCH  47  48
HETATM   48  O5  UNL     1      26.901  74.918  -6.360  1.00  0.00    -0.391 OA
ATOM     49  H5  UNL     1      26.091  75.285  -6.029  1.00  0.00     0.210 HD
ENDBRANCH  47  48
BRANCH  47  50
HETATM   50  C19 UNL     1      28.256  76.648  -5.547  1.00  0.00     0.172 C 
BRANCH  50  51
HETATM   51  O6  UNL     1      28.009  77.229  -6.770  1.00  0.00    -0.391 OA
ATOM     52  H6  UNL     1      27.168  77.003  -7.148  1.00  0.00     0.210 HD
ENDBRANCH  50  51
BRANCH  50  53
HETATM   53  C20 UNL     1      27.271  77.286  -4.548  1.00  0.00     0.198 C 
BRANCH  53  54
HETATM   54  O7  UNL     1      26.643  76.305  -3.781  1.00  0.00    -0.398 OA
ATOM     55  H7  UNL     1      25.958  75.875  -4.281  1.00  0.00     0.209 HD
ENDBRANCH  53  54
ENDBRANCH  50  53
ENDBRANCH  47  50
ENDBRANCH  42  47
ENDBRANCH   3  42
TORSDOF 16
ENDMDL
MODEL 3
REMARK VINA RESULT: -9.330737295      2.351      5.092
REMARK  16 active torsions:
REMARK  status: ('A' for Active; 'I' for Inactive)
REMARK    1  A    between atoms: C3_5  and  N2_6 
REMARK    2  A    between atoms: N2_6  and  N3_8 
REMARK    3  A    between atoms: N3_8  and  C4_10 
REMARK    4  A    between atoms: C7_13  and  O1_14 
REMARK    5  A    between atoms: C12_24  and  C13_25 
REMARK    6  A    between atoms: C13_25  and  N5_26 
REMARK    7  A    between atoms: C14_27  and  N6_28 
REMARK    8  A    between atoms: N7_31  and  C15_32 
REMARK    9  A    between atoms: C15_32  and  C16_33 
REMARK   10  A    between atoms: C15_32  and  C18_37 
REMARK   11  A    between atoms: C16_33  and  C17_34 
REMARK   12  A    between atoms: C18_37  and  O5_38 
REMARK   13  A    between atoms: C18_37  and  C19_40 
REMARK   14  A    between atoms: C19_40  and  O6_41 
REMARK   15  A    between atoms: C19_40  and  C20_43 
REMARK   16  A    between atoms: C20_43  and  O7_44 
ROOT
HETATM    1  N5  UNL     1      27.060  74.035  -4.646  1.00  0.00    -0.169 N 
HETATM    2  C14 UNL     1      28.275  73.498  -4.856  1.00  0.00     0.683 A 
HETATM    3  N7  UNL     1      28.290  72.606  -5.851  1.00  0.00    -0.158 N 
HETATM    4  C21 UNL     1      27.038  72.571  -6.303  1.00  0.00     0.163 A 
HETATM    5  C22 UNL     1      26.232  73.474  -5.558  1.00  0.00     0.165 A 
HETATM    6  C23 UNL     1      24.902  73.654  -5.846  1.00  0.00     0.280 A 
HETATM    7  O8  UNL     1      24.183  74.448  -5.214  1.00  0.00    -0.265 OA
HETATM    8  N8  UNL     1      24.371  72.929  -6.872  1.00  0.00    -0.273 N 
ATOM      9  H8  UNL     1      23.386  73.036  -7.112  1.00  0.00     0.173 HD
HETATM   10  C24 UNL     1      25.130  72.085  -7.559  1.00  0.00     0.330 A 
HETATM   11  O9  UNL     1      24.585  71.426  -8.511  1.00  0.00    -0.246 OA
HETATM   12  N9  UNL     1      26.452  71.887  -7.302  1.00  0.00    -0.287 N 
HETATM   13  C25 UNL     1      27.208  70.953  -8.083  1.00  0.00     0.163 C 
ENDROOT
BRANCH   1  14
HETATM   14  C13 UNL     1      26.661  74.962  -3.638  1.00  0.00     0.196 C 
BRANCH  14  15
HETATM   15  C12 UNL     1      26.372  74.535  -2.263  1.00  0.00     0.027 A 
HETATM   16  C2  UNL     1      26.871  74.790  -1.017  1.00  0.00     0.022 A 
HETATM   17  C1  UNL     1      28.065  75.719  -0.803  1.00  0.00     0.069 C 
HETATM   18  N1  UNL     1      26.289  74.227   0.024  1.00  0.00    -0.338 N 
HETATM   19  C3  UNL     1      25.248  73.439  -0.157  1.00  0.00     0.164 A 
ATOM     20  H1  UNL     1      26.643  74.400   0.965  1.00  0.00     0.168 HD
HETATM   21  S1  UNL     1      25.052  73.467  -1.830  1.00  0.00    -0.053 SA
BRANCH  19  22
HETATM   22  N2  UNL     1      24.547  72.793   0.764  1.00  0.00    -0.279 N 
ATOM     23  H2  UNL     1      24.371  71.795   0.655  1.00  0.00     0.189 HD
BRANCH  22  24
HETATM   24  N3  UNL     1      24.048  73.462   1.879  1.00  0.00    -0.293 N 
ATOM     25  H3  UNL     1      24.676  73.659   2.659  1.00  0.00     0.187 HD
BRANCH  24  26
HETATM   26  C4  UNL     1      22.698  73.876   1.966  1.00  0.00     0.129 A 
HETATM   27  C5  UNL     1      22.061  74.457   2.982  1.00  0.00     0.027 A 
HETATM   28  C6  UNL     1      22.476  74.832   4.230  1.00  0.00     0.052 A 
HETATM   29  C10 UNL     1      20.740  74.694   2.640  1.00  0.00     0.048 A 
HETATM   30  C7  UNL     1      21.584  75.427   5.097  1.00  0.00     0.066 A 
HETATM   31  C8  UNL     1      20.264  75.675   4.782  1.00  0.00     0.039 A 
HETATM   32  C9  UNL     1      19.850  75.295   3.524  1.00  0.00     0.033 A 
HETATM   33  N4  UNL     1      20.489  74.291   1.438  1.00  0.00    -0.321 N 
HETATM   34  C11 UNL     1      21.685  73.746   0.911  1.00  0.00     0.275 A 
ATOM     35  H4  UNL     1      19.592  74.353   0.957  1.00  0.00     0.169 HD
HETATM   36  O2  UNL     1      21.796  73.263  -0.234  1.00  0.00    -0.266 OA
BRANCH  30  37
HETATM   37  O1  UNL     1      22.019  75.808   6.375  1.00  0.00    -0.361 OA
ATOM     38  H1  UNL     1      21.509  76.438   6.871  1.00  0.00     0.217 HD
ENDBRANCH  30  37
ENDBRANCH  24  26
ENDBRANCH  22  24
ENDBRANCH  19  22
ENDBRANCH  14  15
ENDBRANCH   1  14
BRANCH   2  39
HETATM   39  N6  UNL     1      29.306  73.903  -4.226  1.00  0.00    -0.234 N 
ATOM     40  H62 UNL     1      29.574  74.882  -4.118  1.00  0.00     0.174 HD
ATOM     41  H61 UNL     1      29.901  73.263  -3.699  1.00  0.00     0.174 HD
ENDBRANCH   2  39
BRANCH   3  42
HETATM   42  C15 UNL     1      29.416  71.890  -6.270  1.00  0.00     0.151 C 
BRANCH  42  43
HETATM   43  C16 UNL     1      30.239  71.324  -5.081  1.00  0.00     0.142 C 
BRANCH  43  44
HETATM   44  C17 UNL     1      30.119  69.865  -5.010  1.00  0.00     0.174 C 
HETATM   45  O3  UNL     1      30.579  69.168  -5.918  1.00  0.00    -0.648 OA
HETATM   46  O4  UNL     1      29.494  69.298  -3.930  1.00  0.00    -0.648 OA
ENDBRANCH  43  44
ENDBRANCH  42  43
BRANCH  42  47
HETATM   47  C18 UNL     1      30.453  72.810  -6.963  1.00  0.00     0.173 C 
BRANCH  47  48
HETATM   48  O5  UNL     1      29.851  73.979  -7.415  1.00  0.00    -0.391 OA
ATOM     49  H5  UNL     1      30.197  74.230  -8.263  1.00  0.00     0.210 HD
ENDBRANCH  47  48
BRANCH  47  50
HETATM   50  C19 UNL     1      31.100  72.135  -8.142  1.00  0.00     0.172 C 
BRANCH  50  51
HETATM   51  O6  UNL     1      30.516  70.943  -8.505  1.00  0.00    -0.391 OA
ATOM     52  H6  UNL     1      29.634  71.027  -8.847  1.00  0.00     0.210 HD
ENDBRANCH  50  51
BRANCH  50  53
HETATM   53  C20 UNL     1      30.876  73.111  -9.315  1.00  0.00     0.198 C 
BRANCH  53  54
HETATM   54  O7  UNL     1      31.850  74.109  -9.319  1.00  0.00    -0.398 OA
ATOM     55  H7  UNL     1      32.606  73.837  -9.826  1.00  0.00     0.209 HD
ENDBRANCH  53  54
ENDBRANCH  50  53
ENDBRANCH  47  50
ENDBRANCH  42  47
ENDBRANCH   3  42
TORSDOF 16
ENDMDL
MODEL 4
REMARK VINA RESULT: -9.230912344      2.398      5.120
REMARK  16 active torsions:
REMARK  status: ('A' for Active; 'I' for Inactive)
REMARK    1  A    between atoms: C3_5  and  N2_6 
REMARK    2  A    between atoms: N2_6  and  N3_8 
REMARK    3  A    between atoms: N3_8  and  C4_10 
REMARK    4  A    between atoms: C7_13  and  O1_14 
REMARK    5  A    between atoms: C12_24  and  C13_25 
REMARK    6  A    between atoms: C13_25  and  N5_26 
REMARK    7  A    between atoms: C14_27  and  N6_28 
REMARK    8  A    between atoms: N7_31  and  C15_32 
REMARK    9  A    between atoms: C15_32  and  C16_33 
REMARK   10  A    between atoms: C15_32  and  C18_37 
REMARK   11  A    between atoms: C16_33  and  C17_34 
REMARK   12  A    between atoms: C18_37  and  O5_38 
REMARK   13  A    between atoms: C18_37  and  C19_40 
REMARK   14  A    between atoms: C19_40  and  O6_41 
REMARK   15  A    between atoms: C19_40  and  C20_43 
REMARK   16  A    between atoms: C20_43  and  O7_44 
ROOT
HETATM    1  N5  UNL     1      27.824  73.414  -4.495  1.00  0.00    -0.169 N 
HETATM    2  C14 UNL     1      28.919  72.939  -5.113  1.00  0.00     0.683 A 
HETATM    3  N7  UNL     1      28.635  72.122  -6.132  1.00  0.00    -0.158 N 
HETATM    4  C21 UNL     1      27.304  72.075  -6.176  1.00  0.00     0.163 A 
HETATM    5  C22 UNL     1      26.760  72.892  -5.148  1.00  0.00     0.165 A 
HETATM    6  C23 UNL     1      25.404  73.044  -4.994  1.00  0.00     0.280 A 
HETATM    7  O8  UNL     1      24.909  73.763  -4.109  1.00  0.00    -0.265 OA
HETATM    8  N8  UNL     1      24.589  72.376  -5.860  1.00  0.00    -0.273 N 
ATOM      9  H8  UNL     1      23.576  72.465  -5.774  1.00  0.00     0.173 HD
HETATM   10  C24 UNL     1      25.105  71.613  -6.813  1.00  0.00     0.330 A 
HETATM   11  O9  UNL     1      24.299  71.005  -7.600  1.00  0.00    -0.246 OA
HETATM   12  N9  UNL     1      26.444  71.444  -6.995  1.00  0.00    -0.287 N 
HETATM   13  C25 UNL     1      26.931  70.597  -8.044  1.00  0.00     0.163 C 
ENDROOT
BRANCH   1  14
HETATM   14  C13 UNL     1      27.748  74.251  -3.342  1.00  0.00     0.196 C 
BRANCH  14  15
HETATM   15  C12 UNL     1      27.483  73.705  -2.004  1.00  0.00     0.027 A 
HETATM   16  C2  UNL     1      28.066  72.796  -1.169  1.00  0.00     0.022 A 
HETATM   17  C1  UNL     1      29.318  72.018  -1.573  1.00  0.00     0.069 C 
HETATM   18  N1  UNL     1      27.536  72.602   0.023  1.00  0.00    -0.338 N 
HETATM   19  C3  UNL     1      26.466  73.285   0.381  1.00  0.00     0.164 A 
ATOM     20  H1  UNL     1      27.951  71.927   0.666  1.00  0.00     0.168 HD
HETATM   21  S1  UNL     1      26.168  74.238  -0.976  1.00  0.00    -0.053 SA
BRANCH  19  22
HETATM   22  N2  UNL     1      25.805  73.219   1.527  1.00  0.00    -0.279 N 
ATOM     23  H2  UNL     1      25.948  72.421   2.146  1.00  0.00     0.189 HD
BRANCH  22  24
HETATM   24  N3  UNL     1      24.917  74.226   1.897  1.00  0.00    -0.293 N 
ATOM     25  H3  UNL     1      25.286  75.141   2.154  1.00  0.00     0.187 HD
BRANCH  24  26
HETATM   26  C4  UNL     1      23.517  74.019   1.930  1.00  0.00     0.129 A 
HETATM   27  C5  UNL     1      22.657  74.249   2.921  1.00  0.00     0.027 A 
HETATM   28  C6  UNL     1      22.825  74.740   4.185  1.00  0.00     0.052 A 
HETATM   29  C10 UNL     1      21.375  73.904   2.525  1.00  0.00     0.048 A 
HETATM   30  C7  UNL     1      21.734  74.877   5.018  1.00  0.00     0.066 A 
HETATM   31  C8  UNL     1      20.448  74.541   4.650  1.00  0.00     0.039 A 
HETATM   32  C9  UNL     1      20.283  74.046   3.374  1.00  0.00     0.033 A 
HETATM   33  N4  UNL     1      21.364  73.457   1.313  1.00  0.00    -0.321 N 
HETATM   34  C11 UNL     1      22.697  73.489   0.834  1.00  0.00     0.275 A 
ATOM     35  H4  UNL     1      20.546  73.139   0.795  1.00  0.00     0.169 HD
HETATM   36  O2  UNL     1      23.045  73.124  -0.308  1.00  0.00    -0.266 OA
BRANCH  30  37
HETATM   37  O1  UNL     1      21.917  75.381   6.314  1.00  0.00    -0.361 OA
ATOM     38  H1  UNL     1      21.246  75.933   6.697  1.00  0.00     0.217 HD
ENDBRANCH  30  37
ENDBRANCH  24  26
ENDBRANCH  22  24
ENDBRANCH  19  22
ENDBRANCH  14  15
ENDBRANCH   1  14
BRANCH   2  39
HETATM   39  N6  UNL     1      30.090  73.334  -4.803  1.00  0.00    -0.234 N 
ATOM     40  H62 UNL     1      30.614  74.051  -5.306  1.00  0.00     0.174 HD
ATOM     41  H61 UNL     1      30.560  73.014  -3.956  1.00  0.00     0.174 HD
ENDBRANCH   2  39
BRANCH   3  42
HETATM   42  C15 UNL     1      29.582  71.480  -6.935  1.00  0.00     0.151 C 
BRANCH  42  43
HETATM   43  C16 UNL     1      30.789  70.942  -6.119  1.00  0.00     0.142 C 
BRANCH  43  44
HETATM   44  C17 UNL     1      30.691  69.491  -5.936  1.00  0.00     0.174 C 
HETATM   45  O3  UNL     1      30.665  68.750  -6.922  1.00  0.00    -0.648 OA
HETATM   46  O4  UNL     1      30.630  68.981  -4.666  1.00  0.00    -0.648 OA
ENDBRANCH  43  44
ENDBRANCH  42  43
BRANCH  42  47
HETATM   47  C18 UNL     1      30.273  72.470  -7.907  1.00  0.00     0.173 C 
BRANCH  47  48
HETATM   48  O5  UNL     1      29.337  73.094  -8.723  1.00  0.00    -0.391 OA
ATOM     49  H5  UNL     1      29.634  73.960  -8.976  1.00  0.00     0.210 HD
ENDBRANCH  47  48
BRANCH  47  50
HETATM   50  C19 UNL     1      31.274  71.778  -8.792  1.00  0.00     0.172 C 
BRANCH  50  51
HETATM   51  O6  UNL     1      30.789  70.660  -9.432  1.00  0.00    -0.391 OA
ATOM     52  H6  UNL     1      31.395  70.269 -10.049  1.00  0.00     0.210 HD
ENDBRANCH  50  51
BRANCH  50  53
HETATM   53  C20 UNL     1      31.595  72.811  -9.892  1.00  0.00     0.198 C 
BRANCH  53  54
HETATM   54  O7  UNL     1      31.867  74.058  -9.331  1.00  0.00    -0.398 OA
ATOM     55  H7  UNL     1      32.786  74.277  -9.429  1.00  0.00     0.209 HD
ENDBRANCH  53  54
ENDBRANCH  50  53
ENDBRANCH  47  50
ENDBRANCH  42  47
ENDBRANCH   3  42
TORSDOF 16
ENDMDL
MODEL 5
REMARK VINA RESULT: -9.178679782      5.470     11.349
REMARK  16 active torsions:
REMARK  status: ('A' for Active; 'I' for Inactive)
REMARK    1  A    between atoms: C3_5  and  N2_6 
REMARK    2  A    between atoms: N2_6  and  N3_8 
REMARK    3  A    between atoms: N3_8  and  C4_10 
REMARK    4  A    between atoms: C7_13  and  O1_14 
REMARK    5  A    between atoms: C12_24  and  C13_25 
REMARK    6  A    between atoms: C13_25  and  N5_26 
REMARK    7  A    between atoms: C14_27  and  N6_28 
REMARK    8  A    between atoms: N7_31  and  C15_32 
REMARK    9  A    between atoms: C15_32  and  C16_33 
REMARK   10  A    between atoms: C15_32  and  C18_37 
REMARK   11  A    between atoms: C16_33  and  C17_34 
REMARK   12  A    between atoms: C18_37  and  O5_38 
REMARK   13  A    between atoms: C18_37  and  C19_40 
REMARK   14  A    between atoms: C19_40  and  O6_41 
REMARK   15  A    between atoms: C19_40  and  C20_43 
REMARK   16  A    between atoms: C20_43  and  O7_44 
ROOT
HETATM    1  N5  UNL     1      28.940  71.732  -5.963  1.00  0.00    -0.169 N 
HETATM    2  C14 UNL     1      28.587  73.008  -6.192  1.00  0.00     0.683 A 
HETATM    3  N7  UNL     1      28.485  73.734  -5.074  1.00  0.00    -0.158 N 
HETATM    4  C21 UNL     1      28.792  72.893  -4.087  1.00  0.00     0.163 A 
HETATM    5  C22 UNL     1      29.090  71.611  -4.623  1.00  0.00     0.165 A 
HETATM    6  C23 UNL     1      29.469  70.568  -3.816  1.00  0.00     0.280 A 
HETATM    7  O8  UNL     1      29.747  69.442  -4.267  1.00  0.00    -0.265 OA
HETATM    8  N8  UNL     1      29.545  70.797  -2.474  1.00  0.00    -0.273 N 
ATOM      9  H8  UNL     1      29.822  70.043  -1.845  1.00  0.00     0.173 HD
HETATM   10  C24 UNL     1      29.260  71.996  -1.983  1.00  0.00     0.330 A 
HETATM   11  O9  UNL     1      29.342  72.162  -0.716  1.00  0.00    -0.246 OA
HETATM   12  N9  UNL     1      28.885  73.052  -2.755  1.00  0.00    -0.287 N 
HETATM   13  C25 UNL     1      28.586  74.318  -2.153  1.00  0.00     0.163 C 
ENDROOT
BRANCH   1  14
HETATM   14  C13 UNL     1      29.080  70.666  -6.902  1.00  0.00     0.196 C 
BRANCH  14  15
HETATM   15  C12 UNL     1      30.377  70.327  -7.502  1.00  0.00     0.027 A 
HETATM   16  C2  UNL     1      31.306  70.956  -8.279  1.00  0.00     0.022 A 
HETATM   17  C1  UNL     1      31.104  72.384  -8.782  1.00  0.00     0.069 C 
HETATM   18  N1  UNL     1      32.415  70.309  -8.587  1.00  0.00    -0.338 N 
HETATM   19  C3  UNL     1      32.600  69.082  -8.140  1.00  0.00     0.164 A 
ATOM     20  H1  UNL     1      33.124  70.755  -9.168  1.00  0.00     0.168 HD
HETATM   21  S1  UNL     1      31.194  68.796  -7.257  1.00  0.00    -0.053 SA
BRANCH  19  22
HETATM   22  N2  UNL     1      33.641  68.289  -8.350  1.00  0.00    -0.279 N 
ATOM     23  H2  UNL     1      34.434  68.320  -7.710  1.00  0.00     0.189 HD
BRANCH  22  24
HETATM   24  N3  UNL     1      33.663  67.414  -9.433  1.00  0.00    -0.293 N 
ATOM     25  H3  UNL     1      32.783  67.156  -9.878  1.00  0.00     0.187 HD
BRANCH  24  26
HETATM   26  C4  UNL     1      34.870  66.871  -9.936  1.00  0.00     0.129 A 
HETATM   27  C5  UNL     1      35.117  66.340 -11.132  1.00  0.00     0.027 A 
HETATM   28  C6  UNL     1      34.326  66.148 -12.231  1.00  0.00     0.052 A 
HETATM   29  C10 UNL     1      36.438  65.928 -11.204  1.00  0.00     0.048 A 
HETATM   30  C7  UNL     1      34.856  65.561 -13.361  1.00  0.00     0.066 A 
HETATM   31  C8  UNL     1      36.167  65.143 -13.460  1.00  0.00     0.039 A 
HETATM   32  C9  UNL     1      36.960  65.338 -12.350  1.00  0.00     0.033 A 
HETATM   33  N4  UNL     1      37.063  66.171 -10.100  1.00  0.00    -0.321 N 
HETATM   34  C11 UNL     1      36.143  66.779  -9.212  1.00  0.00     0.275 A 
ATOM     35  H4  UNL     1      38.042  65.962  -9.904  1.00  0.00     0.169 HD
HETATM   36  O2  UNL     1      36.419  67.145  -8.051  1.00  0.00    -0.266 OA
BRANCH  30  37
HETATM   37  O1  UNL     1      34.037  65.368 -14.483  1.00  0.00    -0.361 OA
ATOM     38  H1  UNL     1      34.046  66.011 -15.182  1.00  0.00     0.217 HD
ENDBRANCH  30  37
ENDBRANCH  24  26
ENDBRANCH  22  24
ENDBRANCH  19  22
ENDBRANCH  14  15
ENDBRANCH   1  14
BRANCH   2  39
HETATM   39  N6  UNL     1      28.477  73.473  -7.373  1.00  0.00    -0.234 N 
ATOM     40  H62 UNL     1      29.257  73.787  -7.950  1.00  0.00     0.174 HD
ATOM     41  H61 UNL     1      27.584  73.479  -7.868  1.00  0.00     0.174 HD
ENDBRANCH   2  39
BRANCH   3  42
HETATM   42  C15 UNL     1      28.122  75.083  -5.024  1.00  0.00     0.151 C 
BRANCH  42  43
HETATM   43  C16 UNL     1      26.873  75.397  -5.892  1.00  0.00     0.142 C 
BRANCH  43  44
HETATM   44  C17 UNL     1      25.641  75.035  -5.185  1.00  0.00     0.174 C 
HETATM   45  O3  UNL     1      24.628  74.747  -5.828  1.00  0.00    -0.648 OA
HETATM   46  O4  UNL     1      25.637  75.023  -3.814  1.00  0.00    -0.648 OA
ENDBRANCH  43  44
ENDBRANCH  42  43
BRANCH  42  47
HETATM   47  C18 UNL     1      29.196  75.990  -5.676  1.00  0.00     0.173 C 
BRANCH  47  48
HETATM   48  O5  UNL     1      30.433  75.805  -5.066  1.00  0.00    -0.391 OA
ATOM     49  H5  UNL     1      30.829  74.990  -5.349  1.00  0.00     0.210 HD
ENDBRANCH  47  48
BRANCH  47  50
HETATM   50  C19 UNL     1      28.839  77.448  -5.568  1.00  0.00     0.172 C 
BRANCH  50  51
HETATM   51  O6  UNL     1      29.485  78.118  -4.554  1.00  0.00    -0.391 OA
ATOM     52  H6  UNL     1      29.929  78.911  -4.829  1.00  0.00     0.210 HD
ENDBRANCH  50  51
BRANCH  50  53
HETATM   53  C20 UNL     1      29.335  78.065  -6.891  1.00  0.00     0.198 C 
BRANCH  53  54
HETATM   54  O7  UNL     1      30.728  78.123  -6.916  1.00  0.00    -0.398 OA
ATOM     55  H7  UNL     1      31.100  77.249  -6.953  1.00  0.00     0.209 HD
ENDBRANCH  53  54
ENDBRANCH  50  53
ENDBRANCH  47  50
ENDBRANCH  42  47
ENDBRANCH   3  42
TORSDOF 16
ENDMDL
