MODEL 1
REMARK VINA RESULT: -7.959127732      0.000      0.000
REMARK  4 active torsions:
REMARK  status: ('A' for Active; 'I' for Inactive)
REMARK    1  A    between atoms: C2_2  and  C3_4 
REMARK    2  A    between atoms: C4_5  and  C5_6 
REMARK    3  A    between atoms: C5_6  and  C6_7 
REMARK    4  A    between atoms: C14_15  and  O2_16 
ROOT
HETATM    1  C6  UNL     1      30.780  -4.243  63.942  1.00  0.00     0.028 A 
HETATM    2  C7  UNL     1      30.057  -5.302  63.418  1.00  0.00    -0.036 A 
HETATM    3  C8  UNL     1      28.948  -5.127  62.506  1.00  0.00     0.050 C 
HETATM    4  C9  UNL     1      30.401  -6.567  63.887  1.00  0.00     0.012 A 
HETATM    5  C10 UNL     1      29.761  -7.695  63.431  1.00  0.00    -0.040 A 
HETATM    6  C11 UNL     1      28.734  -7.628  62.414  1.00  0.00     0.050 C 
HETATM    7  C12 UNL     1      30.174  -8.937  63.960  1.00  0.00    -0.021 A 
HETATM    8  C13 UNL     1      29.467 -10.127  63.458  1.00  0.00     0.052 C 
HETATM    9  C14 UNL     1      31.170  -9.011  64.883  1.00  0.00     0.080 A 
HETATM   10  C15 UNL     1      31.820  -7.900  65.345  1.00  0.00     0.007 A 
HETATM   11  C16 UNL     1      32.911  -8.022  66.359  1.00  0.00     0.054 C 
HETATM   12  C17 UNL     1      31.434  -6.676  64.843  1.00  0.00     0.099 A 
HETATM   13  O3  UNL     1      32.045  -5.602  65.268  1.00  0.00    -0.274 OA
HETATM   14  C18 UNL     1      31.773  -4.411  64.869  1.00  0.00     0.295 A 
HETATM   15  O4  UNL     1      32.411  -3.395  65.325  1.00  0.00    -0.259 OA
ENDROOT
BRANCH   1  16
HETATM   16  C5  UNL     1      30.540  -2.879  63.436  1.00  0.00     0.072 C 
BRANCH  16  17
HETATM   17  C4  UNL     1      31.342  -2.615  62.220  1.00  0.00    -0.018 C 
HETATM   18  C3  UNL     1      30.846  -2.511  61.012  1.00  0.00     0.046 C 
BRANCH  18  19
HETATM   19  C2  UNL     1      31.669  -2.250  59.840  1.00  0.00     0.145 C 
HETATM   20  C1  UNL     1      31.472  -3.029  58.581  1.00  0.00     0.096 C 
HETATM   21  O1  UNL     1      32.554  -1.360  59.899  1.00  0.00    -0.294 OA
ENDBRANCH  18  19
ENDBRANCH  16  17
ENDBRANCH   1  16
BRANCH   9  22
HETATM   22  O2  UNL     1      31.531 -10.260  65.366  1.00  0.00    -0.359 OA
ATOM     23  H2  UNL     1      32.156 -10.305  66.079  1.00  0.00     0.217 HD
ENDBRANCH   9  22
TORSDOF 4
ENDMDL
MODEL 2
REMARK VINA RESULT: -7.955698225      2.805      4.743
REMARK  4 active torsions:
REMARK  status: ('A' for Active; 'I' for Inactive)
REMARK    1  A    between atoms: C2_2  and  C3_4 
REMARK    2  A    between atoms: C4_5  and  C5_6 
REMARK    3  A    between atoms: C5_6  and  C6_7 
REMARK    4  A    between atoms: C14_15  and  O2_16 
ROOT
HETATM    1  C6  UNL     1      31.748  -3.636  65.377  1.00  0.00     0.028 A 
HETATM    2  C7  UNL     1      30.808  -3.753  64.365  1.00  0.00    -0.036 A 
HETATM    3  C8  UNL     1      30.096  -2.622  63.815  1.00  0.00     0.050 C 
HETATM    4  C9  UNL     1      30.515  -5.050  63.952  1.00  0.00     0.012 A 
HETATM    5  C10 UNL     1      29.608  -5.290  62.948  1.00  0.00    -0.040 A 
HETATM    6  C11 UNL     1      28.949  -4.212  62.243  1.00  0.00     0.050 C 
HETATM    7  C12 UNL     1      29.371  -6.636  62.592  1.00  0.00    -0.021 A 
HETATM    8  C13 UNL     1      28.391  -6.864  61.518  1.00  0.00     0.052 C 
HETATM    9  C14 UNL     1      30.020  -7.652  63.220  1.00  0.00     0.080 A 
HETATM   10  C15 UNL     1      30.929  -7.432  64.219  1.00  0.00     0.007 A 
HETATM   11  C16 UNL     1      31.622  -8.576  64.883  1.00  0.00     0.054 C 
HETATM   12  C17 UNL     1      31.176  -6.127  64.583  1.00  0.00     0.099 A 
HETATM   13  O3  UNL     1      32.043  -5.894  65.532  1.00  0.00    -0.274 OA
HETATM   14  C18 UNL     1      32.356  -4.719  65.951  1.00  0.00     0.295 A 
HETATM   15  O4  UNL     1      33.219  -4.555  66.888  1.00  0.00    -0.259 OA
ENDROOT
BRANCH   1  16
HETATM   16  C5  UNL     1      32.182  -2.296  65.814  1.00  0.00     0.072 C 
BRANCH  16  17
HETATM   17  C4  UNL     1      31.500  -1.901  67.068  1.00  0.00    -0.018 C 
HETATM   18  C3  UNL     1      31.843  -0.876  67.807  1.00  0.00     0.046 C 
BRANCH  18  19
HETATM   19  C2  UNL     1      31.146  -0.520  69.035  1.00  0.00     0.145 C 
HETATM   20  C1  UNL     1      30.948   0.911  69.412  1.00  0.00     0.096 C 
HETATM   21  O1  UNL     1      30.711  -1.434  69.779  1.00  0.00    -0.294 OA
ENDBRANCH  18  19
ENDBRANCH  16  17
ENDBRANCH   1  16
BRANCH   9  22
HETATM   22  O2  UNL     1      29.745  -8.954  62.827  1.00  0.00    -0.359 OA
ATOM     23  H2  UNL     1      28.847  -9.259  62.871  1.00  0.00     0.217 HD
ENDBRANCH   9  22
TORSDOF 4
ENDMDL
MODEL 3
REMARK VINA RESULT: -7.905422900      4.480      6.117
REMARK  4 active torsions:
REMARK  status: ('A' for Active; 'I' for Inactive)
REMARK    1  A    between atoms: C2_2  and  C3_4 
REMARK    2  A    between atoms: C4_5  and  C5_6 
REMARK    3  A    between atoms: C5_6  and  C6_7 
REMARK    4  A    between atoms: C14_15  and  O2_16 
ROOT
HETATM    1  C6  UNL     1      31.876  -6.347  59.827  1.00  0.00     0.028 A 
HETATM    2  C7  UNL     1      30.515  -6.229  60.055  1.00  0.00    -0.036 A 
HETATM    3  C8  UNL     1      29.963  -5.666  61.268  1.00  0.00     0.050 C 
HETATM    4  C9  UNL     1      29.683  -6.765  59.075  1.00  0.00     0.012 A 
HETATM    5  C10 UNL     1      28.316  -6.696  59.186  1.00  0.00    -0.040 A 
HETATM    6  C11 UNL     1      27.674  -6.027  60.297  1.00  0.00     0.050 C 
HETATM    7  C12 UNL     1      27.548  -7.265  58.146  1.00  0.00    -0.021 A 
HETATM    8  C13 UNL     1      26.086  -7.182  58.294  1.00  0.00     0.052 C 
HETATM    9  C14 UNL     1      28.145  -7.855  57.076  1.00  0.00     0.080 A 
HETATM   10  C15 UNL     1      29.504  -7.930  56.947  1.00  0.00     0.007 A 
HETATM   11  C16 UNL     1      30.122  -8.585  55.756  1.00  0.00     0.054 C 
HETATM   12  C17 UNL     1      30.274  -7.381  57.950  1.00  0.00     0.099 A 
HETATM   13  O3  UNL     1      31.575  -7.437  57.845  1.00  0.00    -0.274 OA
HETATM   14  C18 UNL     1      32.391  -6.957  58.715  1.00  0.00     0.295 A 
HETATM   15  O4  UNL     1      33.661  -7.043  58.554  1.00  0.00    -0.259 OA
ENDROOT
BRANCH   1  16
HETATM   16  C5  UNL     1      32.827  -5.730  60.771  1.00  0.00     0.072 C 
BRANCH  16  17
HETATM   17  C4  UNL     1      33.057  -4.306  60.438  1.00  0.00    -0.018 C 
HETATM   18  C3  UNL     1      32.585  -3.297  61.126  1.00  0.00     0.046 C 
BRANCH  18  19
HETATM   19  C2  UNL     1      32.834  -1.910  60.765  1.00  0.00     0.145 C 
HETATM   20  C1  UNL     1      33.770  -1.069  61.569  1.00  0.00     0.096 C 
HETATM   21  O1  UNL     1      32.251  -1.422  59.764  1.00  0.00    -0.294 OA
ENDBRANCH  18  19
ENDBRANCH  16  17
ENDBRANCH   1  16
BRANCH   9  22
HETATM   22  O2  UNL     1      27.338  -8.397  56.086  1.00  0.00    -0.359 OA
ATOM     23  H2  UNL     1      27.172  -7.882  55.306  1.00  0.00     0.217 HD
ENDBRANCH   9  22
TORSDOF 4
ENDMDL
MODEL 4
REMARK VINA RESULT: -7.849906470      2.806      4.002
REMARK  4 active torsions:
REMARK  status: ('A' for Active; 'I' for Inactive)
REMARK    1  A    between atoms: C2_2  and  C3_4 
REMARK    2  A    between atoms: C4_5  and  C5_6 
REMARK    3  A    between atoms: C5_6  and  C6_7 
REMARK    4  A    between atoms: C14_15  and  O2_16 
ROOT
HETATM    1  C6  UNL     1      31.537  -3.691  60.721  1.00  0.00     0.028 A 
HETATM    2  C7  UNL     1      32.233  -4.883  60.835  1.00  0.00    -0.036 A 
HETATM    3  C8  UNL     1      33.566  -5.073  60.307  1.00  0.00     0.050 C 
HETATM    4  C9  UNL     1      31.541  -5.939  61.423  1.00  0.00     0.012 A 
HETATM    5  C10 UNL     1      32.133  -7.167  61.601  1.00  0.00    -0.040 A 
HETATM    6  C11 UNL     1      33.510  -7.409  61.231  1.00  0.00     0.050 C 
HETATM    7  C12 UNL     1      31.358  -8.181  62.205  1.00  0.00    -0.021 A 
HETATM    8  C13 UNL     1      32.015  -9.487  62.378  1.00  0.00     0.052 C 
HETATM    9  C14 UNL     1      30.078  -7.947  62.597  1.00  0.00     0.080 A 
HETATM   10  C15 UNL     1      29.474  -6.731  62.430  1.00  0.00     0.007 A 
HETATM   11  C16 UNL     1      28.065  -6.512  62.875  1.00  0.00     0.054 C 
HETATM   12  C17 UNL     1      30.211  -5.725  61.843  1.00  0.00     0.099 A 
HETATM   13  O3  UNL     1      29.655  -4.554  61.678  1.00  0.00    -0.274 OA
HETATM   14  C18 UNL     1      30.245  -3.543  61.147  1.00  0.00     0.295 A 
HETATM   15  O4  UNL     1      29.644  -2.417  61.014  1.00  0.00    -0.259 OA
ENDROOT
BRANCH   1  16
HETATM   16  C5  UNL     1      32.223  -2.497  60.190  1.00  0.00     0.072 C 
BRANCH  16  17
HETATM   17  C4  UNL     1      33.004  -1.820  61.249  1.00  0.00    -0.018 C 
HETATM   18  C3  UNL     1      33.705  -0.728  61.071  1.00  0.00     0.046 C 
BRANCH  18  19
HETATM   19  C2  UNL     1      34.461  -0.092  62.140  1.00  0.00     0.145 C 
HETATM   20  C1  UNL     1      34.360  -0.589  63.545  1.00  0.00     0.096 C 
HETATM   21  O1  UNL     1      35.203   0.885  61.869  1.00  0.00    -0.294 OA
ENDBRANCH  18  19
ENDBRANCH  16  17
ENDBRANCH   1  16
BRANCH   9  22
HETATM   22  O2  UNL     1      29.367  -8.983  63.184  1.00  0.00    -0.359 OA
ATOM     23  H2  UNL     1      29.747  -9.423  63.935  1.00  0.00     0.217 HD
ENDBRANCH   9  22
TORSDOF 4
ENDMDL
MODEL 5
REMARK VINA RESULT: -7.764655682      1.892      6.378
REMARK  4 active torsions:
REMARK  status: ('A' for Active; 'I' for Inactive)
REMARK    1  A    between atoms: C2_2  and  C3_4 
REMARK    2  A    between atoms: C4_5  and  C5_6 
REMARK    3  A    between atoms: C5_6  and  C6_7 
REMARK    4  A    between atoms: C14_15  and  O2_16 
ROOT
HETATM    1  C6  UNL     1      32.480  -6.828  63.989  1.00  0.00     0.028 A 
HETATM    2  C7  UNL     1      32.631  -6.618  62.628  1.00  0.00    -0.036 A 
HETATM    3  C8  UNL     1      33.487  -7.431  61.793  1.00  0.00     0.050 C 
HETATM    4  C9  UNL     1      31.970  -5.509  62.105  1.00  0.00     0.012 A 
HETATM    5  C10 UNL     1      32.037  -5.206  60.766  1.00  0.00    -0.040 A 
HETATM    6  C11 UNL     1      32.756  -6.044  59.830  1.00  0.00     0.050 C 
HETATM    7  C12 UNL     1      31.336  -4.063  60.321  1.00  0.00    -0.021 A 
HETATM    8  C13 UNL     1      31.430  -3.760  58.883  1.00  0.00     0.052 C 
HETATM    9  C14 UNL     1      30.622  -3.297  61.188  1.00  0.00     0.080 A 
HETATM   10  C15 UNL     1      30.541  -3.585  62.522  1.00  0.00     0.007 A 
HETATM   11  C16 UNL     1      29.744  -2.719  63.442  1.00  0.00     0.054 C 
HETATM   12  C17 UNL     1      31.217  -4.696  62.979  1.00  0.00     0.099 A 
HETATM   13  O3  UNL     1      31.150  -4.992  64.250  1.00  0.00    -0.274 OA
HETATM   14  C18 UNL     1      31.735  -6.003  64.788  1.00  0.00     0.295 A 
HETATM   15  O4  UNL     1      31.630  -6.241  66.044  1.00  0.00    -0.259 OA
ENDROOT
BRANCH   1  16
HETATM   16  C5  UNL     1      33.073  -8.027  64.609  1.00  0.00     0.072 C 
BRANCH  16  17
HETATM   17  C4  UNL     1      32.045  -9.064  64.851  1.00  0.00    -0.018 C 
HETATM   18  C3  UNL     1      31.440  -9.744  63.909  1.00  0.00     0.046 C 
BRANCH  18  19
HETATM   19  C2  UNL     1      30.433 -10.756  64.189  1.00  0.00     0.145 C 
HETATM   20  C1  UNL     1      29.001 -10.527  63.832  1.00  0.00     0.096 C 
HETATM   21  O1  UNL     1      30.780 -11.831  64.739  1.00  0.00    -0.294 OA
ENDBRANCH  18  19
ENDBRANCH  16  17
ENDBRANCH   1  16
BRANCH   9  22
HETATM   22  O2  UNL     1      29.955  -2.186  60.691  1.00  0.00    -0.359 OA
ATOM     23  H2  UNL     1      29.431  -1.669  61.290  1.00  0.00     0.217 HD
ENDBRANCH   9  22
TORSDOF 4
ENDMDL
