MODEL 1
REMARK VINA RESULT: -7.528848036      0.000      0.000
REMARK  6 active torsions:
REMARK  status: ('A' for Active; 'I' for Inactive)
REMARK    1  A    between atoms: C2_2  and  C3_4 
REMARK    2  A    between atoms: C7_8  and  C8_9 
REMARK    3  A    between atoms: C8_9  and  O3_11 
REMARK    4  A    between atoms: O3_11  and  C9_12 
REMARK    5  A    between atoms: C13_16  and  C15_18 
REMARK    6  A    between atoms: C15_18  and  O4_19 
ROOT
HETATM    1  C8  UNL     1      31.881  -3.598  65.419  1.00  0.00     0.263 C 
HETATM    2  O2  UNL     1      32.170  -4.783  65.126  1.00  0.00    -0.265 OA
ENDROOT
BRANCH   1   3
HETATM    3  C7  UNL     1      31.858  -3.228  66.882  1.00  0.00     0.086 C 
HETATM    4  C6  UNL     1      33.268  -3.395  67.372  1.00  0.00     0.015 C 
HETATM    5  C5  UNL     1      33.986  -2.074  67.062  1.00  0.00     0.002 C 
HETATM    6  C4  UNL     1      33.406  -1.122  68.107  1.00  0.00     0.012 C 
HETATM    7  C3  UNL     1      31.933  -0.901  67.894  1.00  0.00     0.056 C 
HETATM    8  C17 UNL     1      31.234  -1.924  67.105  1.00  0.00     0.027 C 
BRANCH   7   9
HETATM    9  C2  UNL     1      31.320  -0.711  69.227  1.00  0.00     0.127 C 
HETATM   10  C1  UNL     1      31.092   0.654  69.732  1.00  0.00     0.091 C 
HETATM   11  O1  UNL     1      31.015  -1.669  69.889  1.00  0.00    -0.298 OA
ENDBRANCH   7   9
ENDBRANCH   1   3
BRANCH   1  12
HETATM   12  O3  UNL     1      31.588  -2.648  64.453  1.00  0.00    -0.316 OA
BRANCH  12  13
HETATM   13  C9  UNL     1      31.109  -3.098  63.206  1.00  0.00     0.132 C 
HETATM   14  C10 UNL     1      29.654  -2.762  63.008  1.00  0.00     0.032 C 
HETATM   15  C11 UNL     1      29.306  -2.988  61.565  1.00  0.00     0.003 C 
HETATM   16  C12 UNL     1      30.346  -3.766  60.807  1.00  0.00     0.011 C 
HETATM   17  C13 UNL     1      31.680  -3.100  60.777  1.00  0.00    -0.020 C 
HETATM   18  C14 UNL     1      32.733  -4.178  60.506  1.00  0.00     0.017 C 
HETATM   19  C16 UNL     1      31.985  -2.506  62.119  1.00  0.00     0.044 C 
BRANCH  17  20
HETATM   20  C15 UNL     1      31.820  -2.089  59.658  1.00  0.00     0.173 C 
BRANCH  20  21
HETATM   21  O4  UNL     1      31.049  -2.373  58.559  1.00  0.00    -0.400 OA
ATOM     22  H4  UNL     1      30.783  -1.603  58.071  1.00  0.00     0.209 HD
ENDBRANCH  20  21
ENDBRANCH  17  20
ENDBRANCH  12  13
ENDBRANCH   1  12
TORSDOF 6
ENDMDL
MODEL 2
REMARK VINA RESULT: -7.377859520      3.884      6.929
REMARK  6 active torsions:
REMARK  status: ('A' for Active; 'I' for Inactive)
REMARK    1  A    between atoms: C2_2  and  C3_4 
REMARK    2  A    between atoms: C7_8  and  C8_9 
REMARK    3  A    between atoms: C8_9  and  O3_11 
REMARK    4  A    between atoms: O3_11  and  C9_12 
REMARK    5  A    between atoms: C13_16  and  C15_18 
REMARK    6  A    between atoms: C15_18  and  O4_19 
ROOT
HETATM    1  C8  UNL     1      29.641  -6.415  61.465  1.00  0.00     0.263 C 
HETATM    2  O2  UNL     1      28.484  -6.875  61.315  1.00  0.00    -0.265 OA
ENDROOT
BRANCH   1   3
HETATM    3  C7  UNL     1      29.871  -4.973  61.088  1.00  0.00     0.086 C 
HETATM    4  C6  UNL     1      28.854  -4.178  61.856  1.00  0.00     0.015 C 
HETATM    5  C5  UNL     1      29.478  -3.904  63.233  1.00  0.00     0.002 C 
HETATM    6  C4  UNL     1      30.530  -2.842  62.920  1.00  0.00     0.012 C 
HETATM    7  C3  UNL     1      31.613  -3.384  62.029  1.00  0.00     0.056 C 
HETATM    8  C17 UNL     1      31.272  -4.583  61.252  1.00  0.00     0.027 C 
BRANCH   7   9
HETATM    9  C2  UNL     1      32.068  -2.272  61.165  1.00  0.00     0.127 C 
HETATM   10  C1  UNL     1      33.370  -1.635  61.427  1.00  0.00     0.091 C 
HETATM   11  O1  UNL     1      31.373  -1.895  60.257  1.00  0.00    -0.298 OA
ENDBRANCH   7   9
ENDBRANCH   1   3
BRANCH   1  12
HETATM   12  O3  UNL     1      30.685  -7.185  61.957  1.00  0.00    -0.316 OA
BRANCH  12  13
HETATM   13  C9  UNL     1      30.736  -7.418  63.346  1.00  0.00     0.132 C 
HETATM   14  C10 UNL     1      30.261  -8.803  63.702  1.00  0.00     0.032 C 
HETATM   15  C11 UNL     1      30.632  -9.080  65.130  1.00  0.00     0.003 C 
HETATM   16  C12 UNL     1      31.057  -7.857  65.893  1.00  0.00     0.011 C 
HETATM   17  C13 UNL     1      32.254  -7.181  65.313  1.00  0.00    -0.020 C 
HETATM   18  C14 UNL     1      32.243  -5.725  65.787  1.00  0.00     0.017 C 
HETATM   19  C16 UNL     1      32.156  -7.163  63.817  1.00  0.00     0.044 C 
BRANCH  17  20
HETATM   20  C15 UNL     1      33.565  -7.767  65.793  1.00  0.00     0.173 C 
BRANCH  20  21
HETATM   21  O4  UNL     1      33.504  -8.287  67.062  1.00  0.00    -0.400 OA
ATOM     22  H4  UNL     1      34.355  -8.505  67.425  1.00  0.00     0.209 HD
ENDBRANCH  20  21
ENDBRANCH  17  20
ENDBRANCH  12  13
ENDBRANCH   1  12
TORSDOF 6
ENDMDL
MODEL 3
REMARK VINA RESULT: -7.299924107      4.153      6.325
REMARK  6 active torsions:
REMARK  status: ('A' for Active; 'I' for Inactive)
REMARK    1  A    between atoms: C2_2  and  C3_4 
REMARK    2  A    between atoms: C7_8  and  C8_9 
REMARK    3  A    between atoms: C8_9  and  O3_11 
REMARK    4  A    between atoms: O3_11  and  C9_12 
REMARK    5  A    between atoms: C13_16  and  C15_18 
REMARK    6  A    between atoms: C15_18  and  O4_19 
ROOT
HETATM    1  C8  UNL     1      29.173  -5.352  61.642  1.00  0.00     0.263 C 
HETATM    2  O2  UNL     1      28.271  -5.485  62.502  1.00  0.00    -0.265 OA
ENDROOT
BRANCH   1   3
HETATM    3  C7  UNL     1      29.691  -3.958  61.386  1.00  0.00     0.086 C 
HETATM    4  C6  UNL     1      29.355  -3.161  62.615  1.00  0.00     0.015 C 
HETATM    5  C5  UNL     1      30.508  -3.395  63.602  1.00  0.00     0.002 C 
HETATM    6  C4  UNL     1      31.642  -2.568  62.997  1.00  0.00     0.012 C 
HETATM    7  C3  UNL     1      32.069  -3.113  61.662  1.00  0.00     0.056 C 
HETATM    8  C17 UNL     1      31.093  -3.965  60.969  1.00  0.00     0.027 C 
BRANCH   7   9
HETATM    9  C2  UNL     1      32.490  -1.961  60.833  1.00  0.00     0.127 C 
HETATM   10  C1  UNL     1      33.616  -1.121  61.277  1.00  0.00     0.091 C 
HETATM   11  O1  UNL     1      31.912  -1.719  59.806  1.00  0.00    -0.298 OA
ENDBRANCH   7   9
ENDBRANCH   1   3
BRANCH   1  12
HETATM   12  O3  UNL     1      29.691  -6.430  60.940  1.00  0.00    -0.316 OA
BRANCH  12  13
HETATM   13  C9  UNL     1      28.942  -6.935  59.858  1.00  0.00     0.132 C 
HETATM   14  C10 UNL     1      27.576  -6.305  59.776  1.00  0.00     0.032 C 
HETATM   15  C11 UNL     1      26.971  -6.654  58.448  1.00  0.00     0.003 C 
HETATM   16  C12 UNL     1      27.696  -7.752  57.722  1.00  0.00     0.011 C 
HETATM   17  C13 UNL     1      29.119  -7.424  57.417  1.00  0.00    -0.020 C 
HETATM   18  C14 UNL     1      29.870  -8.742  57.219  1.00  0.00     0.017 C 
HETATM   19  C16 UNL     1      29.745  -6.726  58.588  1.00  0.00     0.044 C 
BRANCH  17  20
HETATM   20  C15 UNL     1      29.291  -6.646  56.129  1.00  0.00     0.173 C 
BRANCH  20  21
HETATM   21  O4  UNL     1      30.460  -5.929  56.070  1.00  0.00    -0.400 OA
ATOM     22  H4  UNL     1      31.221  -6.457  55.855  1.00  0.00     0.209 HD
ENDBRANCH  20  21
ENDBRANCH  17  20
ENDBRANCH  12  13
ENDBRANCH   1  12
TORSDOF 6
ENDMDL
MODEL 4
REMARK VINA RESULT: -7.285668509      4.094      7.201
REMARK  6 active torsions:
REMARK  status: ('A' for Active; 'I' for Inactive)
REMARK    1  A    between atoms: C2_2  and  C3_4 
REMARK    2  A    between atoms: C7_8  and  C8_9 
REMARK    3  A    between atoms: C8_9  and  O3_11 
REMARK    4  A    between atoms: O3_11  and  C9_12 
REMARK    5  A    between atoms: C13_16  and  C15_18 
REMARK    6  A    between atoms: C15_18  and  O4_19 
ROOT
HETATM    1  C8  UNL     1      31.192  -7.300  62.622  1.00  0.00     0.263 C 
HETATM    2  O2  UNL     1      31.280  -7.931  63.702  1.00  0.00    -0.265 OA
ENDROOT
BRANCH   1   3
HETATM    3  C7  UNL     1      30.067  -7.673  61.687  1.00  0.00     0.086 C 
HETATM    4  C6  UNL     1      28.798  -7.440  62.456  1.00  0.00     0.015 C 
HETATM    5  C5  UNL     1      28.449  -5.956  62.264  1.00  0.00     0.002 C 
HETATM    6  C4  UNL     1      27.949  -5.913  60.821  1.00  0.00     0.012 C 
HETATM    7  C3  UNL     1      29.044  -6.253  59.848  1.00  0.00     0.056 C 
HETATM    8  C17 UNL     1      30.186  -6.999  60.395  1.00  0.00     0.027 C 
BRANCH   7   9
HETATM    9  C2  UNL     1      28.416  -6.954  58.707  1.00  0.00     0.127 C 
HETATM   10  C1  UNL     1      26.959  -6.855  58.507  1.00  0.00     0.091 C 
HETATM   11  O1  UNL     1      29.095  -7.600  57.952  1.00  0.00    -0.298 OA
ENDBRANCH   7   9
ENDBRANCH   1   3
BRANCH   1  12
HETATM   12  O3  UNL     1      32.082  -6.294  62.278  1.00  0.00    -0.316 OA
BRANCH  12  13
HETATM   13  C9  UNL     1      31.581  -4.982  62.153  1.00  0.00     0.132 C 
HETATM   14  C10 UNL     1      31.340  -4.342  63.496  1.00  0.00     0.032 C 
HETATM   15  C11 UNL     1      31.112  -2.873  63.288  1.00  0.00     0.003 C 
HETATM   16  C12 UNL     1      30.863  -2.496  61.853  1.00  0.00     0.011 C 
HETATM   17  C13 UNL     1      31.996  -2.838  60.945  1.00  0.00    -0.020 C 
HETATM   18  C14 UNL     1      31.438  -2.943  59.523  1.00  0.00     0.017 C 
HETATM   19  C16 UNL     1      32.553  -4.183  61.306  1.00  0.00     0.044 C 
BRANCH  17  20
HETATM   20  C15 UNL     1      33.068  -1.769  60.896  1.00  0.00     0.173 C 
BRANCH  20  21
HETATM   21  O4  UNL     1      32.883  -0.849  59.895  1.00  0.00    -0.400 OA
ATOM     22  H4  UNL     1      32.169  -0.244  60.060  1.00  0.00     0.209 HD
ENDBRANCH  20  21
ENDBRANCH  17  20
ENDBRANCH  12  13
ENDBRANCH   1  12
TORSDOF 6
ENDMDL
MODEL 5
REMARK VINA RESULT: -7.275527980      3.997      6.159
REMARK  6 active torsions:
REMARK  status: ('A' for Active; 'I' for Inactive)
REMARK    1  A    between atoms: C2_2  and  C3_4 
REMARK    2  A    between atoms: C7_8  and  C8_9 
REMARK    3  A    between atoms: C8_9  and  O3_11 
REMARK    4  A    between atoms: O3_11  and  C9_12 
REMARK    5  A    between atoms: C13_16  and  C15_18 
REMARK    6  A    between atoms: C15_18  and  O4_19 
ROOT
HETATM    1  C8  UNL     1      28.356  -5.949  61.277  1.00  0.00     0.263 C 
HETATM    2  O2  UNL     1      27.666  -6.683  62.023  1.00  0.00    -0.265 OA
ENDROOT
BRANCH   1   3
HETATM    3  C7  UNL     1      29.630  -5.375  61.848  1.00  0.00     0.086 C 
HETATM    4  C6  UNL     1      29.972  -4.193  60.987  1.00  0.00     0.015 C 
HETATM    5  C5  UNL     1      29.191  -3.004  61.566  1.00  0.00     0.002 C 
HETATM    6  C4  UNL     1      29.962  -2.688  62.847  1.00  0.00     0.012 C 
HETATM    7  C3  UNL     1      29.872  -3.817  63.837  1.00  0.00     0.056 C 
HETATM    8  C17 UNL     1      29.521  -5.133  63.286  1.00  0.00     0.027 C 
BRANCH   7   9
HETATM    9  C2  UNL     1      31.150  -3.848  64.583  1.00  0.00     0.127 C 
HETATM   10  C1  UNL     1      31.450  -2.781  65.554  1.00  0.00     0.091 C 
HETATM   11  O1  UNL     1      31.934  -4.742  64.393  1.00  0.00    -0.298 OA
ENDBRANCH   7   9
ENDBRANCH   1   3
BRANCH   1  12
HETATM   12  O3  UNL     1      27.982  -5.660  59.973  1.00  0.00    -0.316 OA
BRANCH  12  13
HETATM   13  C9  UNL     1      28.067  -6.693  59.017  1.00  0.00     0.132 C 
HETATM   14  C10 UNL     1      26.758  -6.907  58.302  1.00  0.00     0.032 C 
HETATM   15  C11 UNL     1      27.006  -7.786  57.111  1.00  0.00     0.003 C 
HETATM   16  C12 UNL     1      28.350  -8.461  57.125  1.00  0.00     0.011 C 
HETATM   17  C13 UNL     1      29.494  -7.504  57.137  1.00  0.00    -0.020 C 
HETATM   18  C14 UNL     1      30.710  -8.239  57.706  1.00  0.00     0.017 C 
HETATM   19  C16 UNL     1      29.194  -6.359  58.058  1.00  0.00     0.044 C 
BRANCH  17  20
HETATM   20  C15 UNL     1      29.898  -7.036  55.755  1.00  0.00     0.173 C 
BRANCH  20  21
HETATM   21  O4  UNL     1      30.737  -5.950  55.763  1.00  0.00    -0.400 OA
ATOM     22  H4  UNL     1      30.676  -5.427  56.554  1.00  0.00     0.209 HD
ENDBRANCH  20  21
ENDBRANCH  17  20
ENDBRANCH  12  13
ENDBRANCH   1  12
TORSDOF 6
ENDMDL
