MODEL 1
REMARK VINA RESULT: -7.543569443      0.000      0.000
REMARK  4 active torsions:
REMARK  status: ('A' for Active; 'I' for Inactive)
REMARK    1  A    between atoms: C2_2  and  C3_3 
REMARK    2  A    between atoms: C3_3  and  N1_4 
REMARK       I    between atoms: N1_4  and  C4_6 
REMARK       I    between atoms: C4_6  and  N2_8 
REMARK       I    between atoms: N2_8  and  C5_10 
REMARK       I    between atoms: C5_10  and  N3_12 
REMARK    3  A    between atoms: C11_18  and  C12_19 
REMARK    4  A    between atoms: C13_20  and  C14_21 
ROOT
HETATM    1  N1  UNL     1     -74.060 -50.030 -76.834  1.00  0.00    -0.339 N 
ATOM      2  H1  UNL     1     -74.026 -49.040 -77.074  1.00  0.00     0.164 HD
HETATM    3  C4  UNL     1     -73.271 -50.529 -75.788  1.00  0.00     0.324 C 
HETATM    4  O1  UNL     1     -73.365 -51.792 -75.544  1.00  0.00    -0.247 OA
HETATM    5  N2  UNL     1     -72.378 -49.815 -74.958  1.00  0.00    -0.261 N 
ATOM      6  H2  UNL     1     -71.894 -50.366 -74.249  1.00  0.00     0.175 HD
HETATM    7  C5  UNL     1     -72.072 -48.455 -74.985  1.00  0.00     0.327 C 
HETATM    8  O2  UNL     1     -72.667 -47.761 -75.894  1.00  0.00    -0.247 OA
HETATM    9  N3  UNL     1     -71.206 -47.751 -74.156  1.00  0.00    -0.318 N 
HETATM   10  C6  UNL     1     -70.978 -46.271 -74.410  1.00  0.00     0.133 C 
HETATM   11  C7  UNL     1     -70.870 -45.680 -73.033  1.00  0.00     0.006 C 
HETATM   12  C8  UNL     1     -69.675 -44.762 -72.908  1.00  0.00     0.012 C 
HETATM   13  C9  UNL     1     -70.835 -46.823 -72.088  1.00  0.00     0.022 C 
HETATM   14  C10 UNL     1     -69.885 -46.679 -70.948  1.00  0.00     0.013 C 
HETATM   15  C11 UNL     1     -70.377 -47.975 -73.043  1.00  0.00     0.173 C 
ENDROOT
BRANCH  15  16
HETATM   16  C12 UNL     1     -70.516 -49.195 -72.313  1.00  0.00    -0.075 C 
HETATM   17  C13 UNL     1     -70.632 -50.271 -71.731  1.00  0.00    -0.070 C 
BRANCH  17  18
HETATM   18  C14 UNL     1     -70.769 -51.511 -71.033  1.00  0.00    -0.018 C 
HETATM   19  C15 UNL     1     -71.846 -52.237 -71.205  1.00  0.00     0.028 C 
HETATM   20  C16 UNL     1     -69.729 -52.022 -70.106  1.00  0.00     0.057 C 
ENDBRANCH  17  18
ENDBRANCH  15  16
BRANCH   1  21
HETATM   21  C3  UNL     1     -74.940 -50.942 -77.585  1.00  0.00     0.150 C 
BRANCH  21  22
HETATM   22  C2  UNL     1     -74.378 -51.314 -78.902  1.00  0.00    -0.018 C 
HETATM   23  C1  UNL     1     -73.559 -50.491 -79.520  1.00  0.00     0.008 C 
ENDBRANCH  21  22
ENDBRANCH   1  21
TORSDOF 4
ENDMDL
MODEL 2
REMARK VINA RESULT: -7.077761999      1.250      4.422
REMARK  4 active torsions:
REMARK  status: ('A' for Active; 'I' for Inactive)
REMARK    1  A    between atoms: C2_2  and  C3_3 
REMARK    2  A    between atoms: C3_3  and  N1_4 
REMARK       I    between atoms: N1_4  and  C4_6 
REMARK       I    between atoms: C4_6  and  N2_8 
REMARK       I    between atoms: N2_8  and  C5_10 
REMARK       I    between atoms: C5_10  and  N3_12 
REMARK    3  A    between atoms: C11_18  and  C12_19 
REMARK    4  A    between atoms: C13_20  and  C14_21 
ROOT
HETATM    1  N1  UNL     1     -74.134 -51.026 -76.344  1.00  0.00    -0.339 N 
ATOM      2  H1  UNL     1     -74.099 -51.978 -75.982  1.00  0.00     0.164 HD
HETATM    3  C4  UNL     1     -73.511 -49.983 -75.644  1.00  0.00     0.324 C 
HETATM    4  O1  UNL     1     -73.600 -48.805 -76.161  1.00  0.00    -0.247 OA
HETATM    5  N2  UNL     1     -72.789 -50.062 -74.432  1.00  0.00    -0.261 N 
ATOM      6  H2  UNL     1     -72.409 -49.181 -74.083  1.00  0.00     0.175 HD
HETATM    7  C5  UNL     1     -72.528 -51.187 -73.652  1.00  0.00     0.327 C 
HETATM    8  O2  UNL     1     -73.024 -52.298 -74.080  1.00  0.00    -0.247 OA
HETATM    9  N3  UNL     1     -71.803 -51.266 -72.469  1.00  0.00    -0.318 N 
HETATM   10  C6  UNL     1     -71.700 -52.599 -71.750  1.00  0.00     0.133 C 
HETATM   11  C7  UNL     1     -70.295 -52.617 -71.218  1.00  0.00     0.006 C 
HETATM   12  C8  UNL     1     -70.250 -53.029 -69.764  1.00  0.00     0.012 C 
HETATM   13  C9  UNL     1     -69.738 -51.264 -71.464  1.00  0.00     0.022 C 
HETATM   14  C10 UNL     1     -68.896 -50.712 -70.363  1.00  0.00     0.013 C 
HETATM   15  C11 UNL     1     -71.053 -50.432 -71.620  1.00  0.00     0.173 C 
ENDROOT
BRANCH  15  16
HETATM   16  C12 UNL     1     -70.669 -49.138 -72.086  1.00  0.00    -0.075 C 
HETATM   17  C13 UNL     1     -70.390 -48.013 -72.493  1.00  0.00    -0.070 C 
BRANCH  17  18
HETATM   18  C14 UNL     1     -70.041 -46.709 -72.965  1.00  0.00    -0.018 C 
HETATM   19  C15 UNL     1     -69.914 -46.497 -74.252  1.00  0.00     0.028 C 
HETATM   20  C16 UNL     1     -69.815 -45.564 -72.048  1.00  0.00     0.057 C 
ENDBRANCH  17  18
ENDBRANCH  15  16
BRANCH   1  21
HETATM   21  C3  UNL     1     -74.841 -50.740 -77.604  1.00  0.00     0.150 C 
BRANCH  21  22
HETATM   22  C2  UNL     1     -74.089 -51.198 -78.792  1.00  0.00    -0.018 C 
HETATM   23  C1  UNL     1     -73.411 -50.329 -79.511  1.00  0.00     0.008 C 
ENDBRANCH  21  22
ENDBRANCH   1  21
TORSDOF 4
ENDMDL
MODEL 3
REMARK VINA RESULT: -6.889757117      3.925      6.479
REMARK  4 active torsions:
REMARK  status: ('A' for Active; 'I' for Inactive)
REMARK    1  A    between atoms: C2_2  and  C3_3 
REMARK    2  A    between atoms: C3_3  and  N1_4 
REMARK       I    between atoms: N1_4  and  C4_6 
REMARK       I    between atoms: C4_6  and  N2_8 
REMARK       I    between atoms: N2_8  and  C5_10 
REMARK       I    between atoms: C5_10  and  N3_12 
REMARK    3  A    between atoms: C11_18  and  C12_19 
REMARK    4  A    between atoms: C13_20  and  C14_21 
ROOT
HETATM    1  N1  UNL     1     -73.077 -56.434 -72.322  1.00  0.00    -0.339 N 
ATOM      2  H1  UNL     1     -72.290 -56.698 -71.730  1.00  0.00     0.164 HD
HETATM    3  C4  UNL     1     -73.323 -55.083 -72.604  1.00  0.00     0.324 C 
HETATM    4  O1  UNL     1     -74.338 -54.825 -73.357  1.00  0.00    -0.247 OA
HETATM    5  N2  UNL     1     -72.593 -53.957 -72.163  1.00  0.00    -0.261 N 
ATOM      6  H2  UNL     1     -72.937 -53.051 -72.481  1.00  0.00     0.175 HD
HETATM    7  C5  UNL     1     -71.462 -53.925 -71.348  1.00  0.00     0.327 C 
HETATM    8  O2  UNL     1     -71.036 -55.067 -70.928  1.00  0.00    -0.247 OA
HETATM    9  N3  UNL     1     -70.733 -52.817 -70.930  1.00  0.00    -0.318 N 
HETATM   10  C6  UNL     1     -69.562 -53.015 -69.985  1.00  0.00     0.133 C 
HETATM   11  C7  UNL     1     -68.543 -52.017 -70.456  1.00  0.00     0.006 C 
HETATM   12  C8  UNL     1     -67.968 -51.216 -69.310  1.00  0.00     0.012 C 
HETATM   13  C9  UNL     1     -69.219 -51.180 -71.477  1.00  0.00     0.022 C 
HETATM   14  C10 UNL     1     -68.895 -49.725 -71.425  1.00  0.00     0.013 C 
HETATM   15  C11 UNL     1     -70.719 -51.422 -71.105  1.00  0.00     0.173 C 
ENDROOT
BRANCH  15  16
HETATM   16  C12 UNL     1     -71.502 -50.849 -72.153  1.00  0.00    -0.075 C 
HETATM   17  C13 UNL     1     -72.132 -50.331 -73.072  1.00  0.00    -0.070 C 
BRANCH  17  18
HETATM   18  C14 UNL     1     -72.886 -49.739 -74.133  1.00  0.00    -0.018 C 
HETATM   19  C15 UNL     1     -73.250 -48.483 -74.048  1.00  0.00     0.028 C 
HETATM   20  C16 UNL     1     -73.280 -50.494 -75.348  1.00  0.00     0.057 C 
ENDBRANCH  17  18
ENDBRANCH  15  16
BRANCH   1  21
HETATM   21  C3  UNL     1     -73.958 -57.471 -72.884  1.00  0.00     0.150 C 
BRANCH  21  22
HETATM   22  C2  UNL     1     -74.994 -57.915 -71.926  1.00  0.00    -0.018 C 
HETATM   23  C1  UNL     1     -76.265 -57.703 -72.192  1.00  0.00     0.008 C 
ENDBRANCH  21  22
ENDBRANCH   1  21
TORSDOF 4
ENDMDL
MODEL 4
REMARK VINA RESULT: -6.835496248      2.578      5.564
REMARK  4 active torsions:
REMARK  status: ('A' for Active; 'I' for Inactive)
REMARK    1  A    between atoms: C2_2  and  C3_3 
REMARK    2  A    between atoms: C3_3  and  N1_4 
REMARK       I    between atoms: N1_4  and  C4_6 
REMARK       I    between atoms: C4_6  and  N2_8 
REMARK       I    between atoms: N2_8  and  C5_10 
REMARK       I    between atoms: C5_10  and  N3_12 
REMARK    3  A    between atoms: C11_18  and  C12_19 
REMARK    4  A    between atoms: C13_20  and  C14_21 
ROOT
HETATM    1  N1  UNL     1     -71.928 -54.055 -72.093  1.00  0.00    -0.339 N 
ATOM      2  H1  UNL     1     -71.198 -53.696 -71.478  1.00  0.00     0.164 HD
HETATM    3  C4  UNL     1     -72.630 -53.182 -72.936  1.00  0.00     0.324 C 
HETATM    4  O1  UNL     1     -73.540 -53.707 -73.684  1.00  0.00    -0.247 OA
HETATM    5  N2  UNL     1     -72.464 -51.785 -73.071  1.00  0.00    -0.261 N 
ATOM      6  H2  UNL     1     -73.078 -51.328 -73.745  1.00  0.00     0.175 HD
HETATM    7  C5  UNL     1     -71.569 -50.952 -72.403  1.00  0.00     0.327 C 
HETATM    8  O2  UNL     1     -70.805 -51.524 -71.536  1.00  0.00    -0.247 OA
HETATM    9  N3  UNL     1     -71.394 -49.581 -72.550  1.00  0.00    -0.318 N 
HETATM   10  C6  UNL     1     -70.393 -48.862 -71.663  1.00  0.00     0.133 C 
HETATM   11  C7  UNL     1     -69.778 -47.833 -72.570  1.00  0.00     0.006 C 
HETATM   12  C8  UNL     1     -69.735 -46.468 -71.922  1.00  0.00     0.012 C 
HETATM   13  C9  UNL     1     -70.563 -47.864 -73.828  1.00  0.00     0.022 C 
HETATM   14  C10 UNL     1     -70.835 -46.531 -74.441  1.00  0.00     0.013 C 
HETATM   15  C11 UNL     1     -71.892 -48.520 -73.327  1.00  0.00     0.173 C 
ENDROOT
BRANCH  15  16
HETATM   16  C12 UNL     1     -72.667 -48.819 -74.488  1.00  0.00    -0.075 C 
HETATM   17  C13 UNL     1     -73.379 -49.066 -75.459  1.00  0.00    -0.070 C 
BRANCH  17  18
HETATM   18  C14 UNL     1     -74.186 -49.359 -76.602  1.00  0.00    -0.018 C 
HETATM   19  C15 UNL     1     -74.572 -48.385 -77.390  1.00  0.00     0.028 C 
HETATM   20  C16 UNL     1     -74.612 -50.738 -76.944  1.00  0.00     0.057 C 
ENDBRANCH  17  18
ENDBRANCH  15  16
BRANCH   1  21
HETATM   21  C3  UNL     1     -72.247 -55.492 -72.100  1.00  0.00     0.150 C 
BRANCH  21  22
HETATM   22  C2  UNL     1     -71.105 -56.329 -71.670  1.00  0.00    -0.018 C 
HETATM   23  C1  UNL     1     -70.322 -55.916 -70.697  1.00  0.00     0.008 C 
ENDBRANCH  21  22
ENDBRANCH   1  21
TORSDOF 4
ENDMDL
MODEL 5
REMARK VINA RESULT: -6.779013843      2.382      5.461
REMARK  4 active torsions:
REMARK  status: ('A' for Active; 'I' for Inactive)
REMARK    1  A    between atoms: C2_2  and  C3_3 
REMARK    2  A    between atoms: C3_3  and  N1_4 
REMARK       I    between atoms: N1_4  and  C4_6 
REMARK       I    between atoms: C4_6  and  N2_8 
REMARK       I    between atoms: N2_8  and  C5_10 
REMARK       I    between atoms: C5_10  and  N3_12 
REMARK    3  A    between atoms: C11_18  and  C12_19 
REMARK    4  A    between atoms: C13_20  and  C14_21 
ROOT
HETATM    1  N1  UNL     1     -71.324 -53.066 -71.561  1.00  0.00    -0.339 N 
ATOM      2  H1  UNL     1     -70.620 -52.599 -70.989  1.00  0.00     0.164 HD
HETATM    3  C4  UNL     1     -72.117 -52.323 -72.447  1.00  0.00     0.324 C 
HETATM    4  O1  UNL     1     -72.987 -52.981 -73.135  1.00  0.00    -0.247 OA
HETATM    5  N2  UNL     1     -72.081 -50.931 -72.685  1.00  0.00    -0.261 N 
ATOM      6  H2  UNL     1     -72.746 -50.581 -73.375  1.00  0.00     0.175 HD
HETATM    7  C5  UNL     1     -71.255 -49.974 -72.098  1.00  0.00     0.327 C 
HETATM    8  O2  UNL     1     -70.428 -50.410 -71.210  1.00  0.00    -0.247 OA
HETATM    9  N3  UNL     1     -71.210 -48.607 -72.346  1.00  0.00    -0.318 N 
HETATM   10  C6  UNL     1     -70.264 -47.738 -71.535  1.00  0.00     0.133 C 
HETATM   11  C7  UNL     1     -69.761 -46.727 -72.527  1.00  0.00     0.006 C 
HETATM   12  C8  UNL     1     -69.832 -45.320 -71.979  1.00  0.00     0.012 C 
HETATM   13  C9  UNL     1     -70.560 -46.919 -73.761  1.00  0.00     0.022 C 
HETATM   14  C10 UNL     1     -70.963 -45.665 -74.461  1.00  0.00     0.013 C 
HETATM   15  C11 UNL     1     -71.815 -47.654 -73.185  1.00  0.00     0.173 C 
ENDROOT
BRANCH  15  16
HETATM   16  C12 UNL     1     -72.579 -48.106 -74.303  1.00  0.00    -0.075 C 
HETATM   17  C13 UNL     1     -73.251 -48.536 -75.237  1.00  0.00    -0.070 C 
BRANCH  17  18
HETATM   18  C14 UNL     1     -74.027 -49.018 -76.338  1.00  0.00    -0.018 C 
HETATM   19  C15 UNL     1     -74.636 -48.164 -77.124  1.00  0.00     0.028 C 
HETATM   20  C16 UNL     1     -74.174 -50.463 -76.637  1.00  0.00     0.057 C 
ENDBRANCH  17  18
ENDBRANCH  15  16
BRANCH   1  21
HETATM   21  C3  UNL     1     -71.510 -54.523 -71.458  1.00  0.00     0.150 C 
BRANCH  21  22
HETATM   22  C2  UNL     1     -70.286 -55.221 -71.007  1.00  0.00    -0.018 C 
HETATM   23  C1  UNL     1     -69.177 -54.540 -70.820  1.00  0.00     0.008 C 
ENDBRANCH  21  22
ENDBRANCH   1  21
TORSDOF 4
ENDMDL
