MODEL 1
REMARK VINA RESULT: -6.549914548      0.000      0.000
REMARK  3 active torsions:
REMARK  status: ('A' for Active; 'I' for Inactive)
REMARK    1  A    between atoms: C2_2  and  S1_4 
REMARK    2  A    between atoms: S1_4  and  N1_7 
REMARK    3  A    between atoms: N1_7  and  C4_9 
ROOT
HETATM    1  C4  UNL     1     -73.089 -48.401 -75.018  1.00  0.00     0.196 C 
HETATM    2  C5  UNL     1     -74.391 -48.138 -75.773  1.00  0.00     0.077 C 
HETATM    3  C6  UNL     1     -74.645 -49.148 -76.836  1.00  0.00     0.030 C 
HETATM    4  C7  UNL     1     -74.566 -48.448 -78.180  1.00  0.00     0.038 C 
HETATM    5  C8  UNL     1     -76.109 -49.591 -76.690  1.00  0.00     0.038 C 
HETATM    6  N2  UNL     1     -73.847 -50.334 -76.783  1.00  0.00    -0.354 N 
HETATM    7  C9  UNL     1     -73.506 -51.106 -77.983  1.00  0.00     0.153 C 
HETATM    8  C10 UNL     1     -73.373 -50.768 -75.512  1.00  0.00     0.171 C 
HETATM    9  S2  UNL     1     -73.061 -52.347 -75.242  1.00  0.00    -0.041 SA
HETATM   10  N3  UNL     1     -73.196 -49.761 -74.523  1.00  0.00    -0.345 N 
ATOM     11  H3  UNL     1     -73.147 -49.981 -73.528  1.00  0.00     0.164 HD
ENDROOT
BRANCH   1  12
HETATM   12  N1  UNL     1     -72.927 -47.469 -73.954  1.00  0.00    -0.297 N 
ATOM     13  H1  UNL     1     -73.671 -46.908 -73.541  1.00  0.00     0.174 HD
BRANCH  12  14
HETATM   14  S1  UNL     1     -71.271 -47.439 -73.475  1.00  0.00     0.231 S 
HETATM   15  O1  UNL     1     -70.882 -48.688 -72.722  1.00  0.00    -0.206 OA
HETATM   16  O2  UNL     1     -70.345 -47.346 -74.654  1.00  0.00    -0.206 OA
BRANCH  14  17
HETATM   17  C2  UNL     1     -71.037 -45.997 -72.427  1.00  0.00     0.121 C 
HETATM   18  C1  UNL     1     -70.685 -44.835 -73.312  1.00  0.00     0.027 C 
HETATM   19  C3  UNL     1     -69.915 -46.279 -71.427  1.00  0.00     0.027 C 
ENDBRANCH  14  17
ENDBRANCH  12  14
ENDBRANCH   1  12
TORSDOF 3
ENDMDL
MODEL 2
REMARK VINA RESULT: -6.312165555      1.178      1.499
REMARK  3 active torsions:
REMARK  status: ('A' for Active; 'I' for Inactive)
REMARK    1  A    between atoms: C2_2  and  S1_4 
REMARK    2  A    between atoms: S1_4  and  N1_7 
REMARK    3  A    between atoms: N1_7  and  C4_9 
ROOT
HETATM    1  C4  UNL     1     -73.394 -48.339 -74.753  1.00  0.00     0.196 C 
HETATM    2  C5  UNL     1     -74.661 -48.121 -75.578  1.00  0.00     0.077 C 
HETATM    3  C6  UNL     1     -74.766 -49.070 -76.719  1.00  0.00     0.030 C 
HETATM    4  C7  UNL     1     -74.656 -48.274 -78.006  1.00  0.00     0.038 C 
HETATM    5  C8  UNL     1     -76.196 -49.630 -76.704  1.00  0.00     0.038 C 
HETATM    6  N2  UNL     1     -73.882 -50.194 -76.688  1.00  0.00    -0.354 N 
HETATM    7  C9  UNL     1     -73.404 -50.853 -77.910  1.00  0.00     0.153 C 
HETATM    8  C10 UNL     1     -73.457 -50.680 -75.419  1.00  0.00     0.171 C 
HETATM    9  S2  UNL     1     -73.039 -52.247 -75.231  1.00  0.00    -0.041 SA
HETATM   10  N3  UNL     1     -73.424 -49.734 -74.357  1.00  0.00    -0.345 N 
ATOM     11  H3  UNL     1     -73.421 -50.020 -73.377  1.00  0.00     0.164 HD
ENDROOT
BRANCH   1  12
HETATM   12  N1  UNL     1     -73.374 -47.475 -73.622  1.00  0.00    -0.297 N 
ATOM     13  H1  UNL     1     -74.181 -46.981 -73.241  1.00  0.00     0.174 HD
BRANCH  12  14
HETATM   14  S1  UNL     1     -71.769 -47.394 -72.999  1.00  0.00     0.231 S 
HETATM   15  O1  UNL     1     -71.671 -46.458 -71.819  1.00  0.00    -0.206 OA
HETATM   16  O2  UNL     1     -71.282 -48.733 -72.521  1.00  0.00    -0.206 OA
BRANCH  14  17
HETATM   17  C2  UNL     1     -70.700 -46.818 -74.325  1.00  0.00     0.121 C 
HETATM   18  C1  UNL     1     -69.654 -47.869 -74.564  1.00  0.00     0.027 C 
HETATM   19  C3  UNL     1     -70.058 -45.493 -73.914  1.00  0.00     0.027 C 
ENDBRANCH  14  17
ENDBRANCH  12  14
ENDBRANCH   1  12
TORSDOF 3
ENDMDL
MODEL 3
REMARK VINA RESULT: -6.274234622      1.405      1.771
REMARK  3 active torsions:
REMARK  status: ('A' for Active; 'I' for Inactive)
REMARK    1  A    between atoms: C2_2  and  S1_4 
REMARK    2  A    between atoms: S1_4  and  N1_7 
REMARK    3  A    between atoms: N1_7  and  C4_9 
ROOT
HETATM    1  C4  UNL     1     -72.002 -48.382 -74.994  1.00  0.00     0.196 C 
HETATM    2  C5  UNL     1     -73.240 -48.402 -75.888  1.00  0.00     0.077 C 
HETATM    3  C6  UNL     1     -73.691 -49.784 -76.203  1.00  0.00     0.030 C 
HETATM    4  C7  UNL     1     -73.498 -50.016 -77.690  1.00  0.00     0.038 C 
HETATM    5  C8  UNL     1     -75.211 -49.820 -75.977  1.00  0.00     0.038 C 
HETATM    6  N2  UNL     1     -73.130 -50.829 -75.404  1.00  0.00    -0.354 N 
HETATM    7  C9  UNL     1     -72.953 -52.196 -75.908  1.00  0.00     0.153 C 
HETATM    8  C10 UNL     1     -72.731 -50.516 -74.074  1.00  0.00     0.171 C 
HETATM    9  S2  UNL     1     -72.717 -51.672 -72.921  1.00  0.00    -0.041 SA
HETATM   10  N3  UNL     1     -72.356 -49.166 -73.825  1.00  0.00    -0.345 N 
ATOM     11  H3  UNL     1     -72.337 -48.774 -72.883  1.00  0.00     0.164 HD
ENDROOT
BRANCH   1  12
HETATM   12  N1  UNL     1     -71.655 -47.048 -74.642  1.00  0.00    -0.297 N 
ATOM     13  H1  UNL     1     -71.885 -46.215 -75.185  1.00  0.00     0.174 HD
BRANCH  12  14
HETATM   14  S1  UNL     1     -70.784 -47.061 -73.155  1.00  0.00     0.231 S 
HETATM   15  O1  UNL     1     -71.704 -47.195 -71.966  1.00  0.00    -0.206 OA
HETATM   16  O2  UNL     1     -69.818 -48.209 -73.078  1.00  0.00    -0.206 OA
BRANCH  14  17
HETATM   17  C2  UNL     1     -69.871 -45.516 -73.048  1.00  0.00     0.121 C 
HETATM   18  C1  UNL     1     -69.838 -45.097 -71.606  1.00  0.00     0.027 C 
HETATM   19  C3  UNL     1     -70.567 -44.459 -73.906  1.00  0.00     0.027 C 
ENDBRANCH  14  17
ENDBRANCH  12  14
ENDBRANCH   1  12
TORSDOF 3
ENDMDL
MODEL 4
REMARK VINA RESULT: -6.244871873      4.482      5.640
REMARK  3 active torsions:
REMARK  status: ('A' for Active; 'I' for Inactive)
REMARK    1  A    between atoms: C2_2  and  S1_4 
REMARK    2  A    between atoms: S1_4  and  N1_7 
REMARK    3  A    between atoms: N1_7  and  C4_9 
ROOT
HETATM    1  C4  UNL     1     -69.554 -50.091 -71.781  1.00  0.00     0.196 C 
HETATM    2  C5  UNL     1     -70.172 -48.712 -72.007  1.00  0.00     0.077 C 
HETATM    3  C6  UNL     1     -71.386 -48.768 -72.865  1.00  0.00     0.030 C 
HETATM    4  C7  UNL     1     -71.079 -48.048 -74.165  1.00  0.00     0.038 C 
HETATM    5  C8  UNL     1     -72.462 -47.919 -72.171  1.00  0.00     0.038 C 
HETATM    6  N2  UNL     1     -71.953 -50.064 -73.073  1.00  0.00    -0.354 N 
HETATM    7  C9  UNL     1     -72.701 -50.410 -74.288  1.00  0.00     0.153 C 
HETATM    8  C10 UNL     1     -71.778 -51.045 -72.056  1.00  0.00     0.171 C 
HETATM    9  S2  UNL     1     -72.867 -52.246 -71.868  1.00  0.00    -0.041 SA
HETATM   10  N3  UNL     1     -70.622 -50.910 -71.238  1.00  0.00    -0.345 N 
ATOM     11  H3  UNL     1     -70.548 -51.361 -70.325  1.00  0.00     0.164 HD
ENDROOT
BRANCH   1  12
HETATM   12  N1  UNL     1     -68.451 -50.009 -70.886  1.00  0.00    -0.297 N 
ATOM     13  H1  UNL     1     -68.138 -49.164 -70.410  1.00  0.00     0.174 HD
BRANCH  12  14
HETATM   14  S1  UNL     1     -67.727 -51.566 -70.734  1.00  0.00     0.231 S 
HETATM   15  O1  UNL     1     -68.701 -52.591 -70.208  1.00  0.00    -0.206 OA
HETATM   16  O2  UNL     1     -67.230 -52.087 -72.054  1.00  0.00    -0.206 OA
BRANCH  14  17
HETATM   17  C2  UNL     1     -66.337 -51.409 -69.604  1.00  0.00     0.121 C 
HETATM   18  C1  UNL     1     -66.485 -50.108 -68.867  1.00  0.00     0.027 C 
HETATM   19  C3  UNL     1     -65.034 -51.437 -70.402  1.00  0.00     0.027 C 
ENDBRANCH  14  17
ENDBRANCH  12  14
ENDBRANCH   1  12
TORSDOF 3
ENDMDL
MODEL 5
REMARK VINA RESULT: -5.993110537      2.600      5.789
REMARK  3 active torsions:
REMARK  status: ('A' for Active; 'I' for Inactive)
REMARK    1  A    between atoms: C2_2  and  S1_4 
REMARK    2  A    between atoms: S1_4  and  N1_7 
REMARK    3  A    between atoms: N1_7  and  C4_9 
ROOT
HETATM    1  C4  UNL     1     -72.363 -48.159 -75.239  1.00  0.00     0.196 C 
HETATM    2  C5  UNL     1     -73.038 -48.581 -73.934  1.00  0.00     0.077 C 
HETATM    3  C6  UNL     1     -72.090 -48.616 -72.789  1.00  0.00     0.030 C 
HETATM    4  C7  UNL     1     -71.944 -50.058 -72.341  1.00  0.00     0.038 C 
HETATM    5  C8  UNL     1     -72.775 -47.890 -71.621  1.00  0.00     0.038 C 
HETATM    6  N2  UNL     1     -70.829 -47.971 -72.994  1.00  0.00    -0.354 N 
HETATM    7  C9  UNL     1     -69.607 -48.395 -72.299  1.00  0.00     0.153 C 
HETATM    8  C10 UNL     1     -70.773 -46.881 -73.908  1.00  0.00     0.171 C 
HETATM    9  S2  UNL     1     -69.647 -45.712 -73.733  1.00  0.00    -0.041 SA
HETATM   10  N3  UNL     1     -71.737 -46.881 -74.954  1.00  0.00    -0.345 N 
ATOM     11  H3  UNL     1     -71.974 -46.034 -75.473  1.00  0.00     0.164 HD
ENDROOT
BRANCH   1  12
HETATM   12  N1  UNL     1     -73.317 -48.051 -76.289  1.00  0.00    -0.297 N 
ATOM     13  H1  UNL     1     -73.736 -47.183 -76.620  1.00  0.00     0.174 HD
BRANCH  12  14
HETATM   14  S1  UNL     1     -73.652 -49.622 -76.913  1.00  0.00     0.231 S 
HETATM   15  O1  UNL     1     -72.935 -49.874 -78.217  1.00  0.00    -0.206 OA
HETATM   16  O2  UNL     1     -73.216 -50.708 -75.970  1.00  0.00    -0.206 OA
BRANCH  14  17
HETATM   17  C2  UNL     1     -75.429 -49.739 -77.163  1.00  0.00     0.121 C 
HETATM   18  C1  UNL     1     -76.076 -48.610 -76.412  1.00  0.00     0.027 C 
HETATM   19  C3  UNL     1     -75.922 -51.090 -76.646  1.00  0.00     0.027 C 
ENDBRANCH  14  17
ENDBRANCH  12  14
ENDBRANCH   1  12
TORSDOF 3
ENDMDL
