MODEL 1
REMARK VINA RESULT: -7.878938472      0.000      0.000
REMARK  5 active torsions:
REMARK  status: ('A' for Active; 'I' for Inactive)
REMARK    1  A    between atoms: N1_1  and  C1_5 
REMARK    2  A    between atoms: C1_5  and  C2_6 
REMARK    3  A    between atoms: C2_6  and  N2_8 
REMARK    4  A    between atoms: N2_8  and  C3_10 
REMARK    5  A    between atoms: C3_10  and  C4_11 
ROOT
HETATM    1  C4  UNL     1     -15.631  18.464  21.998  1.00  0.00     0.169 C 
HETATM    2  C5  UNL     1     -16.620  17.316  22.258  1.00  0.00     0.156 C 
HETATM    3  N3  UNL     1     -16.845  16.693  20.967  1.00  0.00    -0.357 N 
ATOM      4  H3  UNL     1     -16.455  17.116  20.125  1.00  0.00     0.162 HD
HETATM    5  C6  UNL     1     -17.614  15.482  20.866  1.00  0.00     0.235 C 
HETATM    6  O1  UNL     1     -17.298  14.651  19.976  1.00  0.00    -0.272 OA
HETATM    7  C7  UNL     1     -18.756  15.193  21.774  1.00  0.00     0.225 C 
HETATM    8  N4  UNL     1     -19.600  14.190  21.166  1.00  0.00    -0.352 N 
ATOM      9  H4  UNL     1     -19.425  13.211  21.391  1.00  0.00     0.162 HD
HETATM   10  C8  UNL     1     -20.658  14.493  20.274  1.00  0.00     0.217 C 
HETATM   11  O2  UNL     1     -20.984  13.715  19.334  1.00  0.00    -0.274 OA
HETATM   12  C9  UNL     1     -21.436  15.758  20.413  1.00  0.00     0.103 C 
HETATM   13  C10 UNL     1     -20.970  16.829  19.471  1.00  0.00     0.009 C 
HETATM   14  C11 UNL     1     -22.160  17.610  18.899  1.00  0.00     0.002 C 
HETATM   15  C12 UNL     1     -21.795  18.200  17.554  1.00  0.00     0.020 C 
HETATM   16  C13 UNL     1     -22.193  19.680  17.486  1.00  0.00     0.122 C 
HETATM   17  N5  UNL     1     -21.186  20.427  16.763  1.00  0.00    -0.361 N 
ATOM     18  H5  UNL     1     -21.420  20.812  15.848  1.00  0.00     0.162 HD
HETATM   19  C14 UNL     1     -19.897  20.639  17.280  1.00  0.00     0.217 C 
HETATM   20  O3  UNL     1     -18.893  20.658  16.508  1.00  0.00    -0.274 OA
HETATM   21  C15 UNL     1     -19.690  20.844  18.739  1.00  0.00     0.103 C 
HETATM   22  C16 UNL     1     -18.208  20.998  19.038  1.00  0.00     0.011 C 
HETATM   23  C17 UNL     1     -18.049  21.175  20.522  1.00  0.00     0.020 C 
HETATM   24  C18 UNL     1     -16.799  21.935  20.896  1.00  0.00     0.125 C 
HETATM   25  N6  UNL     1     -15.595  21.344  20.391  1.00  0.00    -0.337 N 
ATOM     26  H6  UNL     1     -14.792  21.963  20.287  1.00  0.00     0.164 HD
HETATM   27  C19 UNL     1     -15.403  19.986  20.021  1.00  0.00     0.361 C 
HETATM   28  O4  UNL     1     -14.715  19.827  18.945  1.00  0.00    -0.239 OA
HETATM   29  O5  UNL     1     -15.907  18.959  20.746  1.00  0.00    -0.295 OA
ENDROOT
BRANCH   1  30
HETATM   30  C3  UNL     1     -15.757  19.412  23.133  1.00  0.00     0.154 C 
BRANCH  30  31
HETATM   31  N2  UNL     1     -14.428  19.744  23.634  1.00  0.00    -0.380 N 
ATOM     32  H2  UNL     1     -13.616  19.264  23.245  1.00  0.00     0.160 HD
BRANCH  31  33
HETATM   33  C2  UNL     1     -14.236  20.714  24.646  1.00  0.00     0.099 C 
HETATM   34  S1  UNL     1     -15.329  21.897  24.854  1.00  0.00    -0.064 SA
BRANCH  33  35
HETATM   35  C1  UNL     1     -13.050  20.674  25.527  1.00  0.00     0.298 C 
BRANCH  35  36
HETATM   36  N1  UNL     1     -12.192  19.566  25.253  1.00  0.00    -0.073 N 
ATOM     37  H13 UNL     1     -11.694  19.701  24.373  1.00  0.00     0.274 HD
ATOM     38  H12 UNL     1     -11.398  19.554  25.892  1.00  0.00     0.274 HD
ATOM     39  H11 UNL     1     -12.682  18.672  25.262  1.00  0.00     0.274 HD
ENDBRANCH  35  36
ENDBRANCH  33  35
ENDBRANCH  31  33
ENDBRANCH  30  31
ENDBRANCH   1  30
TORSDOF 5
ENDMDL
MODEL 2
REMARK VINA RESULT: -7.872357779      6.116      9.021
REMARK  5 active torsions:
REMARK  status: ('A' for Active; 'I' for Inactive)
REMARK    1  A    between atoms: N1_1  and  C1_5 
REMARK    2  A    between atoms: C1_5  and  C2_6 
REMARK    3  A    between atoms: C2_6  and  N2_8 
REMARK    4  A    between atoms: N2_8  and  C3_10 
REMARK    5  A    between atoms: C3_10  and  C4_11 
ROOT
HETATM    1  C4  UNL     1     -22.016  18.694  15.872  1.00  0.00     0.169 C 
HETATM    2  C5  UNL     1     -22.245  17.689  17.013  1.00  0.00     0.156 C 
HETATM    3  N3  UNL     1     -20.948  17.498  17.633  1.00  0.00    -0.357 N 
ATOM      4  H3  UNL     1     -20.118  17.917  17.211  1.00  0.00     0.162 HD
HETATM    5  C6  UNL     1     -20.821  16.724  18.838  1.00  0.00     0.235 C 
HETATM    6  O1  UNL     1     -19.939  17.061  19.669  1.00  0.00    -0.272 OA
HETATM    7  C7  UNL     1     -21.694  15.554  19.120  1.00  0.00     0.225 C 
HETATM    8  N4  UNL     1     -21.060  14.721  20.116  1.00  0.00    -0.352 N 
ATOM      9  H4  UNL     1     -21.288  14.883  21.096  1.00  0.00     0.162 HD
HETATM   10  C8  UNL     1     -20.137  13.693  19.804  1.00  0.00     0.217 C 
HETATM   11  O2  UNL     1     -19.187  13.389  20.578  1.00  0.00    -0.274 OA
HETATM   12  C9  UNL     1     -20.255  12.920  18.534  1.00  0.00     0.103 C 
HETATM   13  C10 UNL     1     -19.329  13.421  17.465  1.00  0.00     0.009 C 
HETATM   14  C11 UNL     1     -18.724  12.254  16.674  1.00  0.00     0.002 C 
HETATM   15  C12 UNL     1     -17.391  12.663  16.084  1.00  0.00     0.020 C 
HETATM   16  C13 UNL     1     -17.314  12.277  14.602  1.00  0.00     0.122 C 
HETATM   17  N5  UNL     1     -16.622  13.311  13.861  1.00  0.00    -0.361 N 
ATOM     18  H5  UNL     1     -15.702  13.107  13.473  1.00  0.00     0.162 HD
HETATM   19  C14 UNL     1     -17.178  14.585  13.659  1.00  0.00     0.217 C 
HETATM   20  O3  UNL     1     -16.437  15.612  13.646  1.00  0.00    -0.274 OA
HETATM   21  C15 UNL     1     -18.643  14.750  13.458  1.00  0.00     0.103 C 
HETATM   22  C16 UNL     1     -18.986  16.224  13.315  1.00  0.00     0.011 C 
HETATM   23  C17 UNL     1     -20.474  16.340  13.141  1.00  0.00     0.020 C 
HETATM   24  C18 UNL     1     -20.886  17.583  12.391  1.00  0.00     0.125 C 
HETATM   25  N6  UNL     1     -20.417  18.797  12.990  1.00  0.00    -0.337 N 
ATOM     26  H6  UNL     1     -20.338  19.608  12.376  1.00  0.00     0.164 HD
HETATM   27  C19 UNL     1     -20.050  18.991  14.348  1.00  0.00     0.361 C 
HETATM   28  O4  UNL     1     -18.995  19.710  14.510  1.00  0.00    -0.239 OA
HETATM   29  O5  UNL     1     -20.758  18.459  15.373  1.00  0.00    -0.295 OA
ENDROOT
BRANCH   1  30
HETATM   30  C3  UNL     1     -23.149  18.541  14.925  1.00  0.00     0.154 C 
BRANCH  30  31
HETATM   31  N2  UNL     1     -23.614  19.860  14.511  1.00  0.00    -0.380 N 
ATOM     32  H2  UNL     1     -23.197  20.689  14.934  1.00  0.00     0.160 HD
BRANCH  31  33
HETATM   33  C2  UNL     1     -24.629  20.019  13.538  1.00  0.00     0.099 C 
HETATM   34  S1  UNL     1     -24.801  18.918  12.357  1.00  0.00    -0.064 SA
BRANCH  33  35
HETATM   35  C1  UNL     1     -25.544  21.179  13.573  1.00  0.00     0.298 C 
BRANCH  35  36
HETATM   36  N1  UNL     1     -25.274  22.068  14.657  1.00  0.00    -0.073 N 
ATOM     37  H13 UNL     1     -24.270  22.191  14.785  1.00  0.00     0.274 HD
ATOM     38  H12 UNL     1     -25.529  23.025  14.415  1.00  0.00     0.274 HD
ATOM     39  H11 UNL     1     -25.721  21.780  15.527  1.00  0.00     0.274 HD
ENDBRANCH  35  36
ENDBRANCH  33  35
ENDBRANCH  31  33
ENDBRANCH  30  31
ENDBRANCH   1  30
TORSDOF 5
ENDMDL
MODEL 3
REMARK VINA RESULT: -7.872314155      6.112      8.970
REMARK  5 active torsions:
REMARK  status: ('A' for Active; 'I' for Inactive)
REMARK    1  A    between atoms: N1_1  and  C1_5 
REMARK    2  A    between atoms: C1_5  and  C2_6 
REMARK    3  A    between atoms: C2_6  and  N2_8 
REMARK    4  A    between atoms: N2_8  and  C3_10 
REMARK    5  A    between atoms: C3_10  and  C4_11 
ROOT
HETATM    1  C4  UNL     1     -15.887  12.299  15.714  1.00  0.00     0.169 C 
HETATM    2  C5  UNL     1     -17.000  12.057  16.747  1.00  0.00     0.156 C 
HETATM    3  N3  UNL     1     -17.638  13.345  16.945  1.00  0.00    -0.357 N 
ATOM      4  H3  UNL     1     -17.240  14.179  16.511  1.00  0.00     0.162 HD
HETATM    5  C6  UNL     1     -18.826  13.456  17.747  1.00  0.00     0.235 C 
HETATM    6  O1  UNL     1     -19.681  14.321  17.425  1.00  0.00    -0.272 OA
HETATM    7  C7  UNL     1     -19.065  12.587  18.929  1.00  0.00     0.225 C 
HETATM    8  N4  UNL     1     -20.051  13.209  19.781  1.00  0.00    -0.352 N 
ATOM      9  H4  UNL     1     -21.031  12.962  19.645  1.00  0.00     0.162 HD
HETATM   10  C8  UNL     1     -19.731  14.144  20.796  1.00  0.00     0.217 C 
HETATM   11  O2  UNL     1     -20.515  15.083  21.111  1.00  0.00    -0.274 OA
HETATM   12  C9  UNL     1     -18.441  14.054  21.539  1.00  0.00     0.103 C 
HETATM   13  C10 UNL     1     -17.401  14.995  21.007  1.00  0.00     0.009 C 
HETATM   14  C11 UNL     1     -16.594  15.622  22.150  1.00  0.00     0.002 C 
HETATM   15  C12 UNL     1     -16.037  16.962  21.718  1.00  0.00     0.020 C 
HETATM   16  C13 UNL     1     -14.547  17.068  22.068  1.00  0.00     0.122 C 
HETATM   17  N5  UNL     1     -13.844  17.765  21.012  1.00  0.00    -0.361 N 
ATOM     18  H5  UNL     1     -13.467  18.693  21.201  1.00  0.00     0.162 HD
HETATM   19  C14 UNL     1     -13.662  17.204  19.737  1.00  0.00     0.217 C 
HETATM   20  O3  UNL     1     -13.687  17.938  18.705  1.00  0.00    -0.274 OA
HETATM   21  C15 UNL     1     -13.439  15.741  19.576  1.00  0.00     0.103 C 
HETATM   22  C16 UNL     1     -13.326  15.390  18.103  1.00  0.00     0.011 C 
HETATM   23  C17 UNL     1     -13.129  13.905  17.992  1.00  0.00     0.020 C 
HETATM   24  C18 UNL     1     -12.401  13.497  16.733  1.00  0.00     0.125 C 
HETATM   25  N6  UNL     1     -13.037  13.948  15.531  1.00  0.00    -0.337 N 
ATOM     26  H6  UNL     1     -12.444  14.032  14.706  1.00  0.00     0.164 HD
HETATM   27  C19 UNL     1     -14.406  14.289  15.368  1.00  0.00     0.361 C 
HETATM   28  O4  UNL     1     -14.604  15.337  14.646  1.00  0.00    -0.239 OA
HETATM   29  O5  UNL     1     -15.405  13.567  15.929  1.00  0.00    -0.295 OA
ENDROOT
BRANCH   1  30
HETATM   30  C3  UNL     1     -14.917  11.184  15.852  1.00  0.00     0.154 C 
BRANCH  30  31
HETATM   31  N2  UNL     1     -14.526  10.718  14.526  1.00  0.00    -0.380 N 
ATOM     32  H2  UNL     1     -14.951  11.146  13.704  1.00  0.00     0.160 HD
BRANCH  31  33
HETATM   33  C2  UNL     1     -13.571   9.688  14.352  1.00  0.00     0.099 C 
HETATM   34  S1  UNL     1     -12.441   9.428  15.488  1.00  0.00    -0.064 SA
BRANCH  33  35
HETATM   35  C1  UNL     1     -13.581   8.835  13.145  1.00  0.00     0.298 C 
BRANCH  35  36
HETATM   36  N1  UNL     1     -14.717   9.065  12.311  1.00  0.00    -0.073 N 
ATOM     37  H13 UNL     1     -15.499   9.432  12.853  1.00  0.00     0.274 HD
ATOM     38  H12 UNL     1     -14.558   9.859  11.690  1.00  0.00     0.274 HD
ATOM     39  H11 UNL     1     -14.995   8.239  11.782  1.00  0.00     0.274 HD
ENDBRANCH  35  36
ENDBRANCH  33  35
ENDBRANCH  31  33
ENDBRANCH  30  31
ENDBRANCH   1  30
TORSDOF 5
ENDMDL
MODEL 4
REMARK VINA RESULT: -7.813441317      6.444      9.789
REMARK  5 active torsions:
REMARK  status: ('A' for Active; 'I' for Inactive)
REMARK    1  A    between atoms: N1_1  and  C1_5 
REMARK    2  A    between atoms: C1_5  and  C2_6 
REMARK    3  A    between atoms: C2_6  and  N2_8 
REMARK    4  A    between atoms: N2_8  and  C3_10 
REMARK    5  A    between atoms: C3_10  and  C4_11 
ROOT
HETATM    1  C4  UNL     1     -18.025  12.969  14.364  1.00  0.00     0.169 C 
HETATM    2  C5  UNL     1     -18.961  13.959  13.649  1.00  0.00     0.156 C 
HETATM    3  N3  UNL     1     -18.694  15.253  14.249  1.00  0.00    -0.357 N 
ATOM      4  H3  UNL     1     -18.074  15.318  15.057  1.00  0.00     0.162 HD
HETATM    5  C6  UNL     1     -19.297  16.443  13.713  1.00  0.00     0.235 C 
HETATM    6  O1  UNL     1     -18.641  17.516  13.768  1.00  0.00    -0.272 OA
HETATM    7  C7  UNL     1     -20.653  16.437  13.105  1.00  0.00     0.225 C 
HETATM    8  N4  UNL     1     -21.170  17.786  13.091  1.00  0.00    -0.352 N 
ATOM      9  H4  UNL     1     -21.012  18.355  12.260  1.00  0.00     0.162 HD
HETATM   10  C8  UNL     1     -21.886  18.361  14.170  1.00  0.00     0.217 C 
HETATM   11  O2  UNL     1     -21.821  19.594  14.433  1.00  0.00    -0.274 OA
HETATM   12  C9  UNL     1     -22.753  17.521  15.046  1.00  0.00     0.103 C 
HETATM   13  C10 UNL     1     -22.076  17.131  16.326  1.00  0.00     0.009 C 
HETATM   14  C11 UNL     1     -23.057  17.187  17.504  1.00  0.00     0.002 C 
HETATM   15  C12 UNL     1     -22.304  17.428  18.795  1.00  0.00     0.020 C 
HETATM   16  C13 UNL     1     -22.760  16.443  19.879  1.00  0.00     0.122 C 
HETATM   17  N5  UNL     1     -21.624  16.027  20.674  1.00  0.00    -0.361 N 
ATOM     18  H5  UNL     1     -21.564  16.332  21.645  1.00  0.00     0.162 HD
HETATM   19  C14 UNL     1     -20.603  15.216  20.152  1.00  0.00     0.217 C 
HETATM   20  O3  UNL     1     -19.402  15.386  20.517  1.00  0.00    -0.274 OA
HETATM   21  C15 UNL     1     -20.913  14.148  19.163  1.00  0.00     0.103 C 
HETATM   22  C16 UNL     1     -19.633  13.459  18.723  1.00  0.00     0.011 C 
HETATM   23  C17 UNL     1     -19.994  12.410  17.709  1.00  0.00     0.020 C 
HETATM   24  C18 UNL     1     -19.000  11.276  17.652  1.00  0.00     0.125 C 
HETATM   25  N6  UNL     1     -17.658  11.701  17.386  1.00  0.00    -0.337 N 
ATOM     26  H6  UNL     1     -16.912  11.074  17.687  1.00  0.00     0.164 HD
HETATM   27  C19 UNL     1     -17.256  12.905  16.747  1.00  0.00     0.361 C 
HETATM   28  O4  UNL     1     -16.237  13.473  17.291  1.00  0.00    -0.239 OA
HETATM   29  O5  UNL     1     -17.900  13.399  15.663  1.00  0.00    -0.295 OA
ENDROOT
BRANCH   1  30
HETATM   30  C3  UNL     1     -18.593  11.612  14.162  1.00  0.00     0.154 C 
BRANCH  30  31
HETATM   31  N2  UNL     1     -20.049  11.699  14.126  1.00  0.00    -0.380 N 
ATOM     32  H2  UNL     1     -20.496  12.606  14.264  1.00  0.00     0.160 HD
BRANCH  31  33
HETATM   33  C2  UNL     1     -20.857  10.559  13.906  1.00  0.00     0.099 C 
HETATM   34  S1  UNL     1     -20.334   9.370  12.932  1.00  0.00    -0.064 SA
BRANCH  33  35
HETATM   35  C1  UNL     1     -22.180  10.425  14.550  1.00  0.00     0.298 C 
BRANCH  35  36
HETATM   36  N1  UNL     1     -23.253  10.372  13.610  1.00  0.00    -0.073 N 
ATOM     37  H13 UNL     1     -23.049   9.710  12.862  1.00  0.00     0.274 HD
ATOM     38  H12 UNL     1     -24.071   9.918  14.016  1.00  0.00     0.274 HD
ATOM     39  H11 UNL     1     -23.494  11.288  13.231  1.00  0.00     0.274 HD
ENDBRANCH  35  36
ENDBRANCH  33  35
ENDBRANCH  31  33
ENDBRANCH  30  31
ENDBRANCH   1  30
TORSDOF 5
ENDMDL
MODEL 5
REMARK VINA RESULT: -7.800828262      2.998      7.711
REMARK  5 active torsions:
REMARK  status: ('A' for Active; 'I' for Inactive)
REMARK    1  A    between atoms: N1_1  and  C1_5 
REMARK    2  A    between atoms: C1_5  and  C2_6 
REMARK    3  A    between atoms: C2_6  and  N2_8 
REMARK    4  A    between atoms: N2_8  and  C3_10 
REMARK    5  A    between atoms: C3_10  and  C4_11 
ROOT
HETATM    1  C4  UNL     1     -21.090  20.042  17.852  1.00  0.00     0.169 C 
HETATM    2  C5  UNL     1     -20.118  20.720  18.833  1.00  0.00     0.156 C 
HETATM    3  N3  UNL     1     -18.842  20.059  18.638  1.00  0.00    -0.357 N 
ATOM      4  H3  UNL     1     -18.781  19.243  18.027  1.00  0.00     0.162 HD
HETATM    5  C6  UNL     1     -17.660  20.546  19.298  1.00  0.00     0.235 C 
HETATM    6  O1  UNL     1     -16.559  20.435  18.700  1.00  0.00    -0.272 OA
HETATM    7  C7  UNL     1     -17.709  21.166  20.648  1.00  0.00     0.225 C 
HETATM    8  N4  UNL     1     -16.389  21.122  21.235  1.00  0.00    -0.352 N 
ATOM      9  H4  UNL     1     -15.774  21.925  21.100  1.00  0.00     0.162 HD
HETATM   10  C8  UNL     1     -15.902  20.024  21.986  1.00  0.00     0.217 C 
HETATM   11  O2  UNL     1     -14.680  19.704  21.987  1.00  0.00    -0.274 OA
HETATM   12  C9  UNL     1     -16.825  19.196  22.814  1.00  0.00     0.103 C 
HETATM   13  C10 UNL     1     -17.238  17.929  22.126  1.00  0.00     0.009 C 
HETATM   14  C11 UNL     1     -17.287  16.758  23.116  1.00  0.00     0.002 C 
HETATM   15  C12 UNL     1     -17.067  15.451  22.385  1.00  0.00     0.020 C 
HETATM   16  C13 UNL     1     -18.123  14.417  22.797  1.00  0.00     0.122 C 
HETATM   17  N5  UNL     1     -18.516  13.631  21.646  1.00  0.00    -0.361 N 
ATOM     18  H5  UNL     1     -18.254  12.647  21.608  1.00  0.00     0.162 HD
HETATM   19  C14 UNL     1     -19.248  14.181  20.580  1.00  0.00     0.217 C 
HETATM   20  O3  UNL     1     -19.034  13.798  19.392  1.00  0.00    -0.274 OA
HETATM   21  C15 UNL     1     -20.284  15.220  20.828  1.00  0.00     0.103 C 
HETATM   22  C16 UNL     1     -20.885  15.681  19.511  1.00  0.00     0.011 C 
HETATM   23  C17 UNL     1     -21.904  16.744  19.811  1.00  0.00     0.020 C 
HETATM   24  C18 UNL     1     -22.982  16.844  18.758  1.00  0.00     0.125 C 
HETATM   25  N6  UNL     1     -22.476  17.079  17.438  1.00  0.00    -0.337 N 
ATOM     26  H6  UNL     1     -23.077  16.800  16.664  1.00  0.00     0.164 HD
HETATM   27  C19 UNL     1     -21.225  17.658  17.096  1.00  0.00     0.361 C 
HETATM   28  O4  UNL     1     -20.630  17.080  16.111  1.00  0.00    -0.239 OA
HETATM   29  O5  UNL     1     -20.715  18.725  17.757  1.00  0.00    -0.295 OA
ENDROOT
BRANCH   1  30
HETATM   30  C3  UNL     1     -22.464  20.311  18.347  1.00  0.00     0.154 C 
BRANCH  30  31
HETATM   31  N2  UNL     1     -22.445  20.386  19.804  1.00  0.00    -0.380 N 
ATOM     32  H2  UNL     1     -21.548  20.388  20.289  1.00  0.00     0.160 HD
BRANCH  31  33
HETATM   33  C2  UNL     1     -23.639  20.455  20.560  1.00  0.00     0.099 C 
HETATM   34  S1  UNL     1     -24.807  21.501  20.138  1.00  0.00    -0.064 SA
BRANCH  33  35
HETATM   35  C1  UNL     1     -23.847  19.588  21.738  1.00  0.00     0.298 C 
BRANCH  35  36
HETATM   36  N1  UNL     1     -24.029  20.326  22.947  1.00  0.00    -0.073 N 
ATOM     37  H13 UNL     1     -24.971  20.712  23.000  1.00  0.00     0.274 HD
ATOM     38  H12 UNL     1     -24.058  19.703  23.753  1.00  0.00     0.274 HD
ATOM     39  H11 UNL     1     -23.328  21.056  23.075  1.00  0.00     0.274 HD
ENDBRANCH  35  36
ENDBRANCH  33  35
ENDBRANCH  31  33
ENDBRANCH  30  31
ENDBRANCH   1  30
TORSDOF 5
ENDMDL
