MODEL 1
REMARK VINA RESULT: -7.601102868      0.000      0.000
REMARK  7 active torsions:
REMARK  status: ('A' for Active; 'I' for Inactive)
REMARK    1  A    between atoms: S1_2  and  N1_4 
REMARK    2  A    between atoms: S1_2  and  C7_15 
REMARK    3  A    between atoms: N1_4  and  C1_6 
REMARK    4  A    between atoms: C1_6  and  C2_7 
REMARK    5  A    between atoms: C2_7  and  C3_8 
REMARK    6  A    between atoms: C3_8  and  N2_9 
REMARK    7  A    between atoms: C10_18  and  C11_19 
ROOT
HETATM    1  O1  UNL     1      15.233 -47.699   4.772  1.00  0.00    -0.200 OA
HETATM    2  S1  UNL     1      13.796 -47.347   4.528  1.00  0.00     0.260 S 
HETATM    3  O2  UNL     1      12.970 -48.586   4.744  1.00  0.00    -0.200 OA
ENDROOT
BRANCH   2   4
HETATM    4  N1  UNL     1      13.611 -46.746   2.918  1.00  0.00    -0.315 N 
ATOM      5  H1  UNL     1      12.723 -46.435   2.524  1.00  0.00     0.172 HD
BRANCH   4   6
HETATM    6  C1  UNL     1      14.860 -46.737   2.202  1.00  0.00     0.134 C 
BRANCH   6   7
HETATM    7  C2  UNL     1      14.905 -47.990   1.354  1.00  0.00     0.040 C 
BRANCH   7   8
HETATM    8  C3  UNL     1      16.215 -48.737   1.531  1.00  0.00     0.131 C 
BRANCH   8   9
HETATM    9  N2  UNL     1      17.316 -48.104   0.866  1.00  0.00    -0.352 N 
HETATM   10  C4  UNL     1      17.491 -47.845  -0.442  1.00  0.00     0.108 A 
HETATM   11  C5  UNL     1      18.701 -47.219  -0.646  1.00  0.00     0.106 A 
HETATM   12  N3  UNL     1      19.270 -47.096   0.559  1.00  0.00    -0.361 N 
HETATM   13  C6  UNL     1      18.430 -47.630   1.452  1.00  0.00     0.182 A 
ATOM     14  H3  UNL     1      20.176 -46.673   0.759  1.00  0.00     0.166 HD
ENDBRANCH   8   9
ENDBRANCH   7   8
ENDBRANCH   6   7
ENDBRANCH   4   6
ENDBRANCH   2   4
BRANCH   2  15
HETATM   15  C7  UNL     1      13.345 -46.066   5.622  1.00  0.00     0.094 A 
HETATM   16  C8  UNL     1      14.305 -45.571   6.475  1.00  0.00     0.029 A 
HETATM   17  C9  UNL     1      13.936 -44.554   7.340  1.00  0.00     0.032 A 
HETATM   18  C10 UNL     1      12.680 -44.011   7.401  1.00  0.00     0.042 A 
HETATM   19  N4  UNL     1      11.763 -44.537   6.533  1.00  0.00    -0.364 N 
HETATM   20  C17 UNL     1      12.083 -45.524   5.679  1.00  0.00     0.113 A 
ATOM     21  H4  UNL     1      10.812 -44.171   6.534  1.00  0.00     0.165 HD
BRANCH  18  22
HETATM   22  C11 UNL     1      12.271 -42.941   8.303  1.00  0.00    -0.009 A 
HETATM   23  C12 UNL     1      13.121 -41.875   8.576  1.00  0.00     0.013 A 
HETATM   24  C13 UNL     1      12.757 -40.853   9.424  1.00  0.00     0.001 A 
HETATM   25  C14 UNL     1      11.526 -40.847  10.039  1.00  0.00     0.000 A 
HETATM   26  C15 UNL     1      10.672 -41.892   9.779  1.00  0.00     0.001 A 
HETATM   27  C16 UNL     1      11.044 -42.929   8.918  1.00  0.00     0.013 A 
ENDBRANCH  18  22
ENDBRANCH   2  15
TORSDOF 7
ENDMDL
MODEL 2
REMARK VINA RESULT: -7.597131662      3.179      5.028
REMARK  7 active torsions:
REMARK  status: ('A' for Active; 'I' for Inactive)
REMARK    1  A    between atoms: S1_2  and  N1_4 
REMARK    2  A    between atoms: S1_2  and  C7_15 
REMARK    3  A    between atoms: N1_4  and  C1_6 
REMARK    4  A    between atoms: C1_6  and  C2_7 
REMARK    5  A    between atoms: C2_7  and  C3_8 
REMARK    6  A    between atoms: C3_8  and  N2_9 
REMARK    7  A    between atoms: C10_18  and  C11_19 
ROOT
HETATM    1  O1  UNL     1      14.456 -46.566   5.852  1.00  0.00    -0.200 OA
HETATM    2  S1  UNL     1      13.083 -46.259   5.331  1.00  0.00     0.260 S 
HETATM    3  O2  UNL     1      12.250 -47.507   5.449  1.00  0.00    -0.200 OA
ENDROOT
BRANCH   2   4
HETATM    4  N1  UNL     1      13.190 -45.732   3.689  1.00  0.00    -0.315 N 
ATOM      5  H1  UNL     1      12.436 -45.827   3.009  1.00  0.00     0.172 HD
BRANCH   4   6
HETATM    6  C1  UNL     1      14.471 -45.143   3.396  1.00  0.00     0.134 C 
BRANCH   6   7
HETATM    7  C2  UNL     1      14.270 -43.645   3.304  1.00  0.00     0.040 C 
BRANCH   7   8
HETATM    8  C3  UNL     1      14.867 -42.927   4.502  1.00  0.00     0.131 C 
BRANCH   8   9
HETATM    9  N2  UNL     1      14.076 -41.816   4.942  1.00  0.00    -0.352 N 
HETATM   10  C4  UNL     1      13.062 -41.188   4.320  1.00  0.00     0.108 A 
HETATM   11  C5  UNL     1      12.583 -40.164   5.107  1.00  0.00     0.106 A 
HETATM   12  N3  UNL     1      13.317 -40.171   6.224  1.00  0.00    -0.361 N 
HETATM   13  C6  UNL     1      14.205 -41.164   6.111  1.00  0.00     0.182 A 
ATOM     14  H3  UNL     1      13.217 -39.537   7.017  1.00  0.00     0.166 HD
ENDBRANCH   8   9
ENDBRANCH   7   8
ENDBRANCH   6   7
ENDBRANCH   4   6
ENDBRANCH   2   4
BRANCH   2  15
HETATM   15  C7  UNL     1      12.418 -44.944   6.262  1.00  0.00     0.094 A 
HETATM   16  C8  UNL     1      12.971 -44.672   7.493  1.00  0.00     0.029 A 
HETATM   17  C9  UNL     1      12.435 -43.626   8.225  1.00  0.00     0.032 A 
HETATM   18  C10 UNL     1      11.392 -42.845   7.804  1.00  0.00     0.042 A 
HETATM   19  N4  UNL     1      10.878 -43.155   6.575  1.00  0.00    -0.364 N 
HETATM   20  C17 UNL     1      11.370 -44.163   5.835  1.00  0.00     0.113 A 
ATOM     21  H4  UNL     1      10.099 -42.606   6.210  1.00  0.00     0.165 HD
BRANCH  18  22
HETATM   22  C11 UNL     1      10.813 -41.739   8.557  1.00  0.00    -0.009 A 
HETATM   23  C12 UNL     1      10.875 -41.715   9.946  1.00  0.00     0.013 A 
HETATM   24  C13 UNL     1      10.336 -40.681  10.680  1.00  0.00     0.001 A 
HETATM   25  C14 UNL     1       9.709 -39.623  10.060  1.00  0.00     0.000 A 
HETATM   26  C15 UNL     1       9.641 -39.631   8.688  1.00  0.00     0.001 A 
HETATM   27  C16 UNL     1      10.188 -40.682   7.945  1.00  0.00     0.013 A 
ENDBRANCH  18  22
ENDBRANCH   2  15
TORSDOF 7
ENDMDL
MODEL 3
REMARK VINA RESULT: -7.573585352      3.058      4.383
REMARK  7 active torsions:
REMARK  status: ('A' for Active; 'I' for Inactive)
REMARK    1  A    between atoms: S1_2  and  N1_4 
REMARK    2  A    between atoms: S1_2  and  C7_15 
REMARK    3  A    between atoms: N1_4  and  C1_6 
REMARK    4  A    between atoms: C1_6  and  C2_7 
REMARK    5  A    between atoms: C2_7  and  C3_8 
REMARK    6  A    between atoms: C3_8  and  N2_9 
REMARK    7  A    between atoms: C10_18  and  C11_19 
ROOT
HETATM    1  O1  UNL     1      14.954 -46.261   6.619  1.00  0.00    -0.200 OA
HETATM    2  S1  UNL     1      13.796 -45.803   5.783  1.00  0.00     0.260 S 
HETATM    3  O2  UNL     1      12.931 -47.000   5.493  1.00  0.00    -0.200 OA
ENDROOT
BRANCH   2   4
HETATM    4  N1  UNL     1      14.381 -45.087   4.323  1.00  0.00    -0.315 N 
ATOM      5  H1  UNL     1      14.804 -44.160   4.272  1.00  0.00     0.172 HD
BRANCH   4   6
HETATM    6  C1  UNL     1      14.200 -45.956   3.189  1.00  0.00     0.134 C 
BRANCH   6   7
HETATM    7  C2  UNL     1      13.367 -45.205   2.172  1.00  0.00     0.040 C 
BRANCH   7   8
HETATM    8  C3  UNL     1      12.356 -46.115   1.497  1.00  0.00     0.131 C 
BRANCH   8   9
HETATM    9  N2  UNL     1      11.462 -46.745   2.423  1.00  0.00    -0.352 N 
HETATM   10  C4  UNL     1      11.227 -48.054   2.630  1.00  0.00     0.108 A 
HETATM   11  C5  UNL     1      10.284 -48.217   3.621  1.00  0.00     0.106 A 
HETATM   12  N3  UNL     1       9.941 -46.988   4.022  1.00  0.00    -0.361 N 
HETATM   13  C6  UNL     1      10.653 -46.119   3.296  1.00  0.00     0.182 A 
ATOM     14  H3  UNL     1       9.262 -46.756   4.747  1.00  0.00     0.166 HD
ENDBRANCH   8   9
ENDBRANCH   7   8
ENDBRANCH   6   7
ENDBRANCH   4   6
ENDBRANCH   2   4
BRANCH   2  15
HETATM   15  C7  UNL     1      12.929 -44.572   6.662  1.00  0.00     0.094 A 
HETATM   16  C8  UNL     1      13.434 -44.159   7.874  1.00  0.00     0.029 A 
HETATM   17  C9  UNL     1      12.737 -43.181   8.563  1.00  0.00     0.032 A 
HETATM   18  C10 UNL     1      11.580 -42.599   8.118  1.00  0.00     0.042 A 
HETATM   19  N4  UNL     1      11.120 -43.044   6.909  1.00  0.00    -0.364 N 
HETATM   20  C17 UNL     1      11.767 -43.991   6.211  1.00  0.00     0.113 A 
ATOM     21  H4  UNL     1      10.262 -42.646   6.528  1.00  0.00     0.165 HD
BRANCH  18  22
HETATM   22  C11 UNL     1      10.831 -41.569   8.827  1.00  0.00    -0.009 A 
HETATM   23  C12 UNL     1      10.663 -41.633  10.206  1.00  0.00     0.013 A 
HETATM   24  C13 UNL     1       9.960 -40.671  10.898  1.00  0.00     0.001 A 
HETATM   25  C14 UNL     1       9.393 -39.600  10.245  1.00  0.00     0.000 A 
HETATM   26  C15 UNL     1       9.551 -39.521   8.883  1.00  0.00     0.001 A 
HETATM   27  C16 UNL     1      10.265 -40.499   8.182  1.00  0.00     0.013 A 
ENDBRANCH  18  22
ENDBRANCH   2  15
TORSDOF 7
ENDMDL
MODEL 4
REMARK VINA RESULT: -7.558536623      3.159      4.990
REMARK  7 active torsions:
REMARK  status: ('A' for Active; 'I' for Inactive)
REMARK    1  A    between atoms: S1_2  and  N1_4 
REMARK    2  A    between atoms: S1_2  and  C7_15 
REMARK    3  A    between atoms: N1_4  and  C1_6 
REMARK    4  A    between atoms: C1_6  and  C2_7 
REMARK    5  A    between atoms: C2_7  and  C3_8 
REMARK    6  A    between atoms: C3_8  and  N2_9 
REMARK    7  A    between atoms: C10_18  and  C11_19 
ROOT
HETATM    1  O1  UNL     1      14.457 -46.565   5.745  1.00  0.00    -0.200 OA
HETATM    2  S1  UNL     1      13.062 -46.280   5.272  1.00  0.00     0.260 S 
HETATM    3  O2  UNL     1      12.253 -47.540   5.421  1.00  0.00    -0.200 OA
ENDROOT
BRANCH   2   4
HETATM    4  N1  UNL     1      13.103 -45.757   3.625  1.00  0.00    -0.315 N 
ATOM      5  H1  UNL     1      12.312 -45.825   2.985  1.00  0.00     0.172 HD
BRANCH   4   6
HETATM    6  C1  UNL     1      14.388 -45.213   3.267  1.00  0.00     0.134 C 
BRANCH   6   7
HETATM    7  C2  UNL     1      14.231 -43.710   3.166  1.00  0.00     0.040 C 
BRANCH   7   8
HETATM    8  C3  UNL     1      14.930 -42.999   4.311  1.00  0.00     0.131 C 
BRANCH   8   9
HETATM    9  N2  UNL     1      14.164 -41.914   4.849  1.00  0.00    -0.352 N 
HETATM   10  C4  UNL     1      14.293 -41.276   6.026  1.00  0.00     0.108 A 
HETATM   11  C5  UNL     1      13.341 -40.288   6.140  1.00  0.00     0.106 A 
HETATM   12  N3  UNL     1      12.621 -40.325   5.013  1.00  0.00    -0.361 N 
HETATM   13  C6  UNL     1      13.125 -41.303   4.252  1.00  0.00     0.182 A 
ATOM     14  H3  UNL     1      11.835 -39.721   4.778  1.00  0.00     0.166 HD
ENDBRANCH   8   9
ENDBRANCH   7   8
ENDBRANCH   6   7
ENDBRANCH   4   6
ENDBRANCH   2   4
BRANCH   2  15
HETATM   15  C7  UNL     1      12.410 -44.972   6.222  1.00  0.00     0.094 A 
HETATM   16  C8  UNL     1      12.950 -44.739   7.466  1.00  0.00     0.029 A 
HETATM   17  C9  UNL     1      12.425 -43.698   8.213  1.00  0.00     0.032 A 
HETATM   18  C10 UNL     1      11.403 -42.887   7.794  1.00  0.00     0.042 A 
HETATM   19  N4  UNL     1      10.901 -43.160   6.552  1.00  0.00    -0.364 N 
HETATM   20  C17 UNL     1      11.384 -44.161   5.798  1.00  0.00     0.113 A 
ATOM     21  H4  UNL     1      10.139 -42.588   6.188  1.00  0.00     0.165 HD
BRANCH  18  22
HETATM   22  C11 UNL     1      10.836 -41.786   8.564  1.00  0.00    -0.009 A 
HETATM   23  C12 UNL     1      10.203 -40.724   7.927  1.00  0.00     0.013 A 
HETATM   24  C13 UNL     1       9.658 -39.674   8.632  1.00  0.00     0.001 A 
HETATM   25  C14 UNL     1       9.721 -39.635  10.007  1.00  0.00     0.000 A 
HETATM   26  C15 UNL     1      10.342 -40.677  10.652  1.00  0.00     0.001 A 
HETATM   27  C16 UNL     1      10.894 -41.743   9.934  1.00  0.00     0.013 A 
ENDBRANCH  18  22
ENDBRANCH   2  15
TORSDOF 7
ENDMDL
MODEL 5
REMARK VINA RESULT: -7.516416093      2.265      3.796
REMARK  7 active torsions:
REMARK  status: ('A' for Active; 'I' for Inactive)
REMARK    1  A    between atoms: S1_2  and  N1_4 
REMARK    2  A    between atoms: S1_2  and  C7_15 
REMARK    3  A    between atoms: N1_4  and  C1_6 
REMARK    4  A    between atoms: C1_6  and  C2_7 
REMARK    5  A    between atoms: C2_7  and  C3_8 
REMARK    6  A    between atoms: C3_8  and  N2_9 
REMARK    7  A    between atoms: C10_18  and  C11_19 
ROOT
HETATM    1  O1  UNL     1      15.172 -47.767   4.716  1.00  0.00    -0.200 OA
HETATM    2  S1  UNL     1      13.734 -47.398   4.502  1.00  0.00     0.260 S 
HETATM    3  O2  UNL     1      12.897 -48.624   4.752  1.00  0.00    -0.200 OA
ENDROOT
BRANCH   2   4
HETATM    4  N1  UNL     1      13.518 -46.814   2.890  1.00  0.00    -0.315 N 
ATOM      5  H1  UNL     1      12.610 -46.617   2.471  1.00  0.00     0.172 HD
BRANCH   4   6
HETATM    6  C1  UNL     1      14.776 -46.638   2.210  1.00  0.00     0.134 C 
BRANCH   6   7
HETATM    7  C2  UNL     1      15.075 -45.154   2.188  1.00  0.00     0.040 C 
BRANCH   7   8
HETATM    8  C3  UNL     1      13.808 -44.328   2.313  1.00  0.00     0.131 C 
BRANCH   8   9
HETATM    9  N2  UNL     1      13.904 -43.298   3.304  1.00  0.00    -0.352 N 
HETATM   10  C4  UNL     1      14.975 -42.882   4.004  1.00  0.00     0.108 A 
HETATM   11  C5  UNL     1      14.619 -41.860   4.856  1.00  0.00     0.106 A 
HETATM   12  N3  UNL     1      13.311 -41.651   4.670  1.00  0.00    -0.361 N 
HETATM   13  C6  UNL     1      12.898 -42.519   3.740  1.00  0.00     0.182 A 
ATOM     14  H3  UNL     1      12.735 -40.959   5.149  1.00  0.00     0.166 HD
ENDBRANCH   8   9
ENDBRANCH   7   8
ENDBRANCH   6   7
ENDBRANCH   4   6
ENDBRANCH   2   4
BRANCH   2  15
HETATM   15  C7  UNL     1      13.326 -46.099   5.590  1.00  0.00     0.094 A 
HETATM   16  C8  UNL     1      14.310 -45.611   6.420  1.00  0.00     0.029 A 
HETATM   17  C9  UNL     1      13.975 -44.579   7.280  1.00  0.00     0.032 A 
HETATM   18  C10 UNL     1      12.730 -44.013   7.359  1.00  0.00     0.042 A 
HETATM   19  N4  UNL     1      11.789 -44.533   6.515  1.00  0.00    -0.364 N 
HETATM   20  C17 UNL     1      12.075 -45.534   5.666  1.00  0.00     0.113 A 
ATOM     21  H4  UNL     1      10.843 -44.150   6.530  1.00  0.00     0.165 HD
BRANCH  18  22
HETATM   22  C11 UNL     1      12.357 -42.927   8.257  1.00  0.00    -0.009 A 
HETATM   23  C12 UNL     1      13.221 -41.862   8.484  1.00  0.00     0.013 A 
HETATM   24  C13 UNL     1      12.891 -40.824   9.328  1.00  0.00     0.001 A 
HETATM   25  C14 UNL     1      11.680 -40.802   9.983  1.00  0.00     0.000 A 
HETATM   26  C15 UNL     1      10.814 -41.846   9.769  1.00  0.00     0.001 A 
HETATM   27  C16 UNL     1      11.152 -42.899   8.913  1.00  0.00     0.013 A 
ENDBRANCH  18  22
ENDBRANCH   2  15
TORSDOF 7
ENDMDL
