MODEL 1
REMARK VINA RESULT: -6.328294640      0.000      0.000
REMARK  5 active torsions:
REMARK  status: ('A' for Active; 'I' for Inactive)
REMARK    1  A    between atoms: C2_2  and  N1_3 
REMARK    2  A    between atoms: C2_2  and  N2_7 
REMARK    3  A    between atoms: N2_7  and  N3_9 
REMARK       I    between atoms: C3_11  and  N5_13 
REMARK       I    between atoms: C4_15  and  N7_17 
REMARK    4  A    between atoms: N7_17  and  N8_19 
REMARK    5  A    between atoms: N8_19  and  O1_20 
ROOT
HETATM    1  N3  UNL     1     -27.215   0.299  26.252  1.00  0.00    -0.276 N 
ATOM      2  H3  UNL     1     -26.684   0.587  25.430  1.00  0.00     0.189 HD
HETATM    3  C3  UNL     1     -27.682   1.184  27.049  1.00  0.00     0.209 C 
HETATM    4  N4  UNL     1     -28.418   0.792  28.189  1.00  0.00    -0.062 NA
HETATM    5  N5  UNL     1     -27.462   2.537  26.788  1.00  0.00    -0.303 N 
ATOM      6  H5  UNL     1     -28.252   3.076  26.433  1.00  0.00     0.171 HD
HETATM    7  C4  UNL     1     -26.350   3.166  26.957  1.00  0.00     0.208 C 
HETATM    8  N6  UNL     1     -26.332   4.536  26.635  1.00  0.00    -0.062 NA
HETATM    9  N7  UNL     1     -25.159   2.566  27.443  1.00  0.00    -0.251 N 
ATOM     10  H7  UNL     1     -24.774   1.763  26.947  1.00  0.00     0.187 HD
ENDROOT
BRANCH   1  11
HETATM   11  N2  UNL     1     -27.425  -1.043  26.498  1.00  0.00    -0.304 N 
ATOM     12  H2  UNL     1     -28.298  -1.349  26.928  1.00  0.00     0.182 HD
BRANCH  11  13
HETATM   13  C2  UNL     1     -26.413  -2.022  26.150  1.00  0.00     0.292 C 
HETATM   14  C1  UNL     1     -26.583  -3.297  26.952  1.00  0.00     0.064 C 
BRANCH  13  15
HETATM   15  N1  UNL     1     -25.112  -1.462  26.493  1.00  0.00    -0.058 N 
ATOM     16  H13 UNL     1     -24.793  -1.736  27.423  1.00  0.00     0.276 HD
ATOM     17  H12 UNL     1     -24.346  -1.879  25.963  1.00  0.00     0.276 HD
ATOM     18  H11 UNL     1     -25.174  -0.451  26.375  1.00  0.00     0.276 HD
ENDBRANCH  13  15
ENDBRANCH  11  13
ENDBRANCH   1  11
BRANCH   9  19
HETATM   19  N8  UNL     1     -24.489   3.048  28.593  1.00  0.00     0.021 NA
BRANCH  19  20
HETATM   20  O1  UNL     1     -25.160   4.079  29.154  1.00  0.00    -0.277 OA
ATOM     21  H1  UNL     1     -25.210   3.983  30.098  1.00  0.00     0.240 HD
ENDBRANCH  19  20
ENDBRANCH   9  19
TORSDOF 5
ENDMDL
MODEL 2
REMARK VINA RESULT: -6.062089258      2.489      5.478
REMARK  5 active torsions:
REMARK  status: ('A' for Active; 'I' for Inactive)
REMARK    1  A    between atoms: C2_2  and  N1_3 
REMARK    2  A    between atoms: C2_2  and  N2_7 
REMARK    3  A    between atoms: N2_7  and  N3_9 
REMARK       I    between atoms: C3_11  and  N5_13 
REMARK       I    between atoms: C4_15  and  N7_17 
REMARK    4  A    between atoms: N7_17  and  N8_19 
REMARK    5  A    between atoms: N8_19  and  O1_20 
ROOT
HETATM    1  N3  UNL     1     -25.125   2.644  27.351  1.00  0.00    -0.276 N 
ATOM      2  H3  UNL     1     -24.587   2.313  26.549  1.00  0.00     0.189 HD
HETATM    3  C3  UNL     1     -25.687   1.800  28.131  1.00  0.00     0.209 C 
HETATM    4  N4  UNL     1     -26.432   2.251  29.243  1.00  0.00    -0.062 NA
HETATM    5  N5  UNL     1     -25.561   0.433  27.880  1.00  0.00    -0.303 N 
ATOM      6  H5  UNL     1     -24.930  -0.094  28.484  1.00  0.00     0.171 HD
HETATM    7  C4  UNL     1     -26.170  -0.222  26.953  1.00  0.00     0.208 C 
HETATM    8  N6  UNL     1     -25.907  -1.602  26.863  1.00  0.00    -0.062 NA
HETATM    9  N7  UNL     1     -27.078   0.359  26.030  1.00  0.00    -0.251 N 
ATOM     10  H7  UNL     1     -26.762   1.134  25.448  1.00  0.00     0.187 HD
ENDROOT
BRANCH   1  11
HETATM   11  N2  UNL     1     -25.242   3.999  27.588  1.00  0.00    -0.304 N 
ATOM     12  H2  UNL     1     -25.237   4.348  28.546  1.00  0.00     0.182 HD
BRANCH  11  13
HETATM   13  C2  UNL     1     -25.371   4.930  26.483  1.00  0.00     0.292 C 
HETATM   14  C1  UNL     1     -24.603   6.209  26.750  1.00  0.00     0.064 C 
BRANCH  13  15
HETATM   15  N1  UNL     1     -26.778   5.285  26.358  1.00  0.00    -0.058 N 
ATOM     16  H13 UNL     1     -26.961   5.924  25.585  1.00  0.00     0.276 HD
ATOM     17  H12 UNL     1     -27.357   4.511  26.029  1.00  0.00     0.276 HD
ATOM     18  H11 UNL     1     -27.081   5.653  27.260  1.00  0.00     0.276 HD
ENDBRANCH  13  15
ENDBRANCH  11  13
ENDBRANCH   1  11
BRANCH   9  19
HETATM   19  N8  UNL     1     -28.409  -0.104  25.892  1.00  0.00     0.021 NA
BRANCH  19  20
HETATM   20  O1  UNL     1     -28.835  -0.714  27.020  1.00  0.00    -0.277 OA
ATOM     21  H1  UNL     1     -28.731  -1.657  26.962  1.00  0.00     0.240 HD
ENDBRANCH  19  20
ENDBRANCH   9  19
TORSDOF 5
ENDMDL
MODEL 3
REMARK VINA RESULT: -6.041138923      2.790      5.408
REMARK  5 active torsions:
REMARK  status: ('A' for Active; 'I' for Inactive)
REMARK    1  A    between atoms: C2_2  and  N1_3 
REMARK    2  A    between atoms: C2_2  and  N2_7 
REMARK    3  A    between atoms: N2_7  and  N3_9 
REMARK       I    between atoms: C3_11  and  N5_13 
REMARK       I    between atoms: C4_15  and  N7_17 
REMARK    4  A    between atoms: N7_17  and  N8_19 
REMARK    5  A    between atoms: N8_19  and  O1_20 
ROOT
HETATM    1  N3  UNL     1     -25.675   1.208  27.454  1.00  0.00    -0.276 N 
ATOM      2  H3  UNL     1     -24.759   0.768  27.365  1.00  0.00     0.189 HD
HETATM    3  C3  UNL     1     -26.735   0.509  27.299  1.00  0.00     0.209 C 
HETATM    4  N4  UNL     1     -28.005   1.113  27.422  1.00  0.00    -0.062 NA
HETATM    5  N5  UNL     1     -26.631  -0.852  27.007  1.00  0.00    -0.303 N 
ATOM      6  H5  UNL     1     -26.840  -1.506  27.761  1.00  0.00     0.171 HD
HETATM    7  C4  UNL     1     -26.295  -1.355  25.870  1.00  0.00     0.208 C 
HETATM    8  N6  UNL     1     -26.248  -2.759  25.777  1.00  0.00    -0.062 NA
HETATM    9  N7  UNL     1     -25.972  -0.586  24.721  1.00  0.00    -0.251 N 
ATOM     10  H7  UNL     1     -25.220   0.100  24.781  1.00  0.00     0.187 HD
ENDROOT
BRANCH   1  11
HETATM   11  N2  UNL     1     -25.763   2.555  27.743  1.00  0.00    -0.304 N 
ATOM     12  H2  UNL     1     -25.782   2.865  28.715  1.00  0.00     0.182 HD
BRANCH  11  13
HETATM   13  C2  UNL     1     -25.830   3.534  26.675  1.00  0.00     0.292 C 
HETATM   14  C1  UNL     1     -24.860   4.674  26.913  1.00  0.00     0.064 C 
BRANCH  13  15
HETATM   15  N1  UNL     1     -27.173   4.098  26.666  1.00  0.00    -0.058 N 
ATOM     16  H13 UNL     1     -27.692   3.904  27.523  1.00  0.00     0.276 HD
ATOM     17  H12 UNL     1     -27.178   5.116  26.736  1.00  0.00     0.276 HD
ATOM     18  H11 UNL     1     -27.643   3.754  25.829  1.00  0.00     0.276 HD
ENDBRANCH  13  15
ENDBRANCH  11  13
ENDBRANCH   1  11
BRANCH   9  19
HETATM   19  N8  UNL     1     -26.661  -0.743  23.494  1.00  0.00     0.021 NA
BRANCH  19  20
HETATM   20  O1  UNL     1     -27.473  -1.823  23.523  1.00  0.00    -0.277 OA
ATOM     21  H1  UNL     1     -27.050  -2.582  23.139  1.00  0.00     0.240 HD
ENDBRANCH  19  20
ENDBRANCH   9  19
TORSDOF 5
ENDMDL
MODEL 4
REMARK VINA RESULT: -6.037625033      2.567      5.363
REMARK  5 active torsions:
REMARK  status: ('A' for Active; 'I' for Inactive)
REMARK    1  A    between atoms: C2_2  and  N1_3 
REMARK    2  A    between atoms: C2_2  and  N2_7 
REMARK    3  A    between atoms: N2_7  and  N3_9 
REMARK       I    between atoms: C3_11  and  N5_13 
REMARK       I    between atoms: C4_15  and  N7_17 
REMARK    4  A    between atoms: N7_17  and  N8_19 
REMARK    5  A    between atoms: N8_19  and  O1_20 
ROOT
HETATM    1  N3  UNL     1     -26.351   3.009  27.656  1.00  0.00    -0.276 N 
ATOM      2  H3  UNL     1     -25.617   2.427  28.058  1.00  0.00     0.189 HD
HETATM    3  C3  UNL     1     -27.485   2.492  27.364  1.00  0.00     0.209 C 
HETATM    4  N4  UNL     1     -28.506   3.293  26.809  1.00  0.00    -0.062 NA
HETATM    5  N5  UNL     1     -27.708   1.135  27.597  1.00  0.00    -0.303 N 
ATOM      6  H5  UNL     1     -28.297   0.890  28.393  1.00  0.00     0.171 HD
HETATM    7  C4  UNL     1     -27.235   0.162  26.896  1.00  0.00     0.208 C 
HETATM    8  N6  UNL     1     -27.577  -1.144  27.295  1.00  0.00    -0.062 NA
HETATM    9  N7  UNL     1     -26.400   0.329  25.760  1.00  0.00    -0.251 N 
ATOM     10  H7  UNL     1     -25.528   0.846  25.860  1.00  0.00     0.187 HD
ENDROOT
BRANCH   1  11
HETATM   11  N2  UNL     1     -26.118   4.351  27.431  1.00  0.00    -0.304 N 
ATOM     12  H2  UNL     1     -26.425   5.041  28.117  1.00  0.00     0.182 HD
BRANCH  11  13
HETATM   13  C2  UNL     1     -25.438   4.787  26.226  1.00  0.00     0.292 C 
HETATM   14  C1  UNL     1     -24.474   5.919  26.518  1.00  0.00     0.064 C 
BRANCH  13  15
HETATM   15  N1  UNL     1     -26.444   5.299  25.304  1.00  0.00    -0.058 N 
ATOM     16  H13 UNL     1     -27.159   4.609  25.072  1.00  0.00     0.276 HD
ATOM     17  H12 UNL     1     -27.061   5.990  25.731  1.00  0.00     0.276 HD
ATOM     18  H11 UNL     1     -25.953   5.655  24.484  1.00  0.00     0.276 HD
ENDBRANCH  13  15
ENDBRANCH  11  13
ENDBRANCH   1  11
BRANCH   9  19
HETATM   19  N8  UNL     1     -26.742  -0.200  24.491  1.00  0.00     0.021 NA
BRANCH  19  20
HETATM   20  O1  UNL     1     -25.766   0.030  23.586  1.00  0.00    -0.277 OA
ATOM     21  H1  UNL     1     -26.045  -0.211  22.710  1.00  0.00     0.240 HD
ENDBRANCH  19  20
ENDBRANCH   9  19
TORSDOF 5
ENDMDL
MODEL 5
REMARK VINA RESULT: -6.016549662      2.707      5.522
REMARK  5 active torsions:
REMARK  status: ('A' for Active; 'I' for Inactive)
REMARK    1  A    between atoms: C2_2  and  N1_3 
REMARK    2  A    between atoms: C2_2  and  N2_7 
REMARK    3  A    between atoms: N2_7  and  N3_9 
REMARK       I    between atoms: C3_11  and  N5_13 
REMARK       I    between atoms: C4_15  and  N7_17 
REMARK    4  A    between atoms: N7_17  and  N8_19 
REMARK    5  A    between atoms: N8_19  and  O1_20 
ROOT
HETATM    1  N3  UNL     1     -26.050   2.358  26.805  1.00  0.00    -0.276 N 
ATOM      2  H3  UNL     1     -25.061   2.121  26.727  1.00  0.00     0.189 HD
HETATM    3  C3  UNL     1     -26.915   1.430  26.969  1.00  0.00     0.209 C 
HETATM    4  N4  UNL     1     -28.285   1.752  27.079  1.00  0.00    -0.062 NA
HETATM    5  N5  UNL     1     -26.500   0.100  27.040  1.00  0.00    -0.303 N 
ATOM      6  H5  UNL     1     -26.503  -0.341  27.960  1.00  0.00     0.171 HD
HETATM    7  C4  UNL     1     -26.112  -0.622  26.045  1.00  0.00     0.208 C 
HETATM    8  N6  UNL     1     -25.731  -1.948  26.324  1.00  0.00    -0.062 NA
HETATM    9  N7  UNL     1     -26.048  -0.164  24.703  1.00  0.00    -0.251 N 
ATOM     10  H7  UNL     1     -25.483   0.657  24.489  1.00  0.00     0.187 HD
ENDROOT
BRANCH   1  11
HETATM   11  N2  UNL     1     -26.447   3.678  26.734  1.00  0.00    -0.304 N 
ATOM     12  H2  UNL     1     -27.340   3.961  27.140  1.00  0.00     0.182 HD
BRANCH  11  13
HETATM   13  C2  UNL     1     -25.605   4.666  26.087  1.00  0.00     0.292 C 
HETATM   14  C1  UNL     1     -24.943   5.574  27.103  1.00  0.00     0.064 C 
BRANCH  13  15
HETATM   15  N1  UNL     1     -26.456   5.499  25.247  1.00  0.00    -0.058 N 
ATOM     16  H13 UNL     1     -27.421   5.541  25.575  1.00  0.00     0.276 HD
ATOM     17  H12 UNL     1     -26.245   6.493  25.328  1.00  0.00     0.276 HD
ATOM     18  H11 UNL     1     -26.374   5.151  24.291  1.00  0.00     0.276 HD
ENDBRANCH  13  15
ENDBRANCH  11  13
ENDBRANCH   1  11
BRANCH   9  19
HETATM   19  N8  UNL     1     -26.743  -0.812  23.653  1.00  0.00     0.021 NA
BRANCH  19  20
HETATM   20  O1  UNL     1     -27.275   0.083  22.793  1.00  0.00    -0.277 OA
ATOM     21  H1  UNL     1     -26.752   0.876  22.753  1.00  0.00     0.240 HD
ENDBRANCH  19  20
ENDBRANCH   9  19
TORSDOF 5
ENDMDL
