MODEL 1
REMARK VINA RESULT: -6.915177125      0.000      0.000
REMARK  1 active torsions:
REMARK  status: ('A' for Active; 'I' for Inactive)
REMARK       I    between atoms: N1_1  and  C1_5 
REMARK       I    between atoms: C1_5  and  N2_6 
REMARK       I    between atoms: C1_5  and  N3_10 
REMARK    1  A    between atoms: N3_10  and  C2_12 
ROOT
HETATM    1  C2  UNL     1     -28.305   2.785  27.066  1.00  0.00     0.688 C 
HETATM    2  N4  UNL     1     -27.770   2.033  28.072  1.00  0.00    -0.141 N 
ATOM      3  H4  UNL     1     -28.384   1.310  28.449  1.00  0.00     0.189 HD
HETATM    4  C3  UNL     1     -26.544   2.107  28.643  1.00  0.00     0.341 C 
HETATM    5  O1  UNL     1     -26.374   1.443  29.687  1.00  0.00    -0.246 OA
HETATM    6  N5  UNL     1     -25.454   2.800  28.251  1.00  0.00    -0.270 N 
ATOM      7  H5  UNL     1     -24.567   2.561  28.695  1.00  0.00     0.174 HD
HETATM    8  C4  UNL     1     -25.434   3.778  27.328  1.00  0.00     0.318 C 
HETATM    9  O2  UNL     1     -24.293   4.248  27.061  1.00  0.00    -0.262 OA
HETATM   10  C5  UNL     1     -26.475   4.354  26.620  1.00  0.00     0.328 C 
HETATM   11  O3  UNL     1     -26.197   5.328  25.883  1.00  0.00    -0.261 OA
HETATM   12  N6  UNL     1     -27.782   3.954  26.655  1.00  0.00    -0.151 N 
ATOM     13  H6  UNL     1     -28.458   4.642  26.322  1.00  0.00     0.188 HD
ENDROOT
BRANCH   1  14
HETATM   14  N3  UNL     1     -29.361   2.335  26.498  1.00  0.00    -0.173 N 
HETATM   15  C1  UNL     1     -29.573   0.915  26.377  1.00  0.00     0.494 C 
HETATM   16  N1  UNL     1     -31.013   0.632  26.329  1.00  0.00    -0.032 N 
HETATM   17  N2  UNL     1     -28.964   0.496  25.120  1.00  0.00    -0.032 N 
ATOM     18  H13 UNL     1     -31.465   1.055  25.519  1.00  0.00     0.278 HD
ATOM     19  H12 UNL     1     -31.209  -0.345  26.109  1.00  0.00     0.278 HD
ATOM     20  H11 UNL     1     -31.439   0.925  27.208  1.00  0.00     0.278 HD
ATOM     21  H23 UNL     1     -29.160  -0.481  24.900  1.00  0.00     0.278 HD
ATOM     22  H22 UNL     1     -29.416   0.919  24.310  1.00  0.00     0.278 HD
ATOM     23  H21 UNL     1     -27.963   0.692  25.153  1.00  0.00     0.278 HD
ATOM     24  H3  UNL     1     -30.056   2.985  26.131  1.00  0.00     0.181 HD
ENDBRANCH   1  14
TORSDOF 1
ENDMDL
MODEL 2
REMARK VINA RESULT: -6.725413667      2.486      3.132
REMARK  1 active torsions:
REMARK  status: ('A' for Active; 'I' for Inactive)
REMARK       I    between atoms: N1_1  and  C1_5 
REMARK       I    between atoms: C1_5  and  N2_6 
REMARK       I    between atoms: C1_5  and  N3_10 
REMARK    1  A    between atoms: N3_10  and  C2_12 
ROOT
HETATM    1  C2  UNL     1     -26.899   0.764  27.366  1.00  0.00     0.688 C 
HETATM    2  N4  UNL     1     -25.686   1.219  27.799  1.00  0.00    -0.141 N 
ATOM      3  H4  UNL     1     -25.026   0.496  28.084  1.00  0.00     0.189 HD
HETATM    4  C3  UNL     1     -25.233   2.491  27.905  1.00  0.00     0.341 C 
HETATM    5  O1  UNL     1     -24.162   2.651  28.526  1.00  0.00    -0.246 OA
HETATM    6  N5  UNL     1     -25.770   3.636  27.434  1.00  0.00    -0.270 N 
ATOM      7  H5  UNL     1     -25.174   4.464  27.436  1.00  0.00     0.174 HD
HETATM    8  C4  UNL     1     -27.022   3.783  26.963  1.00  0.00     0.318 C 
HETATM    9  O2  UNL     1     -27.298   4.927  26.506  1.00  0.00    -0.262 OA
HETATM   10  C5  UNL     1     -28.061   2.871  26.901  1.00  0.00     0.328 C 
HETATM   11  O3  UNL     1     -29.171   3.293  26.504  1.00  0.00    -0.261 OA
HETATM   12  N6  UNL     1     -27.984   1.548  27.238  1.00  0.00    -0.151 N 
ATOM     13  H6  UNL     1     -28.877   1.090  27.417  1.00  0.00     0.188 HD
ENDROOT
BRANCH   1  14
HETATM   14  N3  UNL     1     -26.984  -0.480  27.073  1.00  0.00    -0.173 N 
HETATM   15  C1  UNL     1     -25.922  -1.133  26.351  1.00  0.00     0.494 C 
HETATM   16  N1  UNL     1     -25.898  -2.561  26.690  1.00  0.00    -0.032 N 
HETATM   17  N2  UNL     1     -26.216  -0.986  24.930  1.00  0.00    -0.032 N 
ATOM     18  H13 UNL     1     -26.757  -3.039  26.420  1.00  0.00     0.278 HD
ATOM     19  H12 UNL     1     -25.250  -3.089  26.103  1.00  0.00     0.278 HD
ATOM     20  H11 UNL     1     -25.692  -2.664  27.684  1.00  0.00     0.278 HD
ATOM     21  H23 UNL     1     -25.569  -1.514  24.343  1.00  0.00     0.278 HD
ATOM     22  H22 UNL     1     -27.076  -1.464  24.660  1.00  0.00     0.278 HD
ATOM     23  H21 UNL     1     -26.233   0.006  24.694  1.00  0.00     0.278 HD
ATOM     24  H3  UNL     1     -27.809  -1.012  27.354  1.00  0.00     0.181 HD
ENDBRANCH   1  14
TORSDOF 1
ENDMDL
MODEL 3
REMARK VINA RESULT: -6.333635054      1.198      2.684
REMARK  1 active torsions:
REMARK  status: ('A' for Active; 'I' for Inactive)
REMARK       I    between atoms: N1_1  and  C1_5 
REMARK       I    between atoms: C1_5  and  N2_6 
REMARK       I    between atoms: C1_5  and  N3_10 
REMARK    1  A    between atoms: N3_10  and  C2_12 
ROOT
HETATM    1  C2  UNL     1     -28.123   2.505  26.795  1.00  0.00     0.688 C 
HETATM    2  N4  UNL     1     -27.724   3.781  26.515  1.00  0.00    -0.141 N 
ATOM      3  H4  UNL     1     -28.432   4.374  26.082  1.00  0.00     0.189 HD
HETATM    4  C3  UNL     1     -26.525   4.373  26.728  1.00  0.00     0.341 C 
HETATM    5  O1  UNL     1     -26.349   5.487  26.192  1.00  0.00    -0.246 OA
HETATM    6  N5  UNL     1     -25.468   3.938  27.446  1.00  0.00    -0.270 N 
ATOM      7  H5  UNL     1     -24.738   4.619  27.659  1.00  0.00     0.174 HD
HETATM    8  C4  UNL     1     -25.290   2.686  27.906  1.00  0.00     0.318 C 
HETATM    9  O2  UNL     1     -24.262   2.511  28.617  1.00  0.00    -0.262 OA
HETATM   10  C5  UNL     1     -26.063   1.553  27.720  1.00  0.00     0.328 C 
HETATM   11  O3  UNL     1     -25.620   0.475  28.179  1.00  0.00    -0.261 OA
HETATM   12  N6  UNL     1     -27.269   1.506  27.079  1.00  0.00    -0.151 N 
ATOM     13  H6  UNL     1     -27.564   0.579  26.771  1.00  0.00     0.188 HD
ENDROOT
BRANCH   1  14
HETATM   14  N3  UNL     1     -29.382   2.271  26.778  1.00  0.00    -0.173 N 
HETATM   15  C1  UNL     1     -29.917   1.224  25.945  1.00  0.00     0.494 C 
HETATM   16  N1  UNL     1     -31.159   0.709  26.533  1.00  0.00    -0.032 N 
HETATM   17  N2  UNL     1     -30.215   1.818  24.647  1.00  0.00    -0.032 N 
ATOM     18  H13 UNL     1     -31.886   1.423  26.592  1.00  0.00     0.278 HD
ATOM     19  H12 UNL     1     -31.644   0.061  25.912  1.00  0.00     0.278 HD
ATOM     20  H11 UNL     1     -30.951   0.294  27.441  1.00  0.00     0.278 HD
ATOM     21  H23 UNL     1     -30.700   1.170  24.025  1.00  0.00     0.278 HD
ATOM     22  H22 UNL     1     -30.942   2.532  24.705  1.00  0.00     0.278 HD
ATOM     23  H21 UNL     1     -29.352   2.176  24.238  1.00  0.00     0.278 HD
ATOM     24  H3  UNL     1     -30.009   2.828  27.358  1.00  0.00     0.181 HD
ENDBRANCH   1  14
TORSDOF 1
ENDMDL
MODEL 4
REMARK VINA RESULT: -6.151718734      2.481      4.866
REMARK  1 active torsions:
REMARK  status: ('A' for Active; 'I' for Inactive)
REMARK       I    between atoms: N1_1  and  C1_5 
REMARK       I    between atoms: C1_5  and  N2_6 
REMARK       I    between atoms: C1_5  and  N3_10 
REMARK    1  A    between atoms: N3_10  and  C2_12 
ROOT
HETATM    1  C2  UNL     1     -26.224   3.000  27.083  1.00  0.00     0.688 C 
HETATM    2  N4  UNL     1     -27.514   3.398  26.875  1.00  0.00    -0.141 N 
ATOM      3  H4  UNL     1     -27.660   4.407  26.852  1.00  0.00     0.189 HD
HETATM    4  C3  UNL     1     -28.627   2.647  26.696  1.00  0.00     0.341 C 
HETATM    5  O1  UNL     1     -29.719   3.251  26.733  1.00  0.00    -0.246 OA
HETATM    6  N5  UNL     1     -28.742   1.320  26.477  1.00  0.00    -0.270 N 
ATOM      7  H5  UNL     1     -29.649   0.979  26.159  1.00  0.00     0.174 HD
HETATM    8  C4  UNL     1     -27.767   0.408  26.641  1.00  0.00     0.318 C 
HETATM    9  O2  UNL     1     -28.068  -0.773  26.312  1.00  0.00    -0.262 OA
HETATM   10  C5  UNL     1     -26.476   0.562  27.117  1.00  0.00     0.328 C 
HETATM   11  O3  UNL     1     -25.792  -0.476  27.266  1.00  0.00    -0.261 OA
HETATM   12  N6  UNL     1     -25.881   1.750  27.441  1.00  0.00    -0.151 N 
ATOM     13  H6  UNL     1     -25.059   1.677  28.040  1.00  0.00     0.188 HD
ENDROOT
BRANCH   1  14
HETATM   14  N3  UNL     1     -25.309   3.882  26.924  1.00  0.00    -0.173 N 
HETATM   15  C1  UNL     1     -25.657   5.246  26.617  1.00  0.00     0.494 C 
HETATM   16  N1  UNL     1     -24.610   6.148  27.112  1.00  0.00    -0.032 N 
HETATM   17  N2  UNL     1     -25.731   5.354  25.164  1.00  0.00    -0.032 N 
ATOM     18  H13 UNL     1     -23.709   5.979  26.665  1.00  0.00     0.278 HD
ATOM     19  H12 UNL     1     -24.747   7.110  26.801  1.00  0.00     0.278 HD
ATOM     20  H11 UNL     1     -24.558   6.072  28.128  1.00  0.00     0.278 HD
ATOM     21  H23 UNL     1     -25.868   6.316  24.853  1.00  0.00     0.278 HD
ATOM     22  H22 UNL     1     -24.830   5.185  24.717  1.00  0.00     0.278 HD
ATOM     23  H21 UNL     1     -26.459   4.727  24.820  1.00  0.00     0.278 HD
ATOM     24  H3  UNL     1     -24.328   3.617  27.016  1.00  0.00     0.181 HD
ENDBRANCH   1  14
TORSDOF 1
ENDMDL
MODEL 5
REMARK VINA RESULT: -6.087284868      2.301      4.679
REMARK  1 active torsions:
REMARK  status: ('A' for Active; 'I' for Inactive)
REMARK       I    between atoms: N1_1  and  C1_5 
REMARK       I    between atoms: C1_5  and  N2_6 
REMARK       I    between atoms: C1_5  and  N3_10 
REMARK    1  A    between atoms: N3_10  and  C2_12 
ROOT
HETATM    1  C2  UNL     1     -27.772   3.302  26.880  1.00  0.00     0.688 C 
HETATM    2  N4  UNL     1     -28.989   2.952  26.369  1.00  0.00    -0.141 N 
ATOM      3  H4  UNL     1     -29.516   3.712  25.938  1.00  0.00     0.189 HD
HETATM    4  C3  UNL     1     -29.599   1.743  26.353  1.00  0.00     0.341 C 
HETATM    5  O1  UNL     1     -30.800   1.729  26.012  1.00  0.00    -0.246 OA
HETATM    6  N5  UNL     1     -29.100   0.525  26.653  1.00  0.00    -0.270 N 
ATOM      7  H5  UNL     1     -29.656  -0.285  26.378  1.00  0.00     0.174 HD
HETATM    8  C4  UNL     1     -27.936   0.285  27.282  1.00  0.00     0.318 C 
HETATM    9  O2  UNL     1     -27.625  -0.933  27.401  1.00  0.00    -0.262 OA
HETATM   10  C5  UNL     1     -27.019   1.170  27.823  1.00  0.00     0.328 C 
HETATM   11  O3  UNL     1     -26.051   0.680  28.451  1.00  0.00    -0.261 OA
HETATM   12  N6  UNL     1     -27.076   2.533  27.735  1.00  0.00    -0.151 N 
ATOM     13  H6  UNL     1     -26.510   3.039  28.416  1.00  0.00     0.188 HD
ENDROOT
BRANCH   1  14
HETATM   14  N3  UNL     1     -27.287   4.429  26.511  1.00  0.00    -0.173 N 
HETATM   15  C1  UNL     1     -25.864   4.596  26.364  1.00  0.00     0.494 C 
HETATM   16  N1  UNL     1     -25.588   5.639  25.367  1.00  0.00    -0.032 N 
HETATM   17  N2  UNL     1     -25.345   5.025  27.657  1.00  0.00    -0.032 N 
ATOM     18  H13 UNL     1     -25.952   6.549  25.648  1.00  0.00     0.278 HD
ATOM     19  H12 UNL     1     -24.599   5.885  25.327  1.00  0.00     0.278 HD
ATOM     20  H11 UNL     1     -25.951   5.339  24.463  1.00  0.00     0.278 HD
ATOM     21  H23 UNL     1     -24.356   5.272  27.617  1.00  0.00     0.278 HD
ATOM     22  H22 UNL     1     -25.709   5.936  27.938  1.00  0.00     0.278 HD
ATOM     23  H21 UNL     1     -25.536   4.301  28.350  1.00  0.00     0.278 HD
ATOM     24  H3  UNL     1     -27.913   5.212  26.321  1.00  0.00     0.181 HD
ENDBRANCH   1  14
TORSDOF 1
ENDMDL
