MODEL 1
REMARK VINA RESULT: -6.529166810      0.000      0.000
REMARK  3 active torsions:
REMARK  status: ('A' for Active; 'I' for Inactive)
REMARK    1  A    between atoms: C3_3  and  N1_4 
REMARK    2  A    between atoms: C3_3  and  C4_8 
REMARK    3  A    between atoms: N3_15  and  N4_16 
ROOT
HETATM    1  C1  UNL     1      -9.186 -24.088  50.759  1.00  0.00     0.014 C 
HETATM    2  C2  UNL     1     -10.008 -23.208  50.568  1.00  0.00    -0.080 C 
HETATM    3  C3  UNL     1     -11.028 -22.127  50.295  1.00  0.00     0.291 C 
ENDROOT
BRANCH   3   4
HETATM    4  N1  UNL     1     -10.964 -21.535  51.709  1.00  0.00    -0.061 N 
ATOM      5  H13 UNL     1     -10.048 -21.291  52.085  1.00  0.00     0.276 HD
ATOM      6  H12 UNL     1     -11.318 -20.588  51.849  1.00  0.00     0.276 HD
ATOM      7  H11 UNL     1     -11.471 -22.305  52.144  1.00  0.00     0.276 HD
ENDBRANCH   3   4
BRANCH   3   8
HETATM    8  C4  UNL     1     -10.503 -20.990  49.646  1.00  0.00    -0.019 C 
HETATM    9  C5  UNL     1     -11.073 -20.473  48.577  1.00  0.00     0.060 A 
HETATM   10  C6  UNL     1     -10.734 -19.372  47.791  1.00  0.00     0.138 A 
HETATM   11  C8  UNL     1     -12.225 -21.133  48.238  1.00  0.00     0.139 A 
HETATM   12  N2  UNL     1     -11.544 -19.015  46.761  1.00  0.00    -0.291 N 
HETATM   13  N6  UNL     1      -9.681 -18.639  47.833  1.00  0.00    -0.289 N 
HETATM   14  C7  UNL     1     -12.660 -19.701  46.481  1.00  0.00     0.348 A 
ATOM     15  H2  UNL     1     -11.297 -18.208  46.189  1.00  0.00     0.172 HD
HETATM   16  O1  UNL     1     -13.418 -19.367  45.517  1.00  0.00    -0.245 OA
HETATM   17  N3  UNL     1     -13.029 -20.761  47.196  1.00  0.00    -0.195 N 
HETATM   18  N7  UNL     1      -8.583 -18.762  48.687  1.00  0.00    -0.335 N 
ATOM     19  H6  UNL     1      -9.641 -17.874  47.160  1.00  0.00     0.188 HD
HETATM   20  C9  UNL     1      -8.184 -20.081  49.261  1.00  0.00     0.144 C 
ATOM     21  H7  UNL     1      -8.041 -17.932  48.925  1.00  0.00     0.180 HD
HETATM   22  C10 UNL     1      -9.236 -20.373  50.247  1.00  0.00     0.059 C 
HETATM   23  N5  UNL     1     -12.569 -22.178  48.879  1.00  0.00    -0.383 N 
ATOM     24  H52 UNL     1     -11.969 -22.455  49.656  1.00  0.00     0.157 HD
ATOM     25  H51 UNL     1     -13.427 -22.669  48.626  1.00  0.00     0.157 HD
BRANCH  17  26
HETATM   26  N4  UNL     1     -14.160 -21.523  46.976  1.00  0.00    -0.333 N 
ATOM     27  H42 UNL     1     -14.051 -22.536  47.022  1.00  0.00     0.177 HD
ATOM     28  H41 UNL     1     -15.089 -21.156  46.771  1.00  0.00     0.177 HD
ENDBRANCH  17  26
ENDBRANCH   3   8
TORSDOF 3
ENDMDL
MODEL 2
REMARK VINA RESULT: -6.430622650      1.579      3.759
REMARK  3 active torsions:
REMARK  status: ('A' for Active; 'I' for Inactive)
REMARK    1  A    between atoms: C3_3  and  N1_4 
REMARK    2  A    between atoms: C3_3  and  C4_8 
REMARK    3  A    between atoms: N3_15  and  N4_16 
ROOT
HETATM    1  C1  UNL     1      -8.852 -16.462  50.036  1.00  0.00     0.014 C 
HETATM    2  C2  UNL     1      -8.711 -17.520  49.445  1.00  0.00    -0.080 C 
HETATM    3  C3  UNL     1      -8.571 -18.826  48.698  1.00  0.00     0.291 C 
ENDROOT
BRANCH   3   4
HETATM    4  N1  UNL     1      -7.193 -19.158  49.286  1.00  0.00    -0.061 N 
ATOM      5  H13 UNL     1      -6.610 -18.386  49.605  1.00  0.00     0.276 HD
ATOM      6  H12 UNL     1      -7.158 -19.614  50.198  1.00  0.00     0.276 HD
ATOM      7  H11 UNL     1      -6.883 -19.690  48.473  1.00  0.00     0.276 HD
ENDBRANCH   3   4
BRANCH   3   8
HETATM    8  C4  UNL     1      -9.243 -19.910  49.302  1.00  0.00    -0.019 C 
HETATM    9  C5  UNL     1     -10.420 -20.321  48.879  1.00  0.00     0.060 A 
HETATM   10  C6  UNL     1     -11.250 -21.353  49.318  1.00  0.00     0.138 A 
HETATM   11  C8  UNL     1     -10.850 -19.616  47.786  1.00  0.00     0.139 A 
HETATM   12  N2  UNL     1     -12.406 -21.605  48.653  1.00  0.00    -0.291 N 
HETATM   13  N6  UNL     1     -11.133 -22.103  50.353  1.00  0.00    -0.289 N 
HETATM   14  C7  UNL     1     -12.771 -20.881  47.587  1.00  0.00     0.348 A 
ATOM     15  H2  UNL     1     -13.010 -22.362  48.973  1.00  0.00     0.172 HD
HETATM   16  O1  UNL     1     -13.854 -21.117  46.965  1.00  0.00    -0.245 OA
HETATM   17  N3  UNL     1     -12.019 -19.882  47.129  1.00  0.00    -0.195 N 
HETATM   18  N7  UNL     1     -10.131 -22.073  51.326  1.00  0.00    -0.335 N 
ATOM     19  H6  UNL     1     -11.860 -22.807  50.481  1.00  0.00     0.188 HD
HETATM   20  C9  UNL     1      -9.394 -20.816  51.649  1.00  0.00     0.144 C 
ATOM     21  H7  UNL     1      -9.899 -22.930  51.829  1.00  0.00     0.180 HD
HETATM   22  C10 UNL     1      -8.535 -20.596  50.475  1.00  0.00     0.059 C 
HETATM   23  N5  UNL     1     -10.170 -18.627  47.362  1.00  0.00    -0.383 N 
ATOM     24  H52 UNL     1      -9.298 -18.429  47.853  1.00  0.00     0.157 HD
ATOM     25  H51 UNL     1     -10.490 -18.102  46.548  1.00  0.00     0.157 HD
BRANCH  17  26
HETATM   26  N4  UNL     1     -12.320 -19.087  46.041  1.00  0.00    -0.333 N 
ATOM     27  H42 UNL     1     -12.086 -19.457  45.119  1.00  0.00     0.177 HD
ATOM     28  H41 UNL     1     -12.754 -18.165  46.083  1.00  0.00     0.177 HD
ENDBRANCH  17  26
ENDBRANCH   3   8
TORSDOF 3
ENDMDL
MODEL 3
REMARK VINA RESULT: -6.121229996      1.290      1.424
REMARK  3 active torsions:
REMARK  status: ('A' for Active; 'I' for Inactive)
REMARK    1  A    between atoms: C3_3  and  N1_4 
REMARK    2  A    between atoms: C3_3  and  C4_8 
REMARK    3  A    between atoms: N3_15  and  N4_16 
ROOT
HETATM    1  C1  UNL     1      -7.161 -23.591  50.031  1.00  0.00     0.014 C 
HETATM    2  C2  UNL     1      -8.125 -22.885  50.280  1.00  0.00    -0.080 C 
HETATM    3  C3  UNL     1      -9.332 -22.019  50.553  1.00  0.00     0.291 C 
ENDROOT
BRANCH   3   4
HETATM    4  N1  UNL     1      -8.855 -21.574  51.941  1.00  0.00    -0.061 N 
ATOM      5  H13 UNL     1      -9.018 -22.202  52.728  1.00  0.00     0.276 HD
ATOM      6  H12 UNL     1      -7.850 -21.549  52.118  1.00  0.00     0.276 HD
ATOM      7  H11 UNL     1      -9.360 -20.688  51.922  1.00  0.00     0.276 HD
ENDBRANCH   3   4
BRANCH   3   8
HETATM    8  C4  UNL     1      -9.265 -20.736  49.967  1.00  0.00    -0.019 C 
HETATM    9  C5  UNL     1     -10.199 -20.294  49.152  1.00  0.00     0.060 A 
HETATM   10  C6  UNL     1     -10.335 -19.082  48.474  1.00  0.00     0.138 A 
HETATM   11  C8  UNL     1     -11.224 -21.191  49.007  1.00  0.00     0.139 A 
HETATM   12  N2  UNL     1     -11.448 -18.856  47.730  1.00  0.00    -0.291 N 
HETATM   13  N6  UNL     1      -9.497 -18.114  48.368  1.00  0.00    -0.289 N 
HETATM   14  C7  UNL     1     -12.417 -19.775  47.630  1.00  0.00     0.348 A 
ATOM     15  H2  UNL     1     -11.547 -17.969  47.238  1.00  0.00     0.172 HD
HETATM   16  O1  UNL     1     -13.460 -19.563  46.934  1.00  0.00    -0.245 OA
HETATM   17  N3  UNL     1     -12.338 -20.949  48.253  1.00  0.00    -0.195 N 
HETATM   18  N7  UNL     1      -8.213 -18.027  48.908  1.00  0.00    -0.335 N 
ATOM     19  H6  UNL     1      -9.809 -17.310  47.822  1.00  0.00     0.188 HD
HETATM   20  C9  UNL     1      -7.393 -19.246  49.174  1.00  0.00     0.144 C 
ATOM     21  H7  UNL     1      -7.824 -17.110  49.126  1.00  0.00     0.180 HD
HETATM   22  C10 UNL     1      -8.052 -19.873  50.330  1.00  0.00     0.059 C 
HETATM   23  N5  UNL     1     -11.144 -22.337  49.555  1.00  0.00    -0.383 N 
ATOM     24  H52 UNL     1     -10.313 -22.518  50.117  1.00  0.00     0.157 HD
ATOM     25  H51 UNL     1     -11.907 -23.006  49.446  1.00  0.00     0.157 HD
BRANCH  17  26
HETATM   26  N4  UNL     1     -13.289 -21.949  48.202  1.00  0.00    -0.333 N 
ATOM     27  H42 UNL     1     -14.260 -21.671  48.344  1.00  0.00     0.177 HD
ATOM     28  H41 UNL     1     -13.100 -22.937  48.035  1.00  0.00     0.177 HD
ENDBRANCH  17  26
ENDBRANCH   3   8
TORSDOF 3
ENDMDL
MODEL 4
REMARK VINA RESULT: -6.109096281      2.536      3.854
REMARK  3 active torsions:
REMARK  status: ('A' for Active; 'I' for Inactive)
REMARK    1  A    between atoms: C3_3  and  N1_4 
REMARK    2  A    between atoms: C3_3  and  C4_8 
REMARK    3  A    between atoms: N3_15  and  N4_16 
ROOT
HETATM    1  C1  UNL     1      -3.950 -21.093  49.550  1.00  0.00     0.014 C 
HETATM    2  C2  UNL     1      -5.072 -20.855  49.964  1.00  0.00    -0.080 C 
HETATM    3  C3  UNL     1      -6.477 -20.576  50.446  1.00  0.00     0.291 C 
ENDROOT
BRANCH   3   4
HETATM    4  N1  UNL     1      -6.030 -19.825  51.707  1.00  0.00    -0.061 N 
ATOM      5  H13 UNL     1      -5.257 -19.165  51.622  1.00  0.00     0.276 HD
ATOM      6  H12 UNL     1      -6.652 -19.111  52.086  1.00  0.00     0.276 HD
ATOM      7  H11 UNL     1      -5.880 -20.671  52.258  1.00  0.00     0.276 HD
ENDBRANCH   3   4
BRANCH   3   8
HETATM    8  C4  UNL     1      -7.086 -19.461  49.832  1.00  0.00    -0.019 C 
HETATM    9  C5  UNL     1      -8.321 -19.506  49.378  1.00  0.00     0.060 A 
HETATM   10  C6  UNL     1      -9.110 -18.541  48.750  1.00  0.00     0.138 A 
HETATM   11  C8  UNL     1      -8.919 -20.713  49.628  1.00  0.00     0.139 A 
HETATM   12  N2  UNL     1     -10.396 -18.836  48.432  1.00  0.00    -0.291 N 
HETATM   13  N6  UNL     1      -8.780 -17.374  48.327  1.00  0.00    -0.289 N 
HETATM   14  C7  UNL     1     -10.924 -20.037  48.706  1.00  0.00     0.348 A 
ATOM     15  H2  UNL     1     -10.973 -18.130  47.976  1.00  0.00     0.172 HD
HETATM   16  O1  UNL     1     -12.129 -20.313  48.409  1.00  0.00    -0.245 OA
HETATM   17  N3  UNL     1     -10.217 -20.995  49.301  1.00  0.00    -0.195 N 
HETATM   18  N7  UNL     1      -7.526 -16.764  48.384  1.00  0.00    -0.335 N 
ATOM     19  H6  UNL     1      -9.526 -16.827  47.898  1.00  0.00     0.188 HD
HETATM   20  C9  UNL     1      -6.267 -17.565  48.388  1.00  0.00     0.144 C 
ATOM     21  H7  UNL     1      -7.468 -15.746  48.423  1.00  0.00     0.180 HD
HETATM   22  C10 UNL     1      -6.244 -18.186  49.721  1.00  0.00     0.059 C 
HETATM   23  N5  UNL     1      -8.245 -21.657  50.152  1.00  0.00    -0.383 N 
ATOM     24  H52 UNL     1      -7.278 -21.447  50.395  1.00  0.00     0.157 HD
ATOM     25  H51 UNL     1      -8.690 -22.556  50.338  1.00  0.00     0.157 HD
BRANCH  17  26
HETATM   26  N4  UNL     1     -10.682 -22.256  49.617  1.00  0.00    -0.333 N 
ATOM     27  H42 UNL     1     -10.833 -22.458  50.605  1.00  0.00     0.177 HD
ATOM     28  H41 UNL     1     -10.884 -22.997  48.946  1.00  0.00     0.177 HD
ENDBRANCH  17  26
ENDBRANCH   3   8
TORSDOF 3
ENDMDL
MODEL 5
REMARK VINA RESULT: -6.008561838      2.259      4.200
REMARK  3 active torsions:
REMARK  status: ('A' for Active; 'I' for Inactive)
REMARK    1  A    between atoms: C3_3  and  N1_4 
REMARK    2  A    between atoms: C3_3  and  C4_8 
REMARK    3  A    between atoms: N3_15  and  N4_16 
ROOT
HETATM    1  C1  UNL     1      -8.824 -16.088  50.422  1.00  0.00     0.014 C 
HETATM    2  C2  UNL     1      -8.590 -16.985  49.629  1.00  0.00    -0.080 C 
HETATM    3  C3  UNL     1      -8.337 -18.104  48.645  1.00  0.00     0.291 C 
ENDROOT
BRANCH   3   4
HETATM    4  N1  UNL     1      -6.812 -17.933  48.652  1.00  0.00    -0.061 N 
ATOM      5  H13 UNL     1      -6.363 -17.677  49.531  1.00  0.00     0.276 HD
ATOM      6  H12 UNL     1      -6.235 -18.769  48.554  1.00  0.00     0.276 HD
ATOM      7  H11 UNL     1      -6.802 -17.252  47.893  1.00  0.00     0.276 HD
ENDBRANCH   3   4
BRANCH   3   8
HETATM    8  C4  UNL     1      -8.333 -19.390  49.226  1.00  0.00    -0.019 C 
HETATM    9  C5  UNL     1      -9.404 -20.156  49.226  1.00  0.00     0.060 A 
HETATM   10  C6  UNL     1      -9.622 -21.438  49.730  1.00  0.00     0.138 A 
HETATM   11  C8  UNL     1     -10.454 -19.575  48.564  1.00  0.00     0.139 A 
HETATM   12  N2  UNL     1     -10.828 -22.032  49.540  1.00  0.00    -0.291 N 
HETATM   13  N6  UNL     1      -8.852 -22.167  50.455  1.00  0.00    -0.289 N 
HETATM   14  C7  UNL     1     -11.815 -21.412  48.881  1.00  0.00     0.348 A 
ATOM     15  H2  UNL     1     -10.985 -22.971  49.906  1.00  0.00     0.172 HD
HETATM   16  O1  UNL     1     -12.944 -21.968  48.702  1.00  0.00    -0.245 OA
HETATM   17  N3  UNL     1     -11.662 -20.187  48.381  1.00  0.00    -0.195 N 
HETATM   18  N7  UNL     1      -7.579 -21.854  50.937  1.00  0.00    -0.335 N 
ATOM     19  H6  UNL     1      -9.214 -23.086  50.709  1.00  0.00     0.188 HD
HETATM   20  C9  UNL     1      -7.167 -20.443  51.196  1.00  0.00     0.144 C 
ATOM     21  H7  UNL     1      -6.915 -22.607  51.116  1.00  0.00     0.180 HD
HETATM   22  C10 UNL     1      -7.018 -19.863  49.853  1.00  0.00     0.059 C 
HETATM   23  N5  UNL     1     -10.344 -18.386  48.122  1.00  0.00    -0.383 N 
ATOM     24  H52 UNL     1      -9.442 -17.930  48.259  1.00  0.00     0.157 HD
ATOM     25  H51 UNL     1     -11.125 -17.953  47.630  1.00  0.00     0.157 HD
BRANCH  17  26
HETATM   26  N4  UNL     1     -12.625 -19.477  47.692  1.00  0.00    -0.333 N 
ATOM     27  H42 UNL     1     -13.597 -19.636  47.959  1.00  0.00     0.177 HD
ATOM     28  H41 UNL     1     -12.445 -18.810  46.941  1.00  0.00     0.177 HD
ENDBRANCH  17  26
ENDBRANCH   3   8
TORSDOF 3
ENDMDL
