MODEL 1
REMARK VINA RESULT: -7.846716089      0.000      0.000
REMARK  10 active torsions:
REMARK  status: ('A' for Active; 'I' for Inactive)
REMARK    1  A    between atoms: C3_5  and  C4_6 
REMARK    2  A    between atoms: C3_5  and  N2_10 
REMARK    3  A    between atoms: C4_6  and  C5_7 
REMARK    4  A    between atoms: N2_10  and  C8_12 
REMARK    5  A    between atoms: C8_12  and  C9_13 
REMARK    6  A    between atoms: C8_12  and  C22_36 
REMARK    7  A    between atoms: C9_13  and  O1_14 
REMARK    8  A    between atoms: C9_13  and  N3_16 
REMARK    9  A    between atoms: C15_25  and  C16_26 
REMARK       I    between atoms: C16_26  and  N5_28 
REMARK   10  A    between atoms: N5_28  and  C17_30 
ROOT
HETATM    1  C1  UNL     1       4.555   2.016  21.900  1.00  0.00     0.037 C 
HETATM    2  C2  UNL     1       5.170   3.037  21.750  1.00  0.00     0.000 C 
HETATM    3  N1  UNL     1       5.849   4.202  21.614  1.00  0.00    -0.306 N 
ATOM      4  H1  UNL     1       5.318   4.993  21.976  1.00  0.00     0.177 HD
HETATM    5  C3  UNL     1       6.958   4.560  21.161  1.00  0.00     0.085 C 
ENDROOT
BRANCH   5   6
HETATM    6  C4  UNL     1       7.902   3.602  20.582  1.00  0.00     0.081 C 
BRANCH   6   7
HETATM    7  C5  UNL     1       7.846   3.440  19.090  1.00  0.00    -0.007 A 
HETATM    8  C6  UNL     1       9.023   3.738  18.240  1.00  0.00     0.005 A 
HETATM    9  C7  UNL     1       8.671   2.318  18.522  1.00  0.00     0.005 A 
ENDBRANCH   6   7
ENDBRANCH   5   6
BRANCH   5  10
HETATM   10  N2  UNL     1       7.263   5.927  21.232  1.00  0.00    -0.367 N 
ATOM     11  H2  UNL     1       7.169   6.281  22.184  1.00  0.00     0.161 HD
BRANCH  10  12
HETATM   12  C8  UNL     1       7.666   6.945  20.339  1.00  0.00     0.161 C 
BRANCH  12  13
HETATM   13  C9  UNL     1       8.270   8.072  21.083  1.00  0.00     0.143 C 
BRANCH  13  14
HETATM   14  O1  UNL     1       9.375   8.577  20.567  1.00  0.00    -0.348 OA
ATOM     15  H1  UNL     1      10.137   8.574  21.134  1.00  0.00     0.219 HD
ENDBRANCH  13  14
BRANCH  13  16
HETATM   16  N3  UNL     1       7.881   8.718  22.255  1.00  0.00    -0.310 N 
HETATM   17  C10 UNL     1       8.469   8.086  23.515  1.00  0.00     0.204 C 
HETATM   18  C11 UNL     1       9.690   8.801  23.825  1.00  0.00     0.085 C 
HETATM   19  C12 UNL     1       7.493   8.265  24.646  1.00  0.00     0.120 C 
HETATM   20  N4  UNL     1      10.668   9.378  24.092  1.00  0.00    -0.195 NA
HETATM   21  C13 UNL     1       6.062   8.299  24.204  1.00  0.00     0.251 C 
HETATM   22  F1  UNL     1       5.717   7.100  23.672  1.00  0.00    -0.206 F 
HETATM   23  F2  UNL     1       5.288   8.615  25.327  1.00  0.00    -0.206 F 
HETATM   24  C14 UNL     1       5.754   9.387  23.193  1.00  0.00     0.142 C 
HETATM   25  C15 UNL     1       7.077   9.827  22.571  1.00  0.00     0.088 C 
BRANCH  25  26
HETATM   26  C16 UNL     1       6.961  10.991  21.729  1.00  0.00     0.265 C 
HETATM   27  O2  UNL     1       8.019  11.524  21.272  1.00  0.00    -0.266 OA
HETATM   28  N5  UNL     1       5.727  11.567  21.373  1.00  0.00    -0.334 N 
ATOM     29  H5  UNL     1       4.866  11.153  21.730  1.00  0.00     0.164 HD
BRANCH  28  30
HETATM   30  C17 UNL     1       5.644  12.735  20.513  1.00  0.00     0.122 C 
HETATM   31  C18 UNL     1       6.388  13.890  20.974  1.00  0.00     0.091 C 
HETATM   32  N6  UNL     1       6.976  14.810  21.351  1.00  0.00    -0.195 NA
HETATM   33  C19 UNL     1       5.988  12.433  19.057  1.00  0.00     0.047 C 
HETATM   34  C20 UNL     1       4.530  12.221  18.792  1.00  0.00     0.007 C 
HETATM   35  C21 UNL     1       4.228  13.005  20.073  1.00  0.00     0.047 C 
ENDBRANCH  28  30
ENDBRANCH  25  26
ENDBRANCH  13  16
ENDBRANCH  12  13
BRANCH  12  36
HETATM   36  C22 UNL     1       6.516   7.541  19.545  1.00  0.00     0.008 C 
HETATM   37  C23 UNL     1       5.214   7.610  20.267  1.00  0.00     0.012 C 
HETATM   38  C24 UNL     1       6.369   6.794  18.205  1.00  0.00     0.012 C 
ENDBRANCH  12  36
ENDBRANCH  10  12
ENDBRANCH   5  10
TORSDOF 10
ENDMDL
MODEL 2
REMARK VINA RESULT: -7.823190285      1.757      2.356
REMARK  10 active torsions:
REMARK  status: ('A' for Active; 'I' for Inactive)
REMARK    1  A    between atoms: C3_5  and  C4_6 
REMARK    2  A    between atoms: C3_5  and  N2_10 
REMARK    3  A    between atoms: C4_6  and  C5_7 
REMARK    4  A    between atoms: N2_10  and  C8_12 
REMARK    5  A    between atoms: C8_12  and  C9_13 
REMARK    6  A    between atoms: C8_12  and  C22_36 
REMARK    7  A    between atoms: C9_13  and  O1_14 
REMARK    8  A    between atoms: C9_13  and  N3_16 
REMARK    9  A    between atoms: C15_25  and  C16_26 
REMARK       I    between atoms: C16_26  and  N5_28 
REMARK   10  A    between atoms: N5_28  and  C17_30 
ROOT
HETATM    1  C1  UNL     1       4.768   1.887  22.158  1.00  0.00     0.037 C 
HETATM    2  C2  UNL     1       5.267   2.932  21.836  1.00  0.00     0.000 C 
HETATM    3  N1  UNL     1       5.824   4.124  21.510  1.00  0.00    -0.306 N 
ATOM      4  H1  UNL     1       5.369   4.898  21.992  1.00  0.00     0.177 HD
HETATM    5  C3  UNL     1       6.752   4.521  20.771  1.00  0.00     0.085 C 
ENDROOT
BRANCH   5   6
HETATM    6  C4  UNL     1       7.555   3.594  19.972  1.00  0.00     0.081 C 
BRANCH   6   7
HETATM    7  C5  UNL     1       8.385   4.209  18.882  1.00  0.00    -0.007 A 
HETATM    8  C6  UNL     1       9.383   3.410  18.132  1.00  0.00     0.005 A 
HETATM    9  C7  UNL     1       8.082   3.741  17.485  1.00  0.00     0.005 A 
ENDBRANCH   6   7
ENDBRANCH   5   6
BRANCH   5  10
HETATM   10  N2  UNL     1       6.994   5.902  20.742  1.00  0.00    -0.367 N 
ATOM     11  H2  UNL     1       7.023   6.255  19.785  1.00  0.00     0.161 HD
BRANCH  10  12
HETATM   12  C8  UNL     1       7.209   6.936  21.681  1.00  0.00     0.161 C 
BRANCH  12  13
HETATM   13  C9  UNL     1       5.917   7.503  22.126  1.00  0.00     0.143 C 
BRANCH  13  14
HETATM   14  O1  UNL     1       4.846   7.072  21.485  1.00  0.00    -0.348 OA
ATOM     15  H1  UNL     1       4.027   7.496  21.713  1.00  0.00     0.219 HD
ENDBRANCH  13  14
BRANCH  13  16
HETATM   16  N3  UNL     1       5.611   8.429  23.121  1.00  0.00    -0.310 N 
HETATM   17  C10 UNL     1       5.561   7.818  24.520  1.00  0.00     0.204 C 
HETATM   18  C11 UNL     1       6.870   7.993  25.112  1.00  0.00     0.085 C 
HETATM   19  C12 UNL     1       4.545   8.567  25.339  1.00  0.00     0.120 C 
HETATM   20  N4  UNL     1       7.918   8.141  25.605  1.00  0.00    -0.195 NA
HETATM   21  C13 UNL     1       3.417   9.128  24.529  1.00  0.00     0.251 C 
HETATM   22  F1  UNL     1       2.699   8.117  23.979  1.00  0.00    -0.206 F 
HETATM   23  F2  UNL     1       2.640   9.914  25.389  1.00  0.00    -0.206 F 
HETATM   24  C14 UNL     1       3.858  10.069  23.425  1.00  0.00     0.142 C 
HETATM   25  C15 UNL     1       5.339   9.808  23.160  1.00  0.00     0.088 C 
BRANCH  25  26
HETATM   26  C16 UNL     1       5.943  10.763  22.265  1.00  0.00     0.265 C 
HETATM   27  O2  UNL     1       7.017  11.340  22.620  1.00  0.00    -0.266 OA
HETATM   28  N5  UNL     1       5.409  11.086  21.004  1.00  0.00    -0.334 N 
ATOM     29  H5  UNL     1       4.547  10.633  20.701  1.00  0.00     0.164 HD
BRANCH  28  30
HETATM   30  C17 UNL     1       6.048  12.046  20.121  1.00  0.00     0.122 C 
HETATM   31  C18 UNL     1       5.846  13.436  20.477  1.00  0.00     0.091 C 
HETATM   32  N6  UNL     1       5.673  14.542  20.761  1.00  0.00    -0.195 NA
HETATM   33  C19 UNL     1       7.534  11.768  19.908  1.00  0.00     0.047 C 
HETATM   34  C20 UNL     1       7.176  10.985  18.683  1.00  0.00     0.007 C 
HETATM   35  C21 UNL     1       5.825  11.705  18.670  1.00  0.00     0.047 C 
ENDBRANCH  28  30
ENDBRANCH  25  26
ENDBRANCH  13  16
ENDBRANCH  12  13
BRANCH  12  36
HETATM   36  C22 UNL     1       8.004   8.103  21.122  1.00  0.00     0.008 C 
HETATM   37  C23 UNL     1       8.638   7.862  19.795  1.00  0.00     0.012 C 
HETATM   38  C24 UNL     1       9.045   8.566  22.159  1.00  0.00     0.012 C 
ENDBRANCH  12  36
ENDBRANCH  10  12
ENDBRANCH   5  10
TORSDOF 10
ENDMDL
MODEL 3
REMARK VINA RESULT: -7.753925206      1.695      2.578
REMARK  10 active torsions:
REMARK  status: ('A' for Active; 'I' for Inactive)
REMARK    1  A    between atoms: C3_5  and  C4_6 
REMARK    2  A    between atoms: C3_5  and  N2_10 
REMARK    3  A    between atoms: C4_6  and  C5_7 
REMARK    4  A    between atoms: N2_10  and  C8_12 
REMARK    5  A    between atoms: C8_12  and  C9_13 
REMARK    6  A    between atoms: C8_12  and  C22_36 
REMARK    7  A    between atoms: C9_13  and  O1_14 
REMARK    8  A    between atoms: C9_13  and  N3_16 
REMARK    9  A    between atoms: C15_25  and  C16_26 
REMARK       I    between atoms: C16_26  and  N5_28 
REMARK   10  A    between atoms: N5_28  and  C17_30 
ROOT
HETATM    1  C1  UNL     1       6.003   5.844  15.642  1.00  0.00     0.037 C 
HETATM    2  C2  UNL     1       6.045   5.886  16.843  1.00  0.00     0.000 C 
HETATM    3  N1  UNL     1       6.055   5.925  18.197  1.00  0.00    -0.306 N 
ATOM      4  H1  UNL     1       5.186   6.308  18.570  1.00  0.00     0.177 HD
HETATM    5  C3  UNL     1       6.851   5.613  19.110  1.00  0.00     0.085 C 
ENDROOT
BRANCH   5   6
HETATM    6  C4  UNL     1       8.169   5.044  18.824  1.00  0.00     0.081 C 
BRANCH   6   7
HETATM    7  C5  UNL     1       8.200   3.577  18.506  1.00  0.00    -0.007 A 
HETATM    8  C6  UNL     1       8.362   3.096  17.113  1.00  0.00     0.005 A 
HETATM    9  C7  UNL     1       9.525   3.035  18.043  1.00  0.00     0.005 A 
ENDBRANCH   6   7
ENDBRANCH   5   6
BRANCH   5  10
HETATM   10  N2  UNL     1       6.425   5.832  20.427  1.00  0.00    -0.367 N 
ATOM     11  H2  UNL     1       6.563   5.004  21.007  1.00  0.00     0.161 HD
BRANCH  10  12
HETATM   12  C8  UNL     1       5.856   6.892  21.169  1.00  0.00     0.161 C 
BRANCH  12  13
HETATM   13  C9  UNL     1       6.764   7.302  22.262  1.00  0.00     0.143 C 
BRANCH  13  14
HETATM   14  O1  UNL     1       7.920   6.666  22.321  1.00  0.00    -0.348 OA
ATOM     15  H1  UNL     1       8.681   7.162  22.044  1.00  0.00     0.219 HD
ENDBRANCH  13  14
BRANCH  13  16
HETATM   16  N3  UNL     1       6.626   8.258  23.266  1.00  0.00    -0.310 N 
HETATM   17  C10 UNL     1       6.735   7.675  24.673  1.00  0.00     0.204 C 
HETATM   18  C11 UNL     1       8.116   7.805  25.087  1.00  0.00     0.085 C 
HETATM   19  C12 UNL     1       5.864   8.481  25.599  1.00  0.00     0.120 C 
HETATM   20  N4  UNL     1       9.224   7.918  25.437  1.00  0.00    -0.195 NA
HETATM   21  C13 UNL     1       4.663   9.073  24.929  1.00  0.00     0.251 C 
HETATM   22  F1  UNL     1       3.841   8.083  24.501  1.00  0.00    -0.206 F 
HETATM   23  F2  UNL     1       4.035   9.906  25.864  1.00  0.00    -0.206 F 
HETATM   24  C14 UNL     1       4.993   9.975  23.755  1.00  0.00     0.142 C 
HETATM   25  C15 UNL     1       6.416   9.648  23.308  1.00  0.00     0.088 C 
BRANCH  25  26
HETATM   26  C16 UNL     1       6.935  10.560  22.320  1.00  0.00     0.265 C 
HETATM   27  O2  UNL     1       8.193  10.693  22.211  1.00  0.00    -0.266 OA
HETATM   28  N5  UNL     1       6.117  11.311  21.455  1.00  0.00    -0.334 N 
ATOM     29  H5  UNL     1       5.104  11.218  21.528  1.00  0.00     0.164 HD
BRANCH  28  30
HETATM   30  C17 UNL     1       6.673  12.215  20.463  1.00  0.00     0.122 C 
HETATM   31  C18 UNL     1       7.481  13.292  21.000  1.00  0.00     0.091 C 
HETATM   32  N6  UNL     1       8.117  14.153  21.434  1.00  0.00    -0.195 NA
HETATM   33  C19 UNL     1       7.429  11.493  19.351  1.00  0.00     0.047 C 
HETATM   34  C20 UNL     1       6.169  11.493  18.543  1.00  0.00     0.007 C 
HETATM   35  C21 UNL     1       5.646  12.619  19.438  1.00  0.00     0.047 C 
ENDBRANCH  28  30
ENDBRANCH  25  26
ENDBRANCH  13  16
ENDBRANCH  12  13
BRANCH  12  36
HETATM   36  C22 UNL     1       4.542   6.523  21.837  1.00  0.00     0.008 C 
HETATM   37  C23 UNL     1       4.498   5.163  22.444  1.00  0.00     0.012 C 
HETATM   38  C24 UNL     1       3.380   6.727  20.845  1.00  0.00     0.012 C 
ENDBRANCH  12  36
ENDBRANCH  10  12
ENDBRANCH   5  10
TORSDOF 10
ENDMDL
MODEL 4
REMARK VINA RESULT: -7.666284401      3.162      5.285
REMARK  10 active torsions:
REMARK  status: ('A' for Active; 'I' for Inactive)
REMARK    1  A    between atoms: C3_5  and  C4_6 
REMARK    2  A    between atoms: C3_5  and  N2_10 
REMARK    3  A    between atoms: C4_6  and  C5_7 
REMARK    4  A    between atoms: N2_10  and  C8_12 
REMARK    5  A    between atoms: C8_12  and  C9_13 
REMARK    6  A    between atoms: C8_12  and  C22_36 
REMARK    7  A    between atoms: C9_13  and  O1_14 
REMARK    8  A    between atoms: C9_13  and  N3_16 
REMARK    9  A    between atoms: C15_25  and  C16_26 
REMARK       I    between atoms: C16_26  and  N5_28 
REMARK   10  A    between atoms: N5_28  and  C17_30 
ROOT
HETATM    1  C1  UNL     1       6.051   5.330  14.755  1.00  0.00     0.037 C 
HETATM    2  C2  UNL     1       6.350   5.206  15.912  1.00  0.00     0.000 C 
HETATM    3  N1  UNL     1       6.650   5.071  17.227  1.00  0.00    -0.306 N 
ATOM      4  H1  UNL     1       6.063   5.666  17.811  1.00  0.00     0.177 HD
HETATM    5  C3  UNL     1       7.459   4.406  17.911  1.00  0.00     0.085 C 
ENDROOT
BRANCH   5   6
HETATM    6  C4  UNL     1       8.412   3.480  17.296  1.00  0.00     0.081 C 
BRANCH   6   7
HETATM    7  C5  UNL     1       9.289   2.711  18.242  1.00  0.00    -0.007 A 
HETATM    8  C6  UNL     1       9.054   1.272  18.511  1.00  0.00     0.005 A 
HETATM    9  C7  UNL     1      10.176   1.671  17.614  1.00  0.00     0.005 A 
ENDBRANCH   6   7
ENDBRANCH   5   6
BRANCH   5  10
HETATM   10  N2  UNL     1       7.415   4.586  19.300  1.00  0.00    -0.367 N 
ATOM     11  H2  UNL     1       8.302   4.337  19.738  1.00  0.00     0.161 HD
BRANCH  10  12
HETATM   12  C8  UNL     1       6.471   5.020  20.258  1.00  0.00     0.161 C 
BRANCH  12  13
HETATM   13  C9  UNL     1       6.985   6.198  20.991  1.00  0.00     0.143 C 
BRANCH  13  14
HETATM   14  O1  UNL     1       7.925   5.956  21.885  1.00  0.00    -0.348 OA
ATOM     15  H1  UNL     1       8.251   6.712  22.360  1.00  0.00     0.219 HD
ENDBRANCH  13  14
BRANCH  13  16
HETATM   16  N3  UNL     1       6.655   7.550  20.911  1.00  0.00    -0.310 N 
HETATM   17  C10 UNL     1       7.241   8.242  19.683  1.00  0.00     0.204 C 
HETATM   18  C11 UNL     1       6.236   8.195  18.642  1.00  0.00     0.085 C 
HETATM   19  C12 UNL     1       7.525   9.679  20.028  1.00  0.00     0.120 C 
HETATM   20  N4  UNL     1       5.428   8.174  17.800  1.00  0.00    -0.195 NA
HETATM   21  C13 UNL     1       7.872   9.893  21.470  1.00  0.00     0.251 C 
HETATM   22  F1  UNL     1       9.036   9.259  21.761  1.00  0.00    -0.206 F 
HETATM   23  F2  UNL     1       7.964  11.275  21.674  1.00  0.00    -0.206 F 
HETATM   24  C14 UNL     1       6.804   9.421  22.438  1.00  0.00     0.142 C 
HETATM   25  C15 UNL     1       5.899   8.446  21.687  1.00  0.00     0.088 C 
BRANCH  25  26
HETATM   26  C16 UNL     1       4.725   8.061  22.428  1.00  0.00     0.265 C 
HETATM   27  O2  UNL     1       3.743   7.556  21.800  1.00  0.00    -0.266 OA
HETATM   28  N5  UNL     1       4.608   8.207  23.823  1.00  0.00    -0.334 N 
ATOM     29  H5  UNL     1       5.385   8.612  24.345  1.00  0.00     0.164 HD
BRANCH  28  30
HETATM   30  C17 UNL     1       3.413   7.800  24.542  1.00  0.00     0.122 C 
HETATM   31  C18 UNL     1       3.075   6.396  24.421  1.00  0.00     0.091 C 
HETATM   32  N6  UNL     1       2.806   5.277  24.313  1.00  0.00    -0.195 NA
HETATM   33  C19 UNL     1       3.425   8.213  26.010  1.00  0.00     0.047 C 
HETATM   34  C20 UNL     1       2.687   9.459  25.630  1.00  0.00     0.007 C 
HETATM   35  C21 UNL     1       2.276   8.764  24.328  1.00  0.00     0.047 C 
ENDBRANCH  28  30
ENDBRANCH  25  26
ENDBRANCH  13  16
ENDBRANCH  12  13
BRANCH  12  36
HETATM   36  C22 UNL     1       6.162   3.975  21.317  1.00  0.00     0.008 C 
HETATM   37  C23 UNL     1       6.801   2.645  21.103  1.00  0.00     0.012 C 
HETATM   38  C24 UNL     1       4.637   3.839  21.483  1.00  0.00     0.012 C 
ENDBRANCH  12  36
ENDBRANCH  10  12
ENDBRANCH   5  10
TORSDOF 10
ENDMDL
MODEL 5
REMARK VINA RESULT: -7.554427342      2.690      3.650
REMARK  10 active torsions:
REMARK  status: ('A' for Active; 'I' for Inactive)
REMARK    1  A    between atoms: C3_5  and  C4_6 
REMARK    2  A    between atoms: C3_5  and  N2_10 
REMARK    3  A    between atoms: C4_6  and  C5_7 
REMARK    4  A    between atoms: N2_10  and  C8_12 
REMARK    5  A    between atoms: C8_12  and  C9_13 
REMARK    6  A    between atoms: C8_12  and  C22_36 
REMARK    7  A    between atoms: C9_13  and  O1_14 
REMARK    8  A    between atoms: C9_13  and  N3_16 
REMARK    9  A    between atoms: C15_25  and  C16_26 
REMARK       I    between atoms: C16_26  and  N5_28 
REMARK   10  A    between atoms: N5_28  and  C17_30 
ROOT
HETATM    1  C1  UNL     1       4.569   1.436  21.892  1.00  0.00     0.037 C 
HETATM    2  C2  UNL     1       5.296   2.375  21.701  1.00  0.00     0.000 C 
HETATM    3  N1  UNL     1       6.117   3.438  21.524  1.00  0.00    -0.306 N 
ATOM      4  H1  UNL     1       5.941   4.169  22.213  1.00  0.00     0.177 HD
HETATM    5  C3  UNL     1       7.034   3.757  20.735  1.00  0.00     0.085 C 
ENDROOT
BRANCH   5   6
HETATM    6  C4  UNL     1       7.466   2.870  19.654  1.00  0.00     0.081 C 
BRANCH   6   7
HETATM    7  C5  UNL     1       8.663   3.322  18.868  1.00  0.00    -0.007 A 
HETATM    8  C6  UNL     1       9.486   2.358  18.099  1.00  0.00     0.005 A 
HETATM    9  C7  UNL     1       8.532   3.242  17.371  1.00  0.00     0.005 A 
ENDBRANCH   6   7
ENDBRANCH   5   6
BRANCH   5  10
HETATM   10  N2  UNL     1       7.636   5.008  20.933  1.00  0.00    -0.367 N 
ATOM     11  H2  UNL     1       8.575   4.913  21.320  1.00  0.00     0.161 HD
BRANCH  10  12
HETATM   12  C8  UNL     1       7.291   6.364  20.740  1.00  0.00     0.161 C 
BRANCH  12  13
HETATM   13  C9  UNL     1       6.820   6.961  22.008  1.00  0.00     0.143 C 
BRANCH  13  14
HETATM   14  O1  UNL     1       5.852   6.311  22.628  1.00  0.00    -0.348 OA
ATOM     15  H1  UNL     1       6.129   5.643  23.245  1.00  0.00     0.219 HD
ENDBRANCH  13  14
BRANCH  13  16
HETATM   16  N3  UNL     1       7.216   8.110  22.691  1.00  0.00    -0.310 N 
HETATM   17  C10 UNL     1       8.676   8.483  22.446  1.00  0.00     0.204 C 
HETATM   18  C11 UNL     1       8.700   9.430  21.351  1.00  0.00     0.085 C 
HETATM   19  C12 UNL     1       9.219   9.146  23.683  1.00  0.00     0.120 C 
HETATM   20  N4  UNL     1       8.731  10.204  20.477  1.00  0.00    -0.195 NA
HETATM   21  C13 UNL     1       8.584   8.665  24.950  1.00  0.00     0.251 C 
HETATM   22  F1  UNL     1       8.872   7.353  25.140  1.00  0.00    -0.206 F 
HETATM   23  F2  UNL     1       9.074   9.464  25.990  1.00  0.00    -0.206 F 
HETATM   24  C14 UNL     1       7.078   8.845  24.992  1.00  0.00     0.142 C 
HETATM   25  C15 UNL     1       6.595   9.029  23.555  1.00  0.00     0.088 C 
BRANCH  25  26
HETATM   26  C16 UNL     1       5.206   9.401  23.455  1.00  0.00     0.265 C 
HETATM   27  O2  UNL     1       4.912  10.554  23.012  1.00  0.00    -0.266 OA
HETATM   28  N5  UNL     1       4.149   8.545  23.815  1.00  0.00    -0.334 N 
ATOM     29  H5  UNL     1       4.366   7.615  24.172  1.00  0.00     0.164 HD
BRANCH  28  30
HETATM   30  C17 UNL     1       2.759   8.947  23.692  1.00  0.00     0.122 C 
HETATM   31  C18 UNL     1       2.349   9.337  22.358  1.00  0.00     0.091 C 
HETATM   32  N6  UNL     1       2.031   9.654  21.293  1.00  0.00    -0.195 NA
HETATM   33  C19 UNL     1       1.785   7.920  24.263  1.00  0.00     0.047 C 
HETATM   34  C20 UNL     1       1.813   8.666  25.560  1.00  0.00     0.007 C 
HETATM   35  C21 UNL     1       2.347   9.882  24.799  1.00  0.00     0.047 C 
ENDBRANCH  28  30
ENDBRANCH  25  26
ENDBRANCH  13  16
ENDBRANCH  12  13
BRANCH  12  36
HETATM   36  C22 UNL     1       6.162   6.564  19.742  1.00  0.00     0.008 C 
HETATM   37  C23 UNL     1       6.505   6.256  18.325  1.00  0.00     0.012 C 
HETATM   38  C24 UNL     1       5.595   7.990  19.880  1.00  0.00     0.012 C 
ENDBRANCH  12  36
ENDBRANCH  10  12
ENDBRANCH   5  10
TORSDOF 10
ENDMDL
