MODEL 1
REMARK VINA RESULT: -11.140488409      0.000      0.000
REMARK  10 active torsions:
REMARK  status: ('A' for Active; 'I' for Inactive)
REMARK    1  A    between atoms: C2_7  and  O1_8 
REMARK    2  A    between atoms: O1_8  and  C3_9 
REMARK    3  A    between atoms: C6_16  and  O2_17 
REMARK    4  A    between atoms: O2_17  and  C7_18 
REMARK    5  A    between atoms: C7_18  and  C8_19 
REMARK    6  A    between atoms: C7_18  and  C9_24 
REMARK    7  A    between atoms: C8_19  and  N6_20 
REMARK       I    between atoms: C9_24  and  N7_26 
REMARK    8  A    between atoms: N7_26  and  N8_27 
REMARK    9  A    between atoms: C10_30  and  N9_31 
REMARK   10  A    between atoms: C12_39  and  N12_40 
REMARK       I    between atoms: N12_40  and  C13_42 
ROOT
HETATM    1  C3  UNL     1      -0.804  -2.733  26.986  1.00  0.00     0.233 A 
HETATM    2  N4  UNL     1       0.318  -2.720  26.206  1.00  0.00    -0.305 N 
ATOM      3  H4  UNL     1       1.015  -3.464  26.186  1.00  0.00     0.171 HD
HETATM    4  C4  UNL     1       0.381  -1.601  25.473  1.00  0.00     0.153 A 
HETATM    5  N5  UNL     1       1.350  -1.265  24.602  1.00  0.00    -0.346 N 
ATOM      6  H5  UNL     1       2.218  -1.792  24.700  1.00  0.00     0.167 HD
HETATM    7  C5  UNL     1       1.354  -0.350  23.631  1.00  0.00     0.130 C 
HETATM    8  C6  UNL     1       0.731   0.930  23.735  1.00  0.00     0.129 C 
HETATM    9  C10 UNL     1      -0.469   1.147  24.392  1.00  0.00     0.136 C 
HETATM   10  N10 UNL     1      -1.080   0.342  25.294  1.00  0.00    -0.324 N 
ATOM     11  H10 UNL     1      -1.952   0.724  25.660  1.00  0.00     0.169 HD
HETATM   12  C11 UNL     1      -0.763  -0.857  25.801  1.00  0.00     0.155 A 
HETATM   13  N11 UNL     1      -1.435  -1.582  26.709  1.00  0.00    -0.305 N 
ATOM     14  H11 UNL     1      -2.315  -1.293  27.136  1.00  0.00     0.171 HD
ENDROOT
BRANCH   1  15
HETATM   15  O1  UNL     1      -1.184  -3.732  27.866  1.00  0.00    -0.256 OA
BRANCH  15  16
HETATM   16  C2  UNL     1      -0.289  -4.357  28.713  1.00  0.00     0.213 A 
HETATM   17  N3  UNL     1       0.591  -5.325  28.292  1.00  0.00    -0.262 N 
HETATM   18  N2  UNL     1       1.296  -5.712  29.329  1.00  0.00    -0.237 N 
ATOM     19  H3  UNL     1       0.681  -5.680  27.339  1.00  0.00     0.190 HD
HETATM   20  N1  UNL     1       0.929  -5.052  30.405  1.00  0.00    -0.263 N 
ATOM     21  H2  UNL     1       2.025  -6.424  29.303  1.00  0.00     0.208 HD
HETATM   22  C1  UNL     1       1.462  -5.189  31.740  1.00  0.00     0.181 C 
HETATM   23  C12 UNL     1      -0.070  -4.191  30.045  1.00  0.00     0.180 A 
BRANCH  23  24
HETATM   24  N12 UNL     1      -0.717  -3.298  30.940  1.00  0.00    -0.292 N 
HETATM   25  C13 UNL     1      -1.967  -3.374  31.545  1.00  0.00     0.334 C 
HETATM   26  N13 UNL     1      -2.392  -2.308  32.411  1.00  0.00    -0.040 NA
HETATM   27  O4  UNL     1      -2.771  -4.299  31.404  1.00  0.00    -0.251 OA
ATOM     28  H12 UNL     1      -0.177  -2.467  31.178  1.00  0.00     0.172 HD
ENDBRANCH  23  24
ENDBRANCH  15  16
ENDBRANCH   1  15
BRANCH   9  29
HETATM   29  N9  UNL     1      -1.088   2.246  24.109  1.00  0.00    -0.383 N 
ATOM     30  H92 UNL     1      -1.871   2.159  23.461  1.00  0.00     0.157 HD
ATOM     31  H91 UNL     1      -0.736   3.093  24.556  1.00  0.00     0.157 HD
ENDBRANCH   9  29
BRANCH   8  32
HETATM   32  O2  UNL     1       1.359   1.931  23.164  1.00  0.00    -0.328 OA
BRANCH  32  33
HETATM   33  C7  UNL     1       2.478   2.651  23.196  1.00  0.00     0.263 C 
BRANCH  33  34
HETATM   34  C8  UNL     1       3.706   1.788  23.547  1.00  0.00     0.273 C 
BRANCH  34  35
HETATM   35  N6  UNL     1       4.536   1.540  22.401  1.00  0.00    -0.076 N 
ATOM     36  H63 UNL     1       4.009   1.089  21.654  1.00  0.00     0.274 HD
ATOM     37  H62 UNL     1       4.778   2.409  21.925  1.00  0.00     0.274 HD
ATOM     38  H61 UNL     1       5.370   1.005  22.642  1.00  0.00     0.274 HD
ENDBRANCH  34  35
ENDBRANCH  33  34
BRANCH  33  39
HETATM   39  C9  UNL     1       2.451   3.705  24.313  1.00  0.00     0.342 C 
HETATM   40  O3  UNL     1       3.330   3.715  25.165  1.00  0.00    -0.252 OA
HETATM   41  N7  UNL     1       1.347   4.605  24.224  1.00  0.00    -0.291 NA
BRANCH  41  42
HETATM   42  N8  UNL     1       0.384   5.389  24.147  1.00  0.00    -0.277 N 
ATOM     43  H82 UNL     1       1.158   4.729  24.231  1.00  0.00     0.191 HD
ATOM     44  H81 UNL     1      -0.405   6.032  24.084  1.00  0.00     0.191 HD
ENDBRANCH  41  42
ENDBRANCH  33  39
ENDBRANCH  32  33
ENDBRANCH   8  32
TORSDOF 10
ENDMDL
MODEL 2
REMARK VINA RESULT: -10.563906749      1.128      2.096
REMARK  10 active torsions:
REMARK  status: ('A' for Active; 'I' for Inactive)
REMARK    1  A    between atoms: C2_7  and  O1_8 
REMARK    2  A    between atoms: O1_8  and  C3_9 
REMARK    3  A    between atoms: C6_16  and  O2_17 
REMARK    4  A    between atoms: O2_17  and  C7_18 
REMARK    5  A    between atoms: C7_18  and  C8_19 
REMARK    6  A    between atoms: C7_18  and  C9_24 
REMARK    7  A    between atoms: C8_19  and  N6_20 
REMARK       I    between atoms: C9_24  and  N7_26 
REMARK    8  A    between atoms: N7_26  and  N8_27 
REMARK    9  A    between atoms: C10_30  and  N9_31 
REMARK   10  A    between atoms: C12_39  and  N12_40 
REMARK       I    between atoms: N12_40  and  C13_42 
ROOT
HETATM    1  C3  UNL     1      -0.619  -3.520  27.464  1.00  0.00     0.233 A 
HETATM    2  N4  UNL     1       0.481  -3.281  26.688  1.00  0.00    -0.305 N 
ATOM      3  H4  UNL     1       1.286  -3.903  26.622  1.00  0.00     0.171 HD
HETATM    4  C4  UNL     1       0.361  -2.122  26.027  1.00  0.00     0.153 A 
HETATM    5  N5  UNL     1       1.258  -1.584  25.181  1.00  0.00    -0.346 N 
ATOM      6  H5  UNL     1       2.198  -1.973  25.247  1.00  0.00     0.167 HD
HETATM    7  C5  UNL     1       1.109  -0.621  24.269  1.00  0.00     0.130 C 
HETATM    8  C6  UNL     1       0.293   0.536  24.453  1.00  0.00     0.129 C 
HETATM    9  C10 UNL     1      -0.920   0.519  25.120  1.00  0.00     0.136 C 
HETATM   10  N10 UNL     1      -1.389  -0.427  25.969  1.00  0.00    -0.324 N 
ATOM     11  H10 UNL     1      -2.308  -0.211  26.356  1.00  0.00     0.169 HD
HETATM   12  C11 UNL     1      -0.883  -1.590  26.400  1.00  0.00     0.155 A 
HETATM   13  N11 UNL     1      -1.426  -2.467  27.259  1.00  0.00    -0.305 N 
ATOM     14  H11 UNL     1      -2.337  -2.348  27.702  1.00  0.00     0.171 HD
ENDROOT
BRANCH   1  15
HETATM   15  O1  UNL     1      -0.830  -4.619  28.278  1.00  0.00    -0.256 OA
BRANCH  15  16
HETATM   16  C2  UNL     1       0.041  -4.972  29.290  1.00  0.00     0.213 A 
HETATM   17  N3  UNL     1       0.997  -5.950  29.150  1.00  0.00    -0.262 N 
HETATM   18  N2  UNL     1       1.653  -6.042  30.283  1.00  0.00    -0.237 N 
ATOM     19  H3  UNL     1       1.166  -6.507  28.313  1.00  0.00     0.190 HD
HETATM   20  N1  UNL     1       1.184  -5.179  31.157  1.00  0.00    -0.263 N 
ATOM     21  H2  UNL     1       2.420  -6.691  30.460  1.00  0.00     0.208 HD
HETATM   22  C1  UNL     1       1.636  -4.970  32.512  1.00  0.00     0.181 C 
HETATM   23  C12 UNL     1       0.166  -4.491  30.557  1.00  0.00     0.180 A 
BRANCH  23  24
HETATM   24  N12 UNL     1      -0.584  -3.463  31.186  1.00  0.00    -0.292 N 
HETATM   25  C13 UNL     1      -1.916  -3.431  31.585  1.00  0.00     0.334 C 
HETATM   26  N13 UNL     1      -2.437  -2.238  32.196  1.00  0.00    -0.040 NA
HETATM   27  O4  UNL     1      -2.719  -4.359  31.461  1.00  0.00    -0.251 OA
ATOM     28  H12 UNL     1      -0.061  -2.609  31.377  1.00  0.00     0.172 HD
ENDBRANCH  23  24
ENDBRANCH  15  16
ENDBRANCH   1  15
BRANCH   9  29
HETATM   29  N9  UNL     1      -1.707   1.523  24.907  1.00  0.00    -0.383 N 
ATOM     30  H92 UNL     1      -1.667   1.926  23.970  1.00  0.00     0.157 HD
ATOM     31  H91 UNL     1      -2.289   1.818  25.691  1.00  0.00     0.157 HD
ENDBRANCH   9  29
BRANCH   8  32
HETATM   32  O2  UNL     1       0.752   1.657  23.947  1.00  0.00    -0.328 OA
BRANCH  32  33
HETATM   33  C7  UNL     1       1.803   2.474  23.932  1.00  0.00     0.263 C 
BRANCH  33  34
HETATM   34  C8  UNL     1       1.379   3.949  23.783  1.00  0.00     0.273 C 
BRANCH  34  35
HETATM   35  N6  UNL     1       0.017   4.077  23.347  1.00  0.00    -0.076 N 
ATOM     36  H63 UNL     1      -0.064   4.745  22.580  1.00  0.00     0.274 HD
ATOM     37  H62 UNL     1      -0.297   3.237  22.862  1.00  0.00     0.274 HD
ATOM     38  H61 UNL     1      -0.609   4.317  24.116  1.00  0.00     0.274 HD
ENDBRANCH  34  35
ENDBRANCH  33  34
BRANCH  33  39
HETATM   39  C9  UNL     1       2.699   2.235  22.708  1.00  0.00     0.342 C 
HETATM   40  O3  UNL     1       2.252   2.403  21.580  1.00  0.00    -0.252 OA
HETATM   41  N7  UNL     1       4.025   1.825  23.041  1.00  0.00    -0.291 NA
BRANCH  41  42
HETATM   42  N8  UNL     1       5.180   1.467  23.331  1.00  0.00    -0.277 N 
ATOM     43  H82 UNL     1       4.235   1.743  23.067  1.00  0.00     0.191 HD
ATOM     44  H81 UNL     1       6.128   1.173  23.569  1.00  0.00     0.191 HD
ENDBRANCH  41  42
ENDBRANCH  33  39
ENDBRANCH  32  33
ENDBRANCH   8  32
TORSDOF 10
ENDMDL
MODEL 3
REMARK VINA RESULT: -10.359349847      4.809      8.424
REMARK  10 active torsions:
REMARK  status: ('A' for Active; 'I' for Inactive)
REMARK    1  A    between atoms: C2_7  and  O1_8 
REMARK    2  A    between atoms: O1_8  and  C3_9 
REMARK    3  A    between atoms: C6_16  and  O2_17 
REMARK    4  A    between atoms: O2_17  and  C7_18 
REMARK    5  A    between atoms: C7_18  and  C8_19 
REMARK    6  A    between atoms: C7_18  and  C9_24 
REMARK    7  A    between atoms: C8_19  and  N6_20 
REMARK       I    between atoms: C9_24  and  N7_26 
REMARK    8  A    between atoms: N7_26  and  N8_27 
REMARK    9  A    between atoms: C10_30  and  N9_31 
REMARK   10  A    between atoms: C12_39  and  N12_40 
REMARK       I    between atoms: N12_40  and  C13_42 
ROOT
HETATM    1  C3  UNL     1       3.088   0.545  23.710  1.00  0.00     0.233 A 
HETATM    2  N4  UNL     1       2.724   0.986  22.469  1.00  0.00    -0.305 N 
ATOM      3  H4  UNL     1       1.771   1.232  22.201  1.00  0.00     0.171 HD
HETATM    4  C4  UNL     1       3.784   1.054  21.653  1.00  0.00     0.153 A 
HETATM    5  N5  UNL     1       3.782   1.445  20.366  1.00  0.00    -0.346 N 
ATOM      6  H5  UNL     1       2.865   1.451  19.919  1.00  0.00     0.167 HD
HETATM    7  C5  UNL     1       4.792   1.826  19.581  1.00  0.00     0.130 C 
HETATM    8  C6  UNL     1       6.091   1.234  19.605  1.00  0.00     0.129 C 
HETATM    9  C10 UNL     1       6.714   0.801  20.764  1.00  0.00     0.136 C 
HETATM   10  N10 UNL     1       6.146   0.541  21.966  1.00  0.00    -0.324 N 
ATOM     11  H10 UNL     1       6.807   0.213  22.669  1.00  0.00     0.169 HD
HETATM   12  C11 UNL     1       4.886   0.633  22.413  1.00  0.00     0.155 A 
HETATM   13  N11 UNL     1       4.412   0.342  23.634  1.00  0.00    -0.305 N 
ATOM     14  H11 UNL     1       4.987   0.007  24.408  1.00  0.00     0.171 HD
ENDROOT
BRANCH   1  15
HETATM   15  O1  UNL     1       2.250   0.356  24.796  1.00  0.00    -0.256 OA
BRANCH  15  16
HETATM   16  C2  UNL     1       0.874   0.341  24.678  1.00  0.00     0.213 A 
HETATM   17  N3  UNL     1       0.142  -0.819  24.579  1.00  0.00    -0.262 N 
HETATM   18  N2  UNL     1      -1.125  -0.492  24.481  1.00  0.00    -0.237 N 
ATOM     19  H3  UNL     1       0.519  -1.767  24.581  1.00  0.00     0.190 HD
HETATM   20  N1  UNL     1      -1.266   0.814  24.513  1.00  0.00    -0.263 N 
ATOM     21  H2  UNL     1      -1.892  -1.159  24.393  1.00  0.00     0.208 HD
HETATM   22  C1  UNL     1      -2.498   1.564  24.432  1.00  0.00     0.181 C 
HETATM   23  C12 UNL     1      -0.021   1.365  24.636  1.00  0.00     0.180 A 
BRANCH  23  24
HETATM   24  N12 UNL     1       0.232   2.760  24.714  1.00  0.00    -0.292 N 
HETATM   25  C13 UNL     1       0.735   3.640  23.762  1.00  0.00     0.334 C 
HETATM   26  N13 UNL     1       0.910   5.025  24.111  1.00  0.00    -0.040 NA
HETATM   27  O4  UNL     1       1.054   3.338  22.609  1.00  0.00    -0.251 OA
ATOM     28  H12 UNL     1       0.009   3.185  25.613  1.00  0.00     0.172 HD
ENDBRANCH  23  24
ENDBRANCH  15  16
ENDBRANCH   1  15
BRANCH   9  29
HETATM   29  N9  UNL     1       7.993   0.625  20.697  1.00  0.00    -0.383 N 
ATOM     30  H92 UNL     1       8.480   1.178  19.991  1.00  0.00     0.157 HD
ATOM     31  H91 UNL     1       8.393  -0.049  21.350  1.00  0.00     0.157 HD
ENDBRANCH   9  29
BRANCH   8  32
HETATM   32  O2  UNL     1       6.695   1.112  18.447  1.00  0.00    -0.328 OA
BRANCH  32  33
HETATM   33  C7  UNL     1       6.791   0.343  17.364  1.00  0.00     0.263 C 
BRANCH  33  34
HETATM   34  C8  UNL     1       5.814  -0.848  17.419  1.00  0.00     0.273 C 
BRANCH  34  35
HETATM   35  N6  UNL     1       4.501  -0.490  16.961  1.00  0.00    -0.076 N 
ATOM     36  H63 UNL     1       3.982   0.010  17.682  1.00  0.00     0.274 HD
ATOM     37  H62 UNL     1       4.543   0.246  16.255  1.00  0.00     0.274 HD
ATOM     38  H61 UNL     1       3.980  -1.298  16.621  1.00  0.00     0.274 HD
ENDBRANCH  34  35
ENDBRANCH  33  34
BRANCH  33  39
HETATM   39  C9  UNL     1       8.168  -0.329  17.257  1.00  0.00     0.342 C 
HETATM   40  O3  UNL     1       8.284  -1.527  17.487  1.00  0.00    -0.252 OA
HETATM   41  N7  UNL     1       9.213   0.564  16.877  1.00  0.00    -0.291 NA
BRANCH  41  42
HETATM   42  N8  UNL     1      10.125   1.344  16.546  1.00  0.00    -0.277 N 
ATOM     43  H82 UNL     1       9.382   0.713  16.847  1.00  0.00     0.191 HD
ATOM     44  H81 UNL     1      10.872   1.983  16.274  1.00  0.00     0.191 HD
ENDBRANCH  41  42
ENDBRANCH  33  39
ENDBRANCH  32  33
ENDBRANCH   8  32
TORSDOF 10
ENDMDL
MODEL 4
REMARK VINA RESULT: -10.181743600      1.219      1.449
REMARK  10 active torsions:
REMARK  status: ('A' for Active; 'I' for Inactive)
REMARK    1  A    between atoms: C2_7  and  O1_8 
REMARK    2  A    between atoms: O1_8  and  C3_9 
REMARK    3  A    between atoms: C6_16  and  O2_17 
REMARK    4  A    between atoms: O2_17  and  C7_18 
REMARK    5  A    between atoms: C7_18  and  C8_19 
REMARK    6  A    between atoms: C7_18  and  C9_24 
REMARK    7  A    between atoms: C8_19  and  N6_20 
REMARK       I    between atoms: C9_24  and  N7_26 
REMARK    8  A    between atoms: N7_26  and  N8_27 
REMARK    9  A    between atoms: C10_30  and  N9_31 
REMARK   10  A    between atoms: C12_39  and  N12_40 
REMARK       I    between atoms: N12_40  and  C13_42 
ROOT
HETATM    1  C3  UNL     1      -0.768  -2.729  26.944  1.00  0.00     0.233 A 
HETATM    2  N4  UNL     1       0.377  -2.723  26.197  1.00  0.00    -0.305 N 
ATOM      3  H4  UNL     1       1.073  -3.468  26.202  1.00  0.00     0.171 HD
HETATM    4  C4  UNL     1       0.462  -1.609  25.458  1.00  0.00     0.153 A 
HETATM    5  N5  UNL     1       1.457  -1.281  24.613  1.00  0.00    -0.346 N 
ATOM      6  H5  UNL     1       2.321  -1.808  24.740  1.00  0.00     0.167 HD
HETATM    7  C5  UNL     1       1.490  -0.373  23.636  1.00  0.00     0.130 C 
HETATM    8  C6  UNL     1       0.865   0.908  23.712  1.00  0.00     0.129 C 
HETATM    9  C10 UNL     1      -0.353   1.131  24.332  1.00  0.00     0.136 C 
HETATM   10  N10 UNL     1      -0.991   0.334  25.222  1.00  0.00    -0.324 N 
ATOM     11  H10 UNL     1      -1.873   0.719  25.559  1.00  0.00     0.169 HD
HETATM   12  C11 UNL     1      -0.690  -0.862  25.747  1.00  0.00     0.155 A 
HETATM   13  N11 UNL     1      -1.389  -1.579  26.641  1.00  0.00    -0.305 N 
ATOM     14  H11 UNL     1      -2.281  -1.286  27.039  1.00  0.00     0.171 HD
ENDROOT
BRANCH   1  15
HETATM   15  O1  UNL     1      -1.175  -3.721  27.819  1.00  0.00    -0.256 OA
BRANCH  15  16
HETATM   16  C2  UNL     1      -0.298  -4.370  28.667  1.00  0.00     0.213 A 
HETATM   17  N3  UNL     1       0.565  -5.353  28.243  1.00  0.00    -0.262 N 
HETATM   18  N2  UNL     1       1.256  -5.762  29.281  1.00  0.00    -0.237 N 
ATOM     19  H3  UNL     1       0.654  -5.703  27.289  1.00  0.00     0.190 HD
HETATM   20  N1  UNL     1       0.897  -5.103  30.361  1.00  0.00    -0.263 N 
ATOM     21  H2  UNL     1       1.971  -6.489  29.255  1.00  0.00     0.208 HD
HETATM   22  C1  UNL     1       1.419  -5.260  31.698  1.00  0.00     0.181 C 
HETATM   23  C12 UNL     1      -0.083  -4.218  30.002  1.00  0.00     0.180 A 
BRANCH  23  24
HETATM   24  N12 UNL     1      -0.716  -3.320  30.899  1.00  0.00    -0.292 N 
HETATM   25  C13 UNL     1      -1.974  -3.371  31.490  1.00  0.00     0.334 C 
HETATM   26  N13 UNL     1      -2.382  -2.304  32.365  1.00  0.00    -0.040 NA
HETATM   27  O4  UNL     1      -2.800  -4.274  31.332  1.00  0.00    -0.251 OA
ATOM     28  H12 UNL     1      -0.159  -2.504  31.152  1.00  0.00     0.172 HD
ENDBRANCH  23  24
ENDBRANCH  15  16
ENDBRANCH   1  15
BRANCH   9  29
HETATM   29  N9  UNL     1      -0.962   2.229  24.023  1.00  0.00    -0.383 N 
ATOM     30  H92 UNL     1      -0.373   2.971  23.643  1.00  0.00     0.157 HD
ATOM     31  H91 UNL     1      -1.968   2.252  24.192  1.00  0.00     0.157 HD
ENDBRANCH   9  29
BRANCH   8  32
HETATM   32  O2  UNL     1       1.511   1.904  23.152  1.00  0.00    -0.328 OA
BRANCH  32  33
HETATM   33  C7  UNL     1       2.657   2.241  22.562  1.00  0.00     0.263 C 
BRANCH  33  34
HETATM   34  C8  UNL     1       2.885   1.450  21.259  1.00  0.00     0.273 C 
BRANCH  34  35
HETATM   35  N6  UNL     1       3.792   2.123  20.372  1.00  0.00    -0.076 N 
ATOM     36  H63 UNL     1       3.738   3.135  20.485  1.00  0.00     0.274 HD
ATOM     37  H62 UNL     1       4.761   1.982  20.657  1.00  0.00     0.274 HD
ATOM     38  H61 UNL     1       3.649   1.850  19.399  1.00  0.00     0.274 HD
ENDBRANCH  34  35
ENDBRANCH  33  34
BRANCH  33  39
HETATM   39  C9  UNL     1       3.875   1.873  23.421  1.00  0.00     0.342 C 
HETATM   40  O3  UNL     1       4.564   0.905  23.123  1.00  0.00    -0.252 OA
HETATM   41  N7  UNL     1       4.082   2.751  24.527  1.00  0.00    -0.291 NA
BRANCH  41  42
HETATM   42  N8  UNL     1       4.262   3.516  25.492  1.00  0.00    -0.277 N 
ATOM     43  H82 UNL     1       4.084   2.887  24.709  1.00  0.00     0.191 HD
ATOM     44  H81 UNL     1       4.409   4.143  26.283  1.00  0.00     0.191 HD
ENDBRANCH  41  42
ENDBRANCH  33  39
ENDBRANCH  32  33
ENDBRANCH   8  32
TORSDOF 10
ENDMDL
MODEL 5
REMARK VINA RESULT: -10.102125709      4.661      8.092
REMARK  10 active torsions:
REMARK  status: ('A' for Active; 'I' for Inactive)
REMARK    1  A    between atoms: C2_7  and  O1_8 
REMARK    2  A    between atoms: O1_8  and  C3_9 
REMARK    3  A    between atoms: C6_16  and  O2_17 
REMARK    4  A    between atoms: O2_17  and  C7_18 
REMARK    5  A    between atoms: C7_18  and  C8_19 
REMARK    6  A    between atoms: C7_18  and  C9_24 
REMARK    7  A    between atoms: C8_19  and  N6_20 
REMARK       I    between atoms: C9_24  and  N7_26 
REMARK    8  A    between atoms: N7_26  and  N8_27 
REMARK    9  A    between atoms: C10_30  and  N9_31 
REMARK   10  A    between atoms: C12_39  and  N12_40 
REMARK       I    between atoms: N12_40  and  C13_42 
ROOT
HETATM    1  C3  UNL     1       2.997   0.408  24.169  1.00  0.00     0.233 A 
HETATM    2  N4  UNL     1       2.741   0.566  22.836  1.00  0.00    -0.305 N 
ATOM      3  H4  UNL     1       1.806   0.621  22.430  1.00  0.00     0.171 HD
HETATM    4  C4  UNL     1       3.878   0.639  22.132  1.00  0.00     0.153 A 
HETATM    5  N5  UNL     1       3.990   0.792  20.801  1.00  0.00    -0.346 N 
ATOM      6  H5  UNL     1       3.142   0.587  20.271  1.00  0.00     0.167 HD
HETATM    7  C5  UNL     1       5.037   1.169  20.064  1.00  0.00     0.130 C 
HETATM    8  C6  UNL     1       6.385   0.783  20.332  1.00  0.00     0.129 C 
HETATM    9  C10 UNL     1       6.906   0.656  21.608  1.00  0.00     0.136 C 
HETATM   10  N10 UNL     1       6.227   0.535  22.775  1.00  0.00    -0.324 N 
ATOM     11  H10 UNL     1       6.830   0.434  23.591  1.00  0.00     0.169 HD
HETATM   12  C11 UNL     1       4.919   0.522  23.066  1.00  0.00     0.155 A 
HETATM   13  N11 UNL     1       4.335   0.387  24.267  1.00  0.00    -0.305 N 
ATOM     14  H11 UNL     1       4.844   0.281  25.144  1.00  0.00     0.171 HD
ENDROOT
BRANCH   1  15
HETATM   15  O1  UNL     1       2.059   0.296  25.181  1.00  0.00    -0.256 OA
BRANCH  15  16
HETATM   16  C2  UNL     1       0.699   0.314  24.938  1.00  0.00     0.213 A 
HETATM   17  N3  UNL     1      -0.062  -0.828  24.847  1.00  0.00    -0.262 N 
HETATM   18  N2  UNL     1      -1.303  -0.472  24.612  1.00  0.00    -0.237 N 
ATOM     19  H3  UNL     1       0.279  -1.785  24.945  1.00  0.00     0.190 HD
HETATM   20  N1  UNL     1      -1.400   0.837  24.546  1.00  0.00    -0.263 N 
ATOM     21  H2  UNL     1      -2.082  -1.120  24.497  1.00  0.00     0.208 HD
HETATM   22  C1  UNL     1      -2.592   1.616  24.303  1.00  0.00     0.181 C 
HETATM   23  C12 UNL     1      -0.152   1.358  24.747  1.00  0.00     0.180 A 
BRANCH  23  24
HETATM   24  N12 UNL     1       0.143   2.747  24.757  1.00  0.00    -0.292 N 
HETATM   25  C13 UNL     1       0.752   3.547  23.796  1.00  0.00     0.334 C 
HETATM   26  N13 UNL     1       0.947   4.946  24.070  1.00  0.00    -0.040 NA
HETATM   27  O4  UNL     1       1.155   3.160  22.696  1.00  0.00    -0.251 OA
ATOM     28  H12 UNL     1      -0.138   3.237  25.605  1.00  0.00     0.172 HD
ENDBRANCH  23  24
ENDBRANCH  15  16
ENDBRANCH   1  15
BRANCH   9  29
HETATM   29  N9  UNL     1       8.195   0.657  21.706  1.00  0.00    -0.383 N 
ATOM     30  H92 UNL     1       8.692   1.197  20.997  1.00  0.00     0.157 HD
ATOM     31  H91 UNL     1       8.592   0.118  22.476  1.00  0.00     0.157 HD
ENDBRANCH   9  29
BRANCH   8  32
HETATM   32  O2  UNL     1       7.140   0.546  19.285  1.00  0.00    -0.328 OA
BRANCH  32  33
HETATM   33  C7  UNL     1       7.420  -0.358  18.348  1.00  0.00     0.263 C 
BRANCH  33  34
HETATM   34  C8  UNL     1       8.893  -0.283  17.900  1.00  0.00     0.273 C 
BRANCH  34  35
HETATM   35  N6  UNL     1       9.113   0.769  16.948  1.00  0.00    -0.076 N 
ATOM     36  H63 UNL     1       8.252   1.011  16.457  1.00  0.00     0.274 HD
ATOM     37  H62 UNL     1       9.287   1.659  17.414  1.00  0.00     0.274 HD
ATOM     38  H61 UNL     1       9.862   0.542  16.293  1.00  0.00     0.274 HD
ENDBRANCH  34  35
ENDBRANCH  33  34
BRANCH  33  39
HETATM   39  C9  UNL     1       6.638  -0.100  17.051  1.00  0.00     0.342 C 
HETATM   40  O3  UNL     1       6.549  -0.982  16.205  1.00  0.00    -0.252 OA
HETATM   41  N7  UNL     1       6.069   1.206  16.975  1.00  0.00    -0.291 NA
BRANCH  41  42
HETATM   42  N8  UNL     1       5.573   2.345  16.909  1.00  0.00    -0.277 N 
ATOM     43  H82 UNL     1       5.997   1.421  16.988  1.00  0.00     0.191 HD
ATOM     44  H81 UNL     1       5.167   3.279  16.855  1.00  0.00     0.191 HD
ENDBRANCH  41  42
ENDBRANCH  33  39
ENDBRANCH  32  33
ENDBRANCH   8  32
TORSDOF 10
ENDMDL
