MODEL 1
REMARK VINA RESULT: -5.444691758      0.000      0.000
REMARK  3 active torsions:
REMARK  status: ('A' for Active; 'I' for Inactive)
REMARK    1  A    between atoms: N1_1  and  C1_4 
REMARK    2  A    between atoms: C3_9  and  S1_10 
REMARK    3  A    between atoms: S1_10  and  N4_11 
ROOT
HETATM    1  C1  UNL     1      43.769  25.141  99.590  1.00  0.00     0.144 A 
HETATM    2  N2  UNL     1      43.892  25.312 100.902  1.00  0.00    -0.324 N 
ATOM      3  H2  UNL     1      43.922  26.249 101.303  1.00  0.00     0.169 HD
HETATM    4  C2  UNL     1      43.971  24.261 101.664  1.00  0.00     0.148 A 
HETATM    5  N3  UNL     1      44.107  24.345 103.118  1.00  0.00    -0.080 NA
HETATM    6  C3  UNL     1      43.925  23.028 101.069  1.00  0.00     0.164 A 
HETATM    7  S2  UNL     1      43.766  23.445  99.420  1.00  0.00    -0.037 SA
ENDROOT
BRANCH   6   8
HETATM    8  S1  UNL     1      44.008  21.442 101.834  1.00  0.00     0.266 S 
HETATM    9  O1  UNL     1      45.333  21.233 102.492  1.00  0.00    -0.200 OA
HETATM   10  O2  UNL     1      43.701  20.414 100.794  1.00  0.00    -0.200 OA
BRANCH   8  11
HETATM   11  N4  UNL     1      42.786  21.411 103.052  1.00  0.00    -0.324 N 
ATOM     12  H42 UNL     1      41.854  21.816 102.973  1.00  0.00     0.169 HD
ATOM     13  H41 UNL     1      43.178  20.915 103.851  1.00  0.00     0.169 HD
ENDBRANCH   8  11
ENDBRANCH   6   8
BRANCH   1  14
HETATM   14  N1  UNL     1      43.674  26.063  98.655  1.00  0.00    -0.380 N 
ATOM     15  H12 UNL     1      42.857  26.603  98.371  1.00  0.00     0.158 HD
ATOM     16  H11 UNL     1      44.407  26.411  98.035  1.00  0.00     0.158 HD
ENDBRANCH   1  14
TORSDOF 3
ENDMDL
MODEL 2
REMARK VINA RESULT: -5.301522945      1.044      1.280
REMARK  3 active torsions:
REMARK  status: ('A' for Active; 'I' for Inactive)
REMARK    1  A    between atoms: N1_1  and  C1_4 
REMARK    2  A    between atoms: C3_9  and  S1_10 
REMARK    3  A    between atoms: S1_10  and  N4_11 
ROOT
HETATM    1  C1  UNL     1      43.903  25.292  99.175  1.00  0.00     0.144 A 
HETATM    2  N2  UNL     1      43.764  25.525 100.476  1.00  0.00    -0.324 N 
ATOM      3  H2  UNL     1      43.862  26.470 100.847  1.00  0.00     0.169 HD
HETATM    4  C2  UNL     1      43.502  24.526 101.265  1.00  0.00     0.148 A 
HETATM    5  N3  UNL     1      43.331  24.681 102.710  1.00  0.00    -0.080 NA
HETATM    6  C3  UNL     1      43.382  23.279 100.710  1.00  0.00     0.164 A 
HETATM    7  S2  UNL     1      43.656  23.610  99.057  1.00  0.00    -0.037 SA
ENDROOT
BRANCH   6   8
HETATM    8  S1  UNL     1      43.033  21.753 101.518  1.00  0.00     0.266 S 
HETATM    9  O1  UNL     1      43.661  20.606 100.793  1.00  0.00    -0.200 OA
HETATM   10  O2  UNL     1      41.550  21.627 101.642  1.00  0.00    -0.200 OA
BRANCH   8  11
HETATM   11  N4  UNL     1      43.735  21.849 103.092  1.00  0.00    -0.324 N 
ATOM     12  H42 UNL     1      44.681  21.563 103.342  1.00  0.00     0.169 HD
ATOM     13  H41 UNL     1      43.025  22.243 103.708  1.00  0.00     0.169 HD
ENDBRANCH   8  11
ENDBRANCH   6   8
BRANCH   1  14
HETATM   14  N1  UNL     1      44.166  26.155  98.217  1.00  0.00    -0.380 N 
ATOM     15  H12 UNL     1      44.888  26.875  98.187  1.00  0.00     0.158 HD
ATOM     16  H11 UNL     1      43.694  26.265  97.319  1.00  0.00     0.158 HD
ENDBRANCH   1  14
TORSDOF 3
ENDMDL
MODEL 3
REMARK VINA RESULT: -5.238035353      1.276      1.353
REMARK  3 active torsions:
REMARK  status: ('A' for Active; 'I' for Inactive)
REMARK    1  A    between atoms: N1_1  and  C1_4 
REMARK    2  A    between atoms: C3_9  and  S1_10 
REMARK    3  A    between atoms: S1_10  and  N4_11 
ROOT
HETATM    1  C1  UNL     1      43.176  24.857  98.829  1.00  0.00     0.144 A 
HETATM    2  N2  UNL     1      42.822  25.353 100.010  1.00  0.00    -0.324 N 
ATOM      3  H2  UNL     1      42.442  26.296 100.085  1.00  0.00     0.169 HD
HETATM    4  C2  UNL     1      42.970  24.612 101.068  1.00  0.00     0.148 A 
HETATM    5  N3  UNL     1      42.610  25.067 102.411  1.00  0.00    -0.080 NA
HETATM    6  C3  UNL     1      43.485  23.352 100.907  1.00  0.00     0.164 A 
HETATM    7  S2  UNL     1      43.735  23.295  99.219  1.00  0.00    -0.037 SA
ENDROOT
BRANCH   6   8
HETATM    8  S1  UNL     1      43.795  22.133 102.142  1.00  0.00     0.266 S 
HETATM    9  O1  UNL     1      44.986  21.302 101.787  1.00  0.00    -0.200 OA
HETATM   10  O2  UNL     1      42.549  21.328 102.315  1.00  0.00    -0.200 OA
BRANCH   8  11
HETATM   11  N4  UNL     1      44.141  22.980 103.605  1.00  0.00    -0.324 N 
ATOM     12  H42 UNL     1      43.535  23.666 104.054  1.00  0.00     0.169 HD
ATOM     13  H41 UNL     1      45.056  22.661 103.922  1.00  0.00     0.169 HD
ENDBRANCH   8  11
ENDBRANCH   6   8
BRANCH   1  14
HETATM   14  N1  UNL     1      43.107  25.437  97.650  1.00  0.00    -0.380 N 
ATOM     15  H12 UNL     1      43.857  25.855  97.099  1.00  0.00     0.158 HD
ATOM     16  H11 UNL     1      42.285  25.577  97.062  1.00  0.00     0.158 HD
ENDBRANCH   1  14
TORSDOF 3
ENDMDL
MODEL 4
REMARK VINA RESULT: -4.839942633      1.783      2.185
REMARK  3 active torsions:
REMARK  status: ('A' for Active; 'I' for Inactive)
REMARK    1  A    between atoms: N1_1  and  C1_4 
REMARK    2  A    between atoms: C3_9  and  S1_10 
REMARK    3  A    between atoms: S1_10  and  N4_11 
ROOT
HETATM    1  C1  UNL     1      43.673  24.966  99.128  1.00  0.00     0.144 A 
HETATM    2  N2  UNL     1      43.618  23.716  98.681  1.00  0.00    -0.324 N 
ATOM      3  H2  UNL     1      43.538  23.525  97.682  1.00  0.00     0.169 HD
HETATM    4  C2  UNL     1      43.668  22.742  99.540  1.00  0.00     0.148 A 
HETATM    5  N3  UNL     1      43.615  21.334  99.147  1.00  0.00    -0.080 NA
HETATM    6  C3  UNL     1      43.775  23.059 100.869  1.00  0.00     0.164 A 
HETATM    7  S2  UNL     1      43.799  24.766 100.816  1.00  0.00    -0.037 SA
ENDROOT
BRANCH   6   8
HETATM    8  S1  UNL     1      43.864  21.966 102.249  1.00  0.00     0.266 S 
HETATM    9  O1  UNL     1      45.084  21.106 102.174  1.00  0.00    -0.200 OA
HETATM   10  O2  UNL     1      42.594  21.181 102.295  1.00  0.00    -0.200 OA
BRANCH   8  11
HETATM   11  N4  UNL     1      43.981  22.953 103.660  1.00  0.00    -0.324 N 
ATOM     12  H42 UNL     1      43.740  22.669 104.609  1.00  0.00     0.169 HD
ATOM     13  H41 UNL     1      44.334  23.860 103.357  1.00  0.00     0.169 HD
ENDBRANCH   8  11
ENDBRANCH   6   8
BRANCH   1  14
HETATM   14  N1  UNL     1      43.638  26.082  98.431  1.00  0.00    -0.380 N 
ATOM     15  H12 UNL     1      43.712  27.044  98.762  1.00  0.00     0.158 HD
ATOM     16  H11 UNL     1      43.531  26.193  97.422  1.00  0.00     0.158 HD
ENDBRANCH   1  14
TORSDOF 3
ENDMDL
MODEL 5
REMARK VINA RESULT: -4.758052712      2.360      4.295
REMARK  3 active torsions:
REMARK  status: ('A' for Active; 'I' for Inactive)
REMARK    1  A    between atoms: N1_1  and  C1_4 
REMARK    2  A    between atoms: C3_9  and  S1_10 
REMARK    3  A    between atoms: S1_10  and  N4_11 
ROOT
HETATM    1  C1  UNL     1      42.308  21.080 102.766  1.00  0.00     0.144 A 
HETATM    2  N2  UNL     1      43.378  21.701 103.252  1.00  0.00    -0.324 N 
ATOM      3  H2  UNL     1      43.801  21.397 104.130  1.00  0.00     0.169 HD
HETATM    4  C2  UNL     1      43.875  22.702 102.589  1.00  0.00     0.148 A 
HETATM    5  N3  UNL     1      45.049  23.449 103.041  1.00  0.00    -0.080 NA
HETATM    6  C3  UNL     1      43.265  23.066 101.416  1.00  0.00     0.164 A 
HETATM    7  S2  UNL     1      41.990  21.933 101.325  1.00  0.00    -0.037 SA
ENDROOT
BRANCH   6   8
HETATM    8  S1  UNL     1      43.708  24.366 100.312  1.00  0.00     0.266 S 
HETATM    9  O1  UNL     1      42.576  24.697  99.393  1.00  0.00    -0.200 OA
HETATM   10  O2  UNL     1      44.949  23.953  99.591  1.00  0.00    -0.200 OA
BRANCH   8  11
HETATM   11  N4  UNL     1      44.041  25.753 101.283  1.00  0.00    -0.324 N 
ATOM     12  H42 UNL     1      44.332  26.668 100.938  1.00  0.00     0.169 HD
ATOM     13  H41 UNL     1      43.891  25.478 102.253  1.00  0.00     0.169 HD
ENDBRANCH   8  11
ENDBRANCH   6   8
BRANCH   1  14
HETATM   14  N1  UNL     1      41.659  20.056 103.278  1.00  0.00    -0.380 N 
ATOM     15  H12 UNL     1      41.644  19.728 104.243  1.00  0.00     0.158 HD
ATOM     16  H11 UNL     1      41.046  19.395 102.800  1.00  0.00     0.158 HD
ENDBRANCH   1  14
TORSDOF 3
ENDMDL
