MODEL 1
REMARK VINA RESULT: -6.543991781      0.000      0.000
REMARK  2 active torsions:
REMARK  status: ('A' for Active; 'I' for Inactive)
REMARK    1  A    between atoms: C3_3  and  N1_4 
REMARK    2  A    between atoms: C5_11  and  N3_12 
ROOT
HETATM    1  C1  UNL     1      43.995  23.564 103.037  1.00  0.00     0.057 C 
HETATM    2  C2  UNL     1      43.444  23.821 101.701  1.00  0.00     0.045 C 
HETATM    3  C3  UNL     1      43.552  22.786 100.816  1.00  0.00     0.182 C 
HETATM    4  C4  UNL     1      43.658  22.924  99.442  1.00  0.00     0.293 C 
HETATM    5  O3  UNL     1      44.026  21.916  98.820  1.00  0.00    -0.265 OA
HETATM    6  N2  UNL     1      43.413  24.015  98.658  1.00  0.00    -0.154 N 
ATOM      7  H2  UNL     1      43.659  23.931  97.672  1.00  0.00     0.187 HD
HETATM    8  C5  UNL     1      42.884  25.182  99.045  1.00  0.00     0.681 C 
HETATM    9  N4  UNL     1      42.553  25.644 100.269  1.00  0.00    -0.156 N 
ATOM     10  H4  UNL     1      42.008  26.506 100.301  1.00  0.00     0.187 HD
HETATM   11  C6  UNL     1      42.872  25.080 101.459  1.00  0.00     0.268 C 
HETATM   12  O4  UNL     1      42.636  25.746 102.498  1.00  0.00    -0.267 OA
ENDROOT
BRANCH   3  13
HETATM   13  N1  UNL     1      43.552  21.503 101.345  1.00  0.00    -0.109 N 
HETATM   14  O1  UNL     1      44.490  20.836 101.740  1.00  0.00    -0.532 OA
HETATM   15  O2  UNL     1      42.317  20.849 101.457  1.00  0.00    -0.532 OA
ENDBRANCH   3  13
BRANCH   8  16
HETATM   16  N3  UNL     1      42.635  26.037  98.099  1.00  0.00    -0.234 N 
ATOM     17  H32 UNL     1      42.205  25.606  97.280  1.00  0.00     0.174 HD
ATOM     18  H31 UNL     1      42.895  27.005  98.290  1.00  0.00     0.174 HD
ENDBRANCH   8  16
TORSDOF 2
ENDMDL
MODEL 2
REMARK VINA RESULT: -5.799218432      1.824      3.725
REMARK  2 active torsions:
REMARK  status: ('A' for Active; 'I' for Inactive)
REMARK    1  A    between atoms: C3_3  and  N1_4 
REMARK    2  A    between atoms: C5_11  and  N3_12 
ROOT
HETATM    1  C1  UNL     1      42.707  25.397  99.483  1.00  0.00     0.057 C 
HETATM    2  C2  UNL     1      43.158  24.213 100.224  1.00  0.00     0.045 C 
HETATM    3  C3  UNL     1      43.612  23.180  99.455  1.00  0.00     0.182 C 
HETATM    4  C4  UNL     1      43.546  21.841  99.803  1.00  0.00     0.293 C 
HETATM    5  O3  UNL     1      43.741  21.029  98.886  1.00  0.00    -0.265 OA
HETATM    6  N2  UNL     1      43.297  21.273 101.019  1.00  0.00    -0.154 N 
ATOM      7  H2  UNL     1      43.185  20.259 101.033  1.00  0.00     0.187 HD
HETATM    8  C5  UNL     1      43.182  21.903 102.195  1.00  0.00     0.681 C 
HETATM    9  N4  UNL     1      43.172  23.217 102.500  1.00  0.00    -0.156 N 
ATOM     10  H4  UNL     1      43.241  23.459 103.489  1.00  0.00     0.187 HD
HETATM   11  C6  UNL     1      43.080  24.249 101.626  1.00  0.00     0.268 C 
HETATM   12  O4  UNL     1      42.903  25.399 102.102  1.00  0.00    -0.267 OA
ENDROOT
BRANCH   3  13
HETATM   13  N1  UNL     1      44.185  23.509  98.234  1.00  0.00    -0.109 N 
HETATM   14  O1  UNL     1      43.652  23.644  97.148  1.00  0.00    -0.532 OA
HETATM   15  O2  UNL     1      45.569  23.726  98.206  1.00  0.00    -0.532 OA
ENDBRANCH   3  13
BRANCH   8  16
HETATM   16  N3  UNL     1      43.060  21.142 103.240  1.00  0.00    -0.234 N 
ATOM     17  H32 UNL     1      42.154  21.244 103.699  1.00  0.00     0.174 HD
ATOM     18  H31 UNL     1      43.863  20.555 103.463  1.00  0.00     0.174 HD
ENDBRANCH   8  16
TORSDOF 2
ENDMDL
MODEL 3
REMARK VINA RESULT: -5.785752836      1.200      3.061
REMARK  2 active torsions:
REMARK  status: ('A' for Active; 'I' for Inactive)
REMARK    1  A    between atoms: C3_3  and  N1_4 
REMARK    2  A    between atoms: C5_11  and  N3_12 
ROOT
HETATM    1  C1  UNL     1      43.533  20.907 100.221  1.00  0.00     0.057 C 
HETATM    2  C2  UNL     1      43.583  22.367 100.067  1.00  0.00     0.045 C 
HETATM    3  C3  UNL     1      43.414  23.081 101.218  1.00  0.00     0.182 C 
HETATM    4  C4  UNL     1      42.866  24.351 101.292  1.00  0.00     0.293 C 
HETATM    5  O3  UNL     1      42.531  24.735 102.422  1.00  0.00    -0.265 OA
HETATM    6  N2  UNL     1      42.637  25.256 100.295  1.00  0.00    -0.154 N 
ATOM      7  H2  UNL     1      42.120  26.096 100.554  1.00  0.00     0.187 HD
HETATM    8  C5  UNL     1      43.017  25.159  99.015  1.00  0.00     0.681 C 
HETATM    9  N4  UNL     1      43.611  24.152  98.340  1.00  0.00    -0.156 N 
ATOM     10  H4  UNL     1      43.958  24.370  97.406  1.00  0.00     0.187 HD
HETATM   11  C6  UNL     1      43.792  22.882  98.778  1.00  0.00     0.268 C 
HETATM   12  O4  UNL     1      44.201  22.035  97.944  1.00  0.00    -0.267 OA
ENDROOT
BRANCH   3  13
HETATM   13  N1  UNL     1      43.831  22.482 102.399  1.00  0.00    -0.109 N 
HETATM   14  O1  UNL     1      43.293  21.600 103.042  1.00  0.00    -0.532 OA
HETATM   15  O2  UNL     1      45.037  22.924 102.959  1.00  0.00    -0.532 OA
ENDBRANCH   3  13
BRANCH   8  16
HETATM   16  N3  UNL     1      42.789  26.199  98.272  1.00  0.00    -0.234 N 
ATOM     17  H32 UNL     1      42.229  25.981  97.448  1.00  0.00     0.174 HD
ATOM     18  H31 UNL     1      43.189  27.079  98.598  1.00  0.00     0.174 HD
ENDBRANCH   8  16
TORSDOF 2
ENDMDL
MODEL 4
REMARK VINA RESULT: -5.719875558      1.882      4.646
REMARK  2 active torsions:
REMARK  status: ('A' for Active; 'I' for Inactive)
REMARK    1  A    between atoms: C3_3  and  N1_4 
REMARK    2  A    between atoms: C5_11  and  N3_12 
ROOT
HETATM    1  C1  UNL     1      44.286  22.984  98.001  1.00  0.00     0.057 C 
HETATM    2  C2  UNL     1      43.712  22.880  99.349  1.00  0.00     0.045 C 
HETATM    3  C3  UNL     1      43.505  24.068  99.989  1.00  0.00     0.182 C 
HETATM    4  C4  UNL     1      43.535  24.247 101.362  1.00  0.00     0.293 C 
HETATM    5  O3  UNL     1      43.606  25.420 101.757  1.00  0.00    -0.265 OA
HETATM    6  N2  UNL     1      43.496  23.315 102.359  1.00  0.00    -0.154 N 
ATOM      7  H2  UNL     1      43.640  23.658 103.308  1.00  0.00     0.187 HD
HETATM    8  C5  UNL     1      43.290  21.999 102.224  1.00  0.00     0.681 C 
HETATM    9  N4  UNL     1      43.172  21.227 101.123  1.00  0.00    -0.156 N 
ATOM     10  H4  UNL     1      42.850  20.270 101.267  1.00  0.00     0.187 HD
HETATM   11  C6  UNL     1      43.438  21.596  99.846  1.00  0.00     0.268 C 
HETATM   12  O4  UNL     1      43.446  20.693  98.972  1.00  0.00    -0.267 OA
ENDROOT
BRANCH   3  13
HETATM   13  N1  UNL     1      43.242  25.175  99.193  1.00  0.00    -0.109 N 
HETATM   14  O1  UNL     1      43.999  25.802  98.476  1.00  0.00    -0.532 OA
HETATM   15  O2  UNL     1      41.930  25.668  99.184  1.00  0.00    -0.532 OA
ENDBRANCH   3  13
BRANCH   8  16
HETATM   16  N3  UNL     1      43.179  21.323 103.327  1.00  0.00    -0.234 N 
ATOM     17  H32 UNL     1      43.857  21.606 104.035  1.00  0.00     0.174 HD
ATOM     18  H31 UNL     1      42.447  20.612 103.346  1.00  0.00     0.174 HD
ENDBRANCH   8  16
TORSDOF 2
ENDMDL
MODEL 5
REMARK VINA RESULT: -5.326806699      2.128      3.739
REMARK  2 active torsions:
REMARK  status: ('A' for Active; 'I' for Inactive)
REMARK    1  A    between atoms: C3_3  and  N1_4 
REMARK    2  A    between atoms: C5_11  and  N3_12 
ROOT
HETATM    1  C1  UNL     1      43.475  24.437  96.634  1.00  0.00     0.057 C 
HETATM    2  C2  UNL     1      43.564  24.473  98.099  1.00  0.00     0.045 C 
HETATM    3  C3  UNL     1      44.397  23.546  98.657  1.00  0.00     0.182 C 
HETATM    4  C4  UNL     1      44.242  22.995  99.918  1.00  0.00     0.293 C 
HETATM    5  O3  UNL     1      44.910  21.979 100.156  1.00  0.00    -0.265 OA
HETATM    6  N2  UNL     1      43.454  23.409 100.954  1.00  0.00    -0.154 N 
ATOM      7  H2  UNL     1      43.407  22.792 101.765  1.00  0.00     0.187 HD
HETATM    8  C5  UNL     1      42.737  24.538 101.020  1.00  0.00     0.681 C 
HETATM    9  N4  UNL     1      42.504  25.496 100.099  1.00  0.00    -0.156 N 
ATOM     10  H4  UNL     1      42.060  26.353 100.431  1.00  0.00     0.187 HD
HETATM   11  C6  UNL     1      42.800  25.436  98.778  1.00  0.00     0.268 C 
HETATM   12  O4  UNL     1      42.346  26.347  98.040  1.00  0.00    -0.267 OA
ENDROOT
BRANCH   3  13
HETATM   13  N1  UNL     1      45.480  23.132  97.894  1.00  0.00    -0.109 N 
HETATM   14  O1  UNL     1      46.608  23.584  97.855  1.00  0.00    -0.532 OA
HETATM   15  O2  UNL     1      45.287  22.041  97.035  1.00  0.00    -0.532 OA
ENDBRANCH   3  13
BRANCH   8  16
HETATM   16  N3  UNL     1      42.155  24.778 102.156  1.00  0.00    -0.234 N 
ATOM     17  H32 UNL     1      41.528  24.028 102.446  1.00  0.00     0.174 HD
ATOM     18  H31 UNL     1      42.392  25.664 102.602  1.00  0.00     0.174 HD
ENDBRANCH   8  16
TORSDOF 2
ENDMDL
