MODEL 1
REMARK VINA RESULT: -5.436392344      0.000      0.000
REMARK  4 active torsions:
REMARK  status: ('A' for Active; 'I' for Inactive)
REMARK    1  A    between atoms: C1_2  and  C2_4 
REMARK       I    between atoms: C2_4  and  N2_6 
REMARK    2  A    between atoms: N2_6  and  N3_8 
REMARK    3  A    between atoms: N3_8  and  C3_10 
REMARK    4  A    between atoms: C3_10  and  N4_12 
ROOT
HETATM    1  N3  UNL     1      50.715  40.303  70.041  1.00  0.00    -0.273 N 
ATOM      2  H3  UNL     1      50.179  39.501  69.709  1.00  0.00     0.189 HD
ENDROOT
BRANCH   1   3
HETATM    3  N2  UNL     1      50.017  41.292  70.710  1.00  0.00    -0.260 N 
HETATM    4  C2  UNL     1      49.878  41.340  72.121  1.00  0.00     0.325 C 
HETATM    5  O2  UNL     1      50.420  40.442  72.810  1.00  0.00    -0.261 OA
ATOM      6  H2  UNL     1      49.576  42.027  70.158  1.00  0.00     0.190 HD
BRANCH   4   7
HETATM    7  C1  UNL     1      49.132  42.390  72.804  1.00  0.00     0.324 C 
HETATM    8  N1  UNL     1      48.639  43.532  72.145  1.00  0.00    -0.053 NA
HETATM    9  O1  UNL     1      48.894  42.302  74.058  1.00  0.00    -0.266 OA
ENDBRANCH   4   7
ENDBRANCH   1   3
BRANCH   1  10
HETATM   10  C3  UNL     1      52.103  40.304  69.774  1.00  0.00     0.192 C 
HETATM   11  S1  UNL     1      52.622  39.802  68.314  1.00  0.00    -0.039 SA
BRANCH  10  12
HETATM   12  N4  UNL     1      53.053  40.727  70.739  1.00  0.00    -0.309 N 
HETATM   13  C4  UNL     1      53.325  41.974  70.894  1.00  0.00     0.203 C 
HETATM   14  N5  UNL     1      54.272  42.397  71.857  1.00  0.00    -0.066 NA
HETATM   15  N6  UNL     1      52.639  42.904  70.059  1.00  0.00    -0.066 NA
ATOM     16  H4  UNL     1      53.527  40.033  71.318  1.00  0.00     0.170 HD
ENDBRANCH  10  12
ENDBRANCH   1  10
TORSDOF 4
ENDMDL
MODEL 2
REMARK VINA RESULT: -5.114912237      2.763      3.478
REMARK  4 active torsions:
REMARK  status: ('A' for Active; 'I' for Inactive)
REMARK    1  A    between atoms: C1_2  and  C2_4 
REMARK       I    between atoms: C2_4  and  N2_6 
REMARK    2  A    between atoms: N2_6  and  N3_8 
REMARK    3  A    between atoms: N3_8  and  C3_10 
REMARK    4  A    between atoms: C3_10  and  N4_12 
ROOT
HETATM    1  N3  UNL     1      53.160  43.554  72.153  1.00  0.00    -0.273 N 
ATOM      2  H3  UNL     1      53.691  43.447  73.017  1.00  0.00     0.189 HD
ENDROOT
BRANCH   1   3
HETATM    3  N2  UNL     1      51.782  43.575  72.260  1.00  0.00    -0.260 N 
HETATM    4  C2  UNL     1      50.974  42.409  72.271  1.00  0.00     0.325 C 
HETATM    5  O2  UNL     1      51.534  41.289  72.184  1.00  0.00    -0.261 OA
ATOM      6  H2  UNL     1      51.319  44.481  72.335  1.00  0.00     0.190 HD
BRANCH   4   7
HETATM    7  C1  UNL     1      49.522  42.457  72.380  1.00  0.00     0.324 C 
HETATM    8  N1  UNL     1      48.843  42.402  73.612  1.00  0.00    -0.053 NA
HETATM    9  O1  UNL     1      48.798  42.555  71.329  1.00  0.00    -0.266 OA
ENDBRANCH   4   7
ENDBRANCH   1   3
BRANCH   1  10
HETATM   10  C3  UNL     1      53.901  43.668  70.954  1.00  0.00     0.192 C 
HETATM   11  S1  UNL     1      54.504  42.317  70.272  1.00  0.00    -0.039 SA
BRANCH  10  12
HETATM   12  N4  UNL     1      54.133  44.922  70.331  1.00  0.00    -0.309 N 
HETATM   13  C4  UNL     1      55.023  45.731  70.789  1.00  0.00     0.203 C 
HETATM   14  N5  UNL     1      55.256  46.981  70.168  1.00  0.00    -0.066 NA
HETATM   15  N6  UNL     1      55.755  45.317  71.940  1.00  0.00    -0.066 NA
ATOM     16  H4  UNL     1      53.589  45.185  69.510  1.00  0.00     0.170 HD
ENDBRANCH  10  12
ENDBRANCH   1  10
TORSDOF 4
ENDMDL
MODEL 3
REMARK VINA RESULT: -5.104026971      1.638      1.761
REMARK  4 active torsions:
REMARK  status: ('A' for Active; 'I' for Inactive)
REMARK    1  A    between atoms: C1_2  and  C2_4 
REMARK       I    between atoms: C2_4  and  N2_6 
REMARK    2  A    between atoms: N2_6  and  N3_8 
REMARK    3  A    between atoms: N3_8  and  C3_10 
REMARK    4  A    between atoms: C3_10  and  N4_12 
ROOT
HETATM    1  N3  UNL     1      51.108  40.479  69.664  1.00  0.00    -0.273 N 
ATOM      2  H3  UNL     1      50.567  40.070  68.901  1.00  0.00     0.189 HD
ENDROOT
BRANCH   1   3
HETATM    3  N2  UNL     1      50.415  40.823  70.811  1.00  0.00    -0.260 N 
HETATM    4  C2  UNL     1      49.918  42.127  71.070  1.00  0.00     0.325 C 
HETATM    5  O2  UNL     1      50.109  43.024  70.213  1.00  0.00    -0.261 OA
ATOM      6  H2  UNL     1      50.253  40.099  71.510  1.00  0.00     0.190 HD
BRANCH   4   7
HETATM    7  C1  UNL     1      49.196  42.466  72.289  1.00  0.00     0.324 C 
HETATM    8  N1  UNL     1      49.230  41.667  73.447  1.00  0.00    -0.053 NA
HETATM    9  O1  UNL     1      48.490  43.532  72.345  1.00  0.00    -0.266 OA
ENDBRANCH   4   7
ENDBRANCH   1   3
BRANCH   1  10
HETATM   10  C3  UNL     1      52.496  40.642  69.453  1.00  0.00     0.192 C 
HETATM   11  S1  UNL     1      53.416  39.317  69.224  1.00  0.00    -0.039 SA
BRANCH  10  12
HETATM   12  N4  UNL     1      53.107  41.922  69.435  1.00  0.00    -0.309 N 
HETATM   13  C4  UNL     1      53.535  42.463  70.521  1.00  0.00     0.203 C 
HETATM   14  N5  UNL     1      54.145  43.740  70.505  1.00  0.00    -0.066 NA
HETATM   15  N6  UNL     1      53.366  41.729  71.731  1.00  0.00    -0.066 NA
ATOM     16  H4  UNL     1      53.210  42.419  68.551  1.00  0.00     0.170 HD
ENDBRANCH  10  12
ENDBRANCH   1  10
TORSDOF 4
ENDMDL
MODEL 4
REMARK VINA RESULT: -5.071692621      2.444      3.016
REMARK  4 active torsions:
REMARK  status: ('A' for Active; 'I' for Inactive)
REMARK    1  A    between atoms: C1_2  and  C2_4 
REMARK       I    between atoms: C2_4  and  N2_6 
REMARK    2  A    between atoms: N2_6  and  N3_8 
REMARK    3  A    between atoms: N3_8  and  C3_10 
REMARK    4  A    between atoms: C3_10  and  N4_12 
ROOT
HETATM    1  N3  UNL     1      52.170  43.800  70.363  1.00  0.00    -0.273 N 
ATOM      2  H3  UNL     1      51.841  44.169  69.470  1.00  0.00     0.189 HD
ENDROOT
BRANCH   1   3
HETATM    3  N2  UNL     1      51.223  43.606  71.351  1.00  0.00    -0.260 N 
HETATM    4  C2  UNL     1      50.323  42.509  71.376  1.00  0.00     0.325 C 
HETATM    5  O2  UNL     1      50.387  41.658  70.455  1.00  0.00    -0.261 OA
ATOM      6  H2  UNL     1      51.167  44.291  72.105  1.00  0.00     0.190 HD
BRANCH   4   7
HETATM    7  C1  UNL     1      49.329  42.329  72.426  1.00  0.00     0.324 C 
HETATM    8  N1  UNL     1      49.191  41.132  73.153  1.00  0.00    -0.053 NA
HETATM    9  O1  UNL     1      48.529  43.281  72.728  1.00  0.00    -0.266 OA
ENDBRANCH   4   7
ENDBRANCH   1   3
BRANCH   1  10
HETATM   10  C3  UNL     1      53.554  43.535  70.476  1.00  0.00     0.192 C 
HETATM   11  S1  UNL     1      54.094  42.033  70.149  1.00  0.00    -0.039 SA
BRANCH  10  12
HETATM   12  N4  UNL     1      54.481  44.535  70.866  1.00  0.00    -0.309 N 
HETATM   13  C4  UNL     1      54.658  44.823  72.108  1.00  0.00     0.203 C 
HETATM   14  N5  UNL     1      55.583  45.820  72.498  1.00  0.00    -0.066 NA
HETATM   15  N6  UNL     1      53.886  44.101  73.065  1.00  0.00    -0.066 NA
ATOM     16  H4  UNL     1      55.015  45.033  70.153  1.00  0.00     0.170 HD
ENDBRANCH  10  12
ENDBRANCH   1  10
TORSDOF 4
ENDMDL
MODEL 5
REMARK VINA RESULT: -5.042770198      1.840      2.472
REMARK  4 active torsions:
REMARK  status: ('A' for Active; 'I' for Inactive)
REMARK    1  A    between atoms: C1_2  and  C2_4 
REMARK       I    between atoms: C2_4  and  N2_6 
REMARK    2  A    between atoms: N2_6  and  N3_8 
REMARK    3  A    between atoms: N3_8  and  C3_10 
REMARK    4  A    between atoms: C3_10  and  N4_12 
ROOT
HETATM    1  N3  UNL     1      52.984  41.349  71.834  1.00  0.00    -0.273 N 
ATOM      2  H3  UNL     1      53.225  40.616  72.502  1.00  0.00     0.189 HD
ENDROOT
BRANCH   1   3
HETATM    3  N2  UNL     1      51.876  42.124  72.124  1.00  0.00    -0.260 N 
HETATM    4  C2  UNL     1      50.574  41.595  72.324  1.00  0.00     0.325 C 
HETATM    5  O2  UNL     1      50.411  40.353  72.241  1.00  0.00    -0.261 OA
ATOM      6  H2  UNL     1      52.000  43.134  72.197  1.00  0.00     0.190 HD
BRANCH   4   7
HETATM    7  C1  UNL     1      49.421  42.433  72.622  1.00  0.00     0.324 C 
HETATM    8  N1  UNL     1      48.874  43.342  71.697  1.00  0.00    -0.053 NA
HETATM    9  O1  UNL     1      48.851  42.365  73.766  1.00  0.00    -0.266 OA
ENDBRANCH   4   7
ENDBRANCH   1   3
BRANCH   1  10
HETATM   10  C3  UNL     1      53.814  41.480  70.698  1.00  0.00     0.192 C 
HETATM   11  S1  UNL     1      54.953  42.645  70.687  1.00  0.00    -0.039 SA
BRANCH  10  12
HETATM   12  N4  UNL     1      53.683  40.629  69.570  1.00  0.00    -0.309 N 
HETATM   13  C4  UNL     1      52.724  40.794  68.728  1.00  0.00     0.203 C 
HETATM   14  N5  UNL     1      52.592  39.946  67.603  1.00  0.00    -0.066 NA
HETATM   15  N6  UNL     1      51.806  41.856  68.977  1.00  0.00    -0.066 NA
ATOM     16  H4  UNL     1      54.357  39.878  69.424  1.00  0.00     0.170 HD
ENDBRANCH  10  12
ENDBRANCH   1  10
TORSDOF 4
ENDMDL
