MODEL 1
REMARK VINA RESULT: -5.845754387      0.000      0.000
REMARK  4 active torsions:
REMARK  status: ('A' for Active; 'I' for Inactive)
REMARK    1  A    between atoms: C5_5  and  N1_6 
REMARK    2  A    between atoms: N1_6  and  C6_8 
REMARK    3  A    between atoms: C6_8  and  N2_10 
REMARK    4  A    between atoms: N2_10  and  C7_12 
ROOT
HETATM    1  N1  UNL     1      -0.723   6.894   7.220  1.00  0.00    -0.363 N 
ATOM      2  H1  UNL     1      -0.159   7.134   8.035  1.00  0.00     0.162 HD
ENDROOT
BRANCH   1   3
HETATM    3  C5  UNL     1      -1.171   7.956   6.335  1.00  0.00     0.083 C 
HETATM    4  C4  UNL     1      -0.144   9.097   6.394  1.00  0.00     0.025 C 
HETATM    5  C3  UNL     1      -0.653  10.091   5.367  1.00  0.00     0.006 C 
HETATM    6  C2  UNL     1      -1.823  10.776   6.002  1.00  0.00    -0.019 C 
HETATM    7  C1  UNL     1      -2.656  11.478   4.919  1.00  0.00     0.010 C 
HETATM    8  C12 UNL     1      -2.667   9.917   6.860  1.00  0.00     0.006 C 
HETATM    9  C11 UNL     1      -2.549   8.445   6.655  1.00  0.00     0.025 C 
ENDBRANCH   1   3
BRANCH   1  10
HETATM   10  C6  UNL     1      -1.047   5.532   6.985  1.00  0.00     0.168 C 
HETATM   11  S1  UNL     1      -1.772   5.155   5.569  1.00  0.00    -0.041 SA
BRANCH  10  12
HETATM   12  N2  UNL     1      -0.743   4.531   7.951  1.00  0.00    -0.359 N 
ATOM     13  H2  UNL     1       0.166   4.067   7.929  1.00  0.00     0.162 HD
BRANCH  12  14
HETATM   14  C7  UNL     1      -1.715   4.161   8.967  1.00  0.00     0.021 C 
HETATM   15  C8  UNL     1      -1.093   4.115  10.339  1.00  0.00     0.037 C 
HETATM   16  C9  UNL     1      -2.255   2.789   8.619  1.00  0.00     0.037 C 
HETATM   17  C10 UNL     1      -2.865   5.130   9.015  1.00  0.00     0.037 C 
ENDBRANCH  12  14
ENDBRANCH  10  12
ENDBRANCH   1  10
TORSDOF 4
ENDMDL
MODEL 2
REMARK VINA RESULT: -5.844060664      0.071      1.079
REMARK  4 active torsions:
REMARK  status: ('A' for Active; 'I' for Inactive)
REMARK    1  A    between atoms: C5_5  and  N1_6 
REMARK    2  A    between atoms: N1_6  and  C6_8 
REMARK    3  A    between atoms: C6_8  and  N2_10 
REMARK    4  A    between atoms: N2_10  and  C7_12 
ROOT
HETATM    1  N1  UNL     1      -0.723   6.896   7.212  1.00  0.00    -0.363 N 
ATOM      2  H1  UNL     1      -0.150   7.130   8.023  1.00  0.00     0.162 HD
ENDROOT
BRANCH   1   3
HETATM    3  C5  UNL     1      -1.163   7.963   6.330  1.00  0.00     0.083 C 
HETATM    4  C4  UNL     1      -0.116   9.087   6.372  1.00  0.00     0.025 C 
HETATM    5  C3  UNL     1      -0.622  10.086   5.348  1.00  0.00     0.006 C 
HETATM    6  C2  UNL     1      -1.772  10.792   5.996  1.00  0.00    -0.019 C 
HETATM    7  C1  UNL     1      -2.607  11.505   4.921  1.00  0.00     0.010 C 
HETATM    8  C12 UNL     1      -2.619   9.951   6.866  1.00  0.00     0.006 C 
HETATM    9  C11 UNL     1      -2.529   8.476   6.665  1.00  0.00     0.025 C 
ENDBRANCH   1   3
BRANCH   1  10
HETATM   10  C6  UNL     1      -1.065   5.538   6.980  1.00  0.00     0.168 C 
HETATM   11  S1  UNL     1      -1.786   5.166   5.561  1.00  0.00    -0.041 SA
BRANCH  10  12
HETATM   12  N2  UNL     1      -0.782   4.536   7.952  1.00  0.00    -0.359 N 
ATOM     13  H2  UNL     1       0.139   4.100   7.975  1.00  0.00     0.162 HD
BRANCH  12  14
HETATM   14  C7  UNL     1      -1.796   4.129   8.913  1.00  0.00     0.021 C 
HETATM   15  C8  UNL     1      -2.912   5.137   9.003  1.00  0.00     0.037 C 
HETATM   16  C9  UNL     1      -1.129   4.001  10.268  1.00  0.00     0.037 C 
HETATM   17  C10 UNL     1      -2.403   2.800   8.551  1.00  0.00     0.037 C 
ENDBRANCH  12  14
ENDBRANCH  10  12
ENDBRANCH   1  10
TORSDOF 4
ENDMDL
MODEL 3
REMARK VINA RESULT: -5.809287740      1.574      2.025
REMARK  4 active torsions:
REMARK  status: ('A' for Active; 'I' for Inactive)
REMARK    1  A    between atoms: C5_5  and  N1_6 
REMARK    2  A    between atoms: N1_6  and  C6_8 
REMARK    3  A    between atoms: C6_8  and  N2_10 
REMARK    4  A    between atoms: N2_10  and  C7_12 
ROOT
HETATM    1  N1  UNL     1      -0.926   6.800   7.203  1.00  0.00    -0.363 N 
ATOM      2  H1  UNL     1      -0.371   6.973   8.041  1.00  0.00     0.162 HD
ENDROOT
BRANCH   1   3
HETATM    3  C5  UNL     1      -1.242   7.914   6.326  1.00  0.00     0.083 C 
HETATM    4  C4  UNL     1      -0.125   8.960   6.452  1.00  0.00     0.025 C 
HETATM    5  C3  UNL     1      -0.504  10.014   5.428  1.00  0.00     0.006 C 
HETATM    6  C2  UNL     1      -1.636  10.786   6.031  1.00  0.00    -0.019 C 
HETATM    7  C1  UNL     1      -2.359  11.578   4.932  1.00  0.00     0.010 C 
HETATM    8  C12 UNL     1      -2.585   9.987   6.834  1.00  0.00     0.006 C 
HETATM    9  C11 UNL     1      -2.586   8.514   6.601  1.00  0.00     0.025 C 
ENDBRANCH   1   3
BRANCH   1  10
HETATM   10  C6  UNL     1      -1.363   5.478   6.929  1.00  0.00     0.168 C 
HETATM   11  S1  UNL     1      -0.386   4.245   7.373  1.00  0.00    -0.041 SA
BRANCH  10  12
HETATM   12  N2  UNL     1      -2.615   5.238   6.294  1.00  0.00    -0.359 N 
ATOM     13  H2  UNL     1      -2.682   5.281   5.277  1.00  0.00     0.162 HD
BRANCH  12  14
HETATM   14  C7  UNL     1      -3.800   4.933   7.081  1.00  0.00     0.021 C 
HETATM   15  C8  UNL     1      -4.001   3.447   7.228  1.00  0.00     0.037 C 
HETATM   16  C9  UNL     1      -4.999   5.529   6.369  1.00  0.00     0.037 C 
HETATM   17  C10 UNL     1      -3.720   5.527   8.461  1.00  0.00     0.037 C 
ENDBRANCH  12  14
ENDBRANCH  10  12
ENDBRANCH   1  10
TORSDOF 4
ENDMDL
MODEL 4
REMARK VINA RESULT: -5.769776290      1.567      1.835
REMARK  4 active torsions:
REMARK  status: ('A' for Active; 'I' for Inactive)
REMARK    1  A    between atoms: C5_5  and  N1_6 
REMARK    2  A    between atoms: N1_6  and  C6_8 
REMARK    3  A    between atoms: C6_8  and  N2_10 
REMARK    4  A    between atoms: N2_10  and  C7_12 
ROOT
HETATM    1  N1  UNL     1      -0.946   6.811   7.220  1.00  0.00    -0.363 N 
ATOM      2  H1  UNL     1      -0.398   6.987   8.063  1.00  0.00     0.162 HD
ENDROOT
BRANCH   1   3
HETATM    3  C5  UNL     1      -1.252   7.921   6.335  1.00  0.00     0.083 C 
HETATM    4  C4  UNL     1      -0.129   8.961   6.460  1.00  0.00     0.025 C 
HETATM    5  C3  UNL     1      -0.497  10.010   5.427  1.00  0.00     0.006 C 
HETATM    6  C2  UNL     1      -1.627  10.792   6.019  1.00  0.00    -0.019 C 
HETATM    7  C1  UNL     1      -2.341  11.582   4.911  1.00  0.00     0.010 C 
HETATM    8  C12 UNL     1      -2.586  10.005   6.823  1.00  0.00     0.006 C 
HETATM    9  C11 UNL     1      -2.594   8.530   6.600  1.00  0.00     0.025 C 
ENDBRANCH   1   3
BRANCH   1  10
HETATM   10  C6  UNL     1      -1.385   5.488   6.950  1.00  0.00     0.168 C 
HETATM   11  S1  UNL     1      -0.397   4.256   7.375  1.00  0.00    -0.041 SA
BRANCH  10  12
HETATM   12  N2  UNL     1      -2.646   5.247   6.334  1.00  0.00    -0.359 N 
ATOM     13  H2  UNL     1      -2.721   5.254   5.317  1.00  0.00     0.162 HD
BRANCH  12  14
HETATM   14  C7  UNL     1      -3.829   4.992   7.141  1.00  0.00     0.021 C 
HETATM   15  C8  UNL     1      -3.693   5.574   8.524  1.00  0.00     0.037 C 
HETATM   16  C9  UNL     1      -4.005   3.490   7.248  1.00  0.00     0.037 C 
HETATM   17  C10 UNL     1      -5.067   5.575   6.515  1.00  0.00     0.037 C 
ENDBRANCH  12  14
ENDBRANCH  10  12
ENDBRANCH   1  10
TORSDOF 4
ENDMDL
MODEL 5
REMARK VINA RESULT: -5.766563480      3.666      4.839
REMARK  4 active torsions:
REMARK  status: ('A' for Active; 'I' for Inactive)
REMARK    1  A    between atoms: C5_5  and  N1_6 
REMARK    2  A    between atoms: N1_6  and  C6_8 
REMARK    3  A    between atoms: C6_8  and  N2_10 
REMARK    4  A    between atoms: N2_10  and  C7_12 
ROOT
HETATM    1  N1  UNL     1      -2.702   9.964   6.446  1.00  0.00    -0.363 N 
ATOM      2  H1  UNL     1      -2.628  10.531   7.291  1.00  0.00     0.162 HD
ENDROOT
BRANCH   1   3
HETATM    3  C5  UNL     1      -1.537   9.223   5.992  1.00  0.00     0.083 C 
HETATM    4  C4  UNL     1      -1.361   7.998   6.902  1.00  0.00     0.025 C 
HETATM    5  C3  UNL     1      -0.196   7.253   6.277  1.00  0.00     0.006 C 
HETATM    6  C2  UNL     1       1.033   8.022   6.654  1.00  0.00    -0.019 C 
HETATM    7  C1  UNL     1       2.196   7.608   5.740  1.00  0.00     0.010 C 
HETATM    8  C12 UNL     1       0.871   9.490   6.690  1.00  0.00     0.006 C 
HETATM    9  C11 UNL     1      -0.293  10.054   5.948  1.00  0.00     0.025 C 
ENDBRANCH   1   3
BRANCH   1  10
HETATM   10  C6  UNL     1      -3.938   9.924   5.751  1.00  0.00     0.168 C 
HETATM   11  S1  UNL     1      -4.758  11.328   5.574  1.00  0.00    -0.041 SA
BRANCH  10  12
HETATM   12  N2  UNL     1      -4.442   8.701   5.223  1.00  0.00    -0.359 N 
ATOM     13  H2  UNL     1      -4.271   8.465   4.245  1.00  0.00     0.162 HD
BRANCH  12  14
HETATM   14  C7  UNL     1      -5.198   7.786   6.063  1.00  0.00     0.021 C 
HETATM   15  C8  UNL     1      -5.069   8.137   7.523  1.00  0.00     0.037 C 
HETATM   16  C9  UNL     1      -4.656   6.389   5.837  1.00  0.00     0.037 C 
HETATM   17  C10 UNL     1      -6.663   7.793   5.716  1.00  0.00     0.037 C 
ENDBRANCH  12  14
ENDBRANCH  10  12
ENDBRANCH   1  10
TORSDOF 4
ENDMDL
