MODEL 1
REMARK VINA RESULT: -7.200532985      0.000      0.000
REMARK  8 active torsions:
REMARK  status: ('A' for Active; 'I' for Inactive)
REMARK    1  A    between atoms: C1_2  and  C2_3 
REMARK       I    between atoms: C1_2  and  N3_14 
REMARK    2  A    between atoms: C2_3  and  C3_4 
REMARK    3  A    between atoms: C3_4  and  C4_5 
REMARK    4  A    between atoms: C4_5  and  N1_6 
REMARK    5  A    between atoms: N3_14  and  C9_16 
REMARK    6  A    between atoms: C9_16  and  C10_17 
REMARK    7  A    between atoms: C10_17  and  C11_18 
REMARK    8  A    between atoms: C11_18  and  C12_19 
ROOT
HETATM    1  O1  UNL     1      55.819  12.496  -0.499  1.00  0.00    -0.274 OA
HETATM    2  C1  UNL     1      55.964  12.892   0.698  1.00  0.00     0.217 C 
HETATM    3  N3  UNL     1      55.900  14.266   1.042  1.00  0.00    -0.361 N 
ATOM      4  H3  UNL     1      56.018  14.573   2.008  1.00  0.00     0.162 HD
ENDROOT
BRANCH   3   5
HETATM    5  C9  UNL     1      55.660  15.220  -0.024  1.00  0.00     0.122 C 
BRANCH   5   6
HETATM    6  C10 UNL     1      54.405  15.984   0.268  1.00  0.00     0.020 C 
BRANCH   6   7
HETATM    7  C11 UNL     1      53.485  15.298   1.168  1.00  0.00     0.011 C 
BRANCH   7   8
HETATM    8  C12 UNL     1      52.277  14.601   0.690  1.00  0.00    -0.039 C 
HETATM    9  C13 UNL     1      51.392  14.258   1.876  1.00  0.00     0.014 C 
HETATM   10  C14 UNL     1      50.043  13.794   1.433  1.00  0.00    -0.013 C 
HETATM   11  C15 UNL     1      50.215  12.615   0.525  1.00  0.00     0.009 C 
HETATM   12  C19 UNL     1      49.338  14.945   0.742  1.00  0.00     0.009 C 
HETATM   13  C16 UNL     1      50.995  13.024  -0.679  1.00  0.00    -0.013 C 
HETATM   14  C17 UNL     1      50.301  14.121  -1.414  1.00  0.00     0.009 C 
HETATM   15  C21 UNL     1      52.397  13.532  -0.314  1.00  0.00     0.014 C 
HETATM   16  C18 UNL     1      50.149  15.292  -0.464  1.00  0.00    -0.013 C 
HETATM   17  C20 UNL     1      51.498  15.748  -0.065  1.00  0.00     0.014 C 
ENDBRANCH   7   8
ENDBRANCH   6   7
ENDBRANCH   5   6
ENDBRANCH   3   5
BRANCH   2  18
HETATM   18  C2  UNL     1      56.209  11.912   1.792  1.00  0.00     0.104 C 
BRANCH  18  19
HETATM   19  C3  UNL     1      55.120  12.051   2.805  1.00  0.00     0.029 C 
BRANCH  19  20
HETATM   20  C4  UNL     1      53.886  11.338   2.254  1.00  0.00     0.121 C 
BRANCH  20  21
HETATM   21  N1  UNL     1      54.307   9.998   1.894  1.00  0.00    -0.380 N 
HETATM   22  C5  UNL     1      54.163   9.538   0.713  1.00  0.00     0.072 C 
HETATM   23  C6  UNL     1      54.595   8.151   0.322  1.00  0.00     0.077 C 
HETATM   24  N2  UNL     1      53.618  10.115  -0.463  1.00  0.00    -0.380 N 
HETATM   25  C7  UNL     1      54.657   8.172  -1.172  1.00  0.00     0.027 C 
HETATM   26  C8  UNL     1      54.225   9.524  -1.643  1.00  0.00     0.121 C 
ATOM     27  H2  UNL     1      52.903  10.841  -0.477  1.00  0.00     0.160 HD
ATOM     28  H1  UNL     1      54.733   9.405   2.608  1.00  0.00     0.160 HD
ENDBRANCH  20  21
ENDBRANCH  19  20
ENDBRANCH  18  19
ENDBRANCH   2  18
TORSDOF 8
ENDMDL
MODEL 2
REMARK VINA RESULT: -7.153640136      0.137      1.460
REMARK  8 active torsions:
REMARK  status: ('A' for Active; 'I' for Inactive)
REMARK    1  A    between atoms: C1_2  and  C2_3 
REMARK       I    between atoms: C1_2  and  N3_14 
REMARK    2  A    between atoms: C2_3  and  C3_4 
REMARK    3  A    between atoms: C3_4  and  C4_5 
REMARK    4  A    between atoms: C4_5  and  N1_6 
REMARK    5  A    between atoms: N3_14  and  C9_16 
REMARK    6  A    between atoms: C9_16  and  C10_17 
REMARK    7  A    between atoms: C10_17  and  C11_18 
REMARK    8  A    between atoms: C11_18  and  C12_19 
ROOT
HETATM    1  O1  UNL     1      55.816  12.509  -0.591  1.00  0.00    -0.274 OA
HETATM    2  C1  UNL     1      55.960  12.934   0.596  1.00  0.00     0.217 C 
HETATM    3  N3  UNL     1      55.916  14.318   0.904  1.00  0.00    -0.361 N 
ATOM      4  H3  UNL     1      56.033  14.648   1.862  1.00  0.00     0.162 HD
ENDROOT
BRANCH   3   5
HETATM    5  C9  UNL     1      55.698  15.247  -0.188  1.00  0.00     0.122 C 
BRANCH   5   6
HETATM    6  C10 UNL     1      54.348  15.880  -0.038  1.00  0.00     0.020 C 
BRANCH   6   7
HETATM    7  C11 UNL     1      53.533  15.302   1.025  1.00  0.00     0.011 C 
BRANCH   7   8
HETATM    8  C12 UNL     1      52.156  14.827   0.800  1.00  0.00    -0.039 C 
HETATM    9  C13 UNL     1      51.385  15.873   0.014  1.00  0.00     0.014 C 
HETATM   10  C14 UNL     1      50.078  15.337  -0.469  1.00  0.00    -0.013 C 
HETATM   11  C15 UNL     1      49.290  14.855   0.710  1.00  0.00     0.009 C 
HETATM   12  C19 UNL     1      50.348  14.226  -1.465  1.00  0.00     0.009 C 
HETATM   13  C16 UNL     1      50.033  13.753   1.387  1.00  0.00    -0.013 C 
HETATM   14  C17 UNL     1      50.270  12.618   0.449  1.00  0.00     0.009 C 
HETATM   15  C21 UNL     1      51.403  14.214   1.905  1.00  0.00     0.014 C 
HETATM   16  C18 UNL     1      51.068  13.146  -0.725  1.00  0.00    -0.013 C 
HETATM   17  C20 UNL     1      52.368  13.643  -0.222  1.00  0.00     0.014 C 
ENDBRANCH   7   8
ENDBRANCH   6   7
ENDBRANCH   5   6
ENDBRANCH   3   5
BRANCH   2  18
HETATM   18  C2  UNL     1      56.183  11.980   1.717  1.00  0.00     0.104 C 
BRANCH  18  19
HETATM   19  C3  UNL     1      55.095  12.169   2.723  1.00  0.00     0.029 C 
BRANCH  19  20
HETATM   20  C4  UNL     1      53.867  11.413   2.220  1.00  0.00     0.121 C 
BRANCH  20  21
HETATM   21  N1  UNL     1      54.314  10.077   1.876  1.00  0.00    -0.380 N 
HETATM   22  C5  UNL     1      54.159   9.592   0.705  1.00  0.00     0.072 C 
HETATM   23  C6  UNL     1      54.617   8.209   0.332  1.00  0.00     0.077 C 
HETATM   24  N2  UNL     1      53.578  10.134  -0.469  1.00  0.00    -0.380 N 
HETATM   25  C7  UNL     1      54.651   8.204  -1.163  1.00  0.00     0.027 C 
HETATM   26  C8  UNL     1      54.177   9.536  -1.650  1.00  0.00     0.121 C 
ATOM     27  H2  UNL     1      52.845  10.843  -0.483  1.00  0.00     0.160 HD
ATOM     28  H1  UNL     1      54.766   9.508   2.591  1.00  0.00     0.160 HD
ENDBRANCH  20  21
ENDBRANCH  19  20
ENDBRANCH  18  19
ENDBRANCH   2  18
TORSDOF 8
ENDMDL
MODEL 3
REMARK VINA RESULT: -7.105522352      0.454      1.519
REMARK  8 active torsions:
REMARK  status: ('A' for Active; 'I' for Inactive)
REMARK    1  A    between atoms: C1_2  and  C2_3 
REMARK       I    between atoms: C1_2  and  N3_14 
REMARK    2  A    between atoms: C2_3  and  C3_4 
REMARK    3  A    between atoms: C3_4  and  C4_5 
REMARK    4  A    between atoms: C4_5  and  N1_6 
REMARK    5  A    between atoms: N3_14  and  C9_16 
REMARK    6  A    between atoms: C9_16  and  C10_17 
REMARK    7  A    between atoms: C10_17  and  C11_18 
REMARK    8  A    between atoms: C11_18  and  C12_19 
ROOT
HETATM    1  O1  UNL     1      55.579  12.626  -0.854  1.00  0.00    -0.274 OA
HETATM    2  C1  UNL     1      55.998  12.880   0.317  1.00  0.00     0.217 C 
HETATM    3  N3  UNL     1      55.926  14.185   0.868  1.00  0.00    -0.361 N 
ATOM      4  H3  UNL     1      56.266  14.378   1.810  1.00  0.00     0.162 HD
ENDROOT
BRANCH   3   5
HETATM    5  C9  UNL     1      55.353  15.235   0.048  1.00  0.00     0.122 C 
BRANCH   5   6
HETATM    6  C10 UNL     1      54.209  15.867   0.781  1.00  0.00     0.020 C 
BRANCH   6   7
HETATM    7  C11 UNL     1      53.234  14.915   1.300  1.00  0.00     0.011 C 
BRANCH   7   8
HETATM    8  C12 UNL     1      51.979  14.598   0.595  1.00  0.00    -0.039 C 
HETATM    9  C13 UNL     1      52.164  13.325  -0.213  1.00  0.00     0.014 C 
HETATM   10  C14 UNL     1      50.860  12.815  -0.731  1.00  0.00    -0.013 C 
HETATM   11  C15 UNL     1      50.215  13.889  -1.552  1.00  0.00     0.009 C 
HETATM   12  C19 UNL     1      49.998  12.405   0.447  1.00  0.00     0.009 C 
HETATM   13  C16 UNL     1      49.950  15.079  -0.693  1.00  0.00    -0.013 C 
HETATM   14  C17 UNL     1      49.060  14.723   0.449  1.00  0.00     0.009 C 
HETATM   15  C21 UNL     1      51.242  15.664  -0.103  1.00  0.00     0.014 C 
HETATM   16  C18 UNL     1      49.748  13.638   1.252  1.00  0.00    -0.013 C 
HETATM   17  C20 UNL     1      51.020  14.180   1.776  1.00  0.00     0.014 C 
ENDBRANCH   7   8
ENDBRANCH   6   7
ENDBRANCH   5   6
ENDBRANCH   3   5
BRANCH   2  18
HETATM   18  C2  UNL     1      56.585  11.802   1.158  1.00  0.00     0.104 C 
BRANCH  18  19
HETATM   19  C3  UNL     1      55.744  11.647   2.383  1.00  0.00     0.029 C 
BRANCH  19  20
HETATM   20  C4  UNL     1      54.379  11.125   1.941  1.00  0.00     0.121 C 
BRANCH  20  21
HETATM   21  N1  UNL     1      54.577   9.754   1.512  1.00  0.00    -0.380 N 
HETATM   22  C5  UNL     1      54.295   9.367   0.328  1.00  0.00     0.072 C 
HETATM   23  C6  UNL     1      54.495   7.950  -0.132  1.00  0.00     0.077 C 
HETATM   24  N2  UNL     1      53.770  10.064  -0.789  1.00  0.00    -0.380 N 
HETATM   25  C7  UNL     1      54.469   8.022  -1.626  1.00  0.00     0.027 C 
HETATM   26  C8  UNL     1      54.210   9.441  -2.025  1.00  0.00     0.121 C 
ATOM     27  H2  UNL     1      53.168  10.886  -0.734  1.00  0.00     0.160 HD
ATOM     28  H1  UNL     1      54.954   9.078   2.177  1.00  0.00     0.160 HD
ENDBRANCH  20  21
ENDBRANCH  19  20
ENDBRANCH  18  19
ENDBRANCH   2  18
TORSDOF 8
ENDMDL
MODEL 4
REMARK VINA RESULT: -7.074156660      1.326      2.248
REMARK  8 active torsions:
REMARK  status: ('A' for Active; 'I' for Inactive)
REMARK    1  A    between atoms: C1_2  and  C2_3 
REMARK       I    between atoms: C1_2  and  N3_14 
REMARK    2  A    between atoms: C2_3  and  C3_4 
REMARK    3  A    between atoms: C3_4  and  C4_5 
REMARK    4  A    between atoms: C4_5  and  N1_6 
REMARK    5  A    between atoms: N3_14  and  C9_16 
REMARK    6  A    between atoms: C9_16  and  C10_17 
REMARK    7  A    between atoms: C10_17  and  C11_18 
REMARK    8  A    between atoms: C11_18  and  C12_19 
ROOT
HETATM    1  O1  UNL     1      55.861  13.425   2.482  1.00  0.00    -0.274 OA
HETATM    2  C1  UNL     1      56.115  12.266   2.032  1.00  0.00     0.217 C 
HETATM    3  N3  UNL     1      56.605  12.068   0.717  1.00  0.00    -0.361 N 
ATOM      4  H3  UNL     1      56.806  11.131   0.365  1.00  0.00     0.162 HD
ENDROOT
BRANCH   3   5
HETATM    5  C9  UNL     1      56.813  13.240  -0.112  1.00  0.00     0.122 C 
BRANCH   5   6
HETATM    6  C10 UNL     1      55.551  13.547  -0.860  1.00  0.00     0.020 C 
BRANCH   6   7
HETATM    7  C11 UNL     1      55.061  14.907  -0.670  1.00  0.00     0.011 C 
BRANCH   7   8
HETATM    8  C12 UNL     1      53.679  15.203  -0.251  1.00  0.00    -0.039 C 
HETATM    9  C13 UNL     1      52.963  13.902   0.070  1.00  0.00     0.014 C 
HETATM   10  C14 UNL     1      51.656  14.154   0.748  1.00  0.00    -0.013 C 
HETATM   11  C15 UNL     1      50.819  15.032  -0.130  1.00  0.00     0.009 C 
HETATM   12  C19 UNL     1      51.927  14.791   2.097  1.00  0.00     0.009 C 
HETATM   13  C16 UNL     1      51.509  16.340  -0.328  1.00  0.00    -0.013 C 
HETATM   14  C17 UNL     1      51.743  17.020   0.978  1.00  0.00     0.009 C 
HETATM   15  C21 UNL     1      52.875  16.174  -1.010  1.00  0.00     0.014 C 
HETATM   16  C18 UNL     1      52.593  16.102   1.834  1.00  0.00    -0.013 C 
HETATM   17  C20 UNL     1      53.889  15.894   1.152  1.00  0.00     0.014 C 
ENDBRANCH   7   8
ENDBRANCH   6   7
ENDBRANCH   5   6
ENDBRANCH   3   5
BRANCH   2  18
HETATM   18  C2  UNL     1      55.903  11.064   2.884  1.00  0.00     0.104 C 
BRANCH  18  19
HETATM   19  C3  UNL     1      54.479  11.048   3.334  1.00  0.00     0.029 C 
BRANCH  19  20
HETATM   20  C4  UNL     1      53.607  10.851   2.095  1.00  0.00     0.121 C 
BRANCH  20  21
HETATM   21  N1  UNL     1      54.100   9.664   1.425  1.00  0.00    -0.380 N 
HETATM   22  C5  UNL     1      54.000   9.509   0.162  1.00  0.00     0.072 C 
HETATM   23  C6  UNL     1      54.507   8.284  -0.549  1.00  0.00     0.077 C 
HETATM   24  N2  UNL     1      53.449  10.338  -0.848  1.00  0.00    -0.380 N 
HETATM   25  C7  UNL     1      54.595   8.682  -1.988  1.00  0.00     0.027 C 
HETATM   26  C8  UNL     1      54.105  10.089  -2.119  1.00  0.00     0.121 C 
ATOM     27  H2  UNL     1      52.698  11.013  -0.702  1.00  0.00     0.160 HD
ATOM     28  H1  UNL     1      54.542   8.930   1.980  1.00  0.00     0.160 HD
ENDBRANCH  20  21
ENDBRANCH  19  20
ENDBRANCH  18  19
ENDBRANCH   2  18
TORSDOF 8
ENDMDL
MODEL 5
REMARK VINA RESULT: -7.043159697      2.404      5.576
REMARK  8 active torsions:
REMARK  status: ('A' for Active; 'I' for Inactive)
REMARK    1  A    between atoms: C1_2  and  C2_3 
REMARK       I    between atoms: C1_2  and  N3_14 
REMARK    2  A    between atoms: C2_3  and  C3_4 
REMARK    3  A    between atoms: C3_4  and  C4_5 
REMARK    4  A    between atoms: C4_5  and  N1_6 
REMARK    5  A    between atoms: N3_14  and  C9_16 
REMARK    6  A    between atoms: C9_16  and  C10_17 
REMARK    7  A    between atoms: C10_17  and  C11_18 
REMARK    8  A    between atoms: C11_18  and  C12_19 
ROOT
HETATM    1  O1  UNL     1      52.655  14.433  -0.318  1.00  0.00    -0.274 OA
HETATM    2  C1  UNL     1      53.006  15.541   0.190  1.00  0.00     0.217 C 
HETATM    3  N3  UNL     1      54.249  16.147  -0.127  1.00  0.00    -0.361 N 
ATOM      4  H3  UNL     1      54.521  17.038   0.287  1.00  0.00     0.162 HD
ENDROOT
BRANCH   3   5
HETATM    5  C9  UNL     1      55.119  15.457  -1.060  1.00  0.00     0.122 C 
BRANCH   5   6
HETATM    6  C10 UNL     1      56.264  14.847  -0.310  1.00  0.00     0.020 C 
BRANCH   6   7
HETATM    7  C11 UNL     1      56.243  13.389  -0.271  1.00  0.00     0.011 C 
BRANCH   7   8
HETATM    8  C12 UNL     1      55.664  12.633   0.854  1.00  0.00    -0.039 C 
HETATM    9  C13 UNL     1      54.582  11.704   0.332  1.00  0.00     0.014 C 
HETATM   10  C14 UNL     1      54.149  10.730   1.378  1.00  0.00    -0.013 C 
HETATM   11  C15 UNL     1      53.677  11.491   2.578  1.00  0.00     0.009 C 
HETATM   12  C19 UNL     1      55.317   9.820   1.705  1.00  0.00     0.009 C 
HETATM   13  C16 UNL     1      54.802  12.305   3.125  1.00  0.00    -0.013 C 
HETATM   14  C17 UNL     1      55.950  11.434   3.508  1.00  0.00     0.009 C 
HETATM   15  C21 UNL     1      55.322  13.328   2.105  1.00  0.00     0.014 C 
HETATM   16  C18 UNL     1      56.397  10.685   2.269  1.00  0.00    -0.013 C 
HETATM   17  C20 UNL     1      56.847  11.671   1.263  1.00  0.00     0.014 C 
ENDBRANCH   7   8
ENDBRANCH   6   7
ENDBRANCH   5   6
ENDBRANCH   3   5
BRANCH   2  18
HETATM   18  C2  UNL     1      52.112  16.250   1.147  1.00  0.00     0.104 C 
BRANCH  18  19
HETATM   19  C3  UNL     1      51.897  15.369   2.334  1.00  0.00     0.029 C 
BRANCH  19  20
HETATM   20  C4  UNL     1      50.410  15.024   2.386  1.00  0.00     0.121 C 
BRANCH  20  21
HETATM   21  N1  UNL     1      50.267  13.711   1.786  1.00  0.00    -0.380 N 
HETATM   22  C5  UNL     1      49.361  13.456   0.924  1.00  0.00     0.072 C 
HETATM   23  C6  UNL     1      49.199  12.101   0.293  1.00  0.00     0.077 C 
HETATM   24  N2  UNL     1      48.345  14.267   0.359  1.00  0.00    -0.380 N 
HETATM   25  C7  UNL     1      48.359  12.339  -0.922  1.00  0.00     0.027 C 
HETATM   26  C8  UNL     1      47.999  13.790  -0.969  1.00  0.00     0.121 C 
ATOM     27  H2  UNL     1      47.917  15.071   0.818  1.00  0.00     0.160 HD
ATOM     28  H1  UNL     1      50.911  12.970   2.062  1.00  0.00     0.160 HD
ENDBRANCH  20  21
ENDBRANCH  19  20
ENDBRANCH  18  19
ENDBRANCH   2  18
TORSDOF 8
ENDMDL
