MODEL 1
REMARK VINA RESULT: -13.589753549      0.000      0.000
REMARK  5 active torsions:
REMARK  status: ('A' for Active; 'I' for Inactive)
REMARK    1  A    between atoms: C5_6  and  C6_7 
REMARK    2  A    between atoms: C9_10  and  C10_11 
REMARK    3  A    between atoms: C11_12  and  C12_13 
REMARK    4  A    between atoms: C15_16  and  C16_17 
REMARK    5  A    between atoms: C17_18  and  C18_19 
ROOT
HETATM    1  N1  UNL     1      65.864  29.848  83.150  1.00  0.00    -0.191 NA
HETATM    2  C1  UNL     1      65.121  30.177  82.316  1.00  0.00     0.099 C 
HETATM    3  C2  UNL     1      64.214  30.584  81.264  1.00  0.00     0.044 A 
HETATM    4  C3  UNL     1      64.364  31.817  80.663  1.00  0.00     0.023 A 
HETATM    5  C4  UNL     1      63.522  32.244  79.658  1.00  0.00     0.014 A 
HETATM    6  C5  UNL     1      62.486  31.428  79.223  1.00  0.00    -0.026 A 
HETATM    7  C28 UNL     1      62.356  30.201  79.839  1.00  0.00     0.014 A 
HETATM    8  C29 UNL     1      63.188  29.758  80.843  1.00  0.00     0.023 A 
ENDROOT
BRANCH   6   9
HETATM    9  C6  UNL     1      61.601  31.888  78.160  1.00  0.00    -0.026 A 
HETATM   10  C7  UNL     1      61.475  33.220  77.823  1.00  0.00     0.013 A 
HETATM   11  C8  UNL     1      60.640  33.638  76.824  1.00  0.00     0.012 A 
HETATM   12  C9  UNL     1      59.887  32.700  76.114  1.00  0.00    -0.036 A 
HETATM   13  C26 UNL     1      59.982  31.388  76.414  1.00  0.00     0.012 A 
HETATM   14  C27 UNL     1      60.845  30.991  77.442  1.00  0.00     0.013 A 
BRANCH  12  15
HETATM   15  C10 UNL     1      59.012  33.173  75.061  1.00  0.00     0.012 C 
HETATM   16  C11 UNL     1      58.674  32.404  74.058  1.00  0.00     0.012 C 
BRANCH  16  17
HETATM   17  C12 UNL     1      57.797  32.905  73.018  1.00  0.00    -0.036 A 
HETATM   18  C13 UNL     1      57.716  32.190  71.835  1.00  0.00     0.012 A 
HETATM   19  C14 UNL     1      56.885  32.637  70.809  1.00  0.00     0.012 A 
HETATM   20  C15 UNL     1      56.140  33.783  70.951  1.00  0.00    -0.036 A 
HETATM   21  C24 UNL     1      56.221  34.501  72.143  1.00  0.00     0.012 A 
HETATM   22  C25 UNL     1      57.047  34.042  73.141  1.00  0.00     0.012 A 
BRANCH  20  23
HETATM   23  C16 UNL     1      55.277  34.234  69.867  1.00  0.00     0.012 C 
HETATM   24  C17 UNL     1      55.566  35.255  69.114  1.00  0.00     0.012 C 
BRANCH  24  25
HETATM   25  C18 UNL     1      54.671  35.665  68.045  1.00  0.00    -0.036 A 
HETATM   26  C19 UNL     1      53.891  34.819  67.297  1.00  0.00     0.011 A 
HETATM   27  C20 UNL     1      53.052  35.300  66.280  1.00  0.00     0.001 A 
HETATM   28  C21 UNL     1      52.968  36.640  65.982  1.00  0.00     0.000 A 
HETATM   29  C22 UNL     1      53.747  37.496  66.730  1.00  0.00     0.001 A 
HETATM   30  C23 UNL     1      54.567  37.024  67.722  1.00  0.00     0.011 A 
ENDBRANCH  24  25
ENDBRANCH  20  23
ENDBRANCH  16  17
ENDBRANCH  12  15
ENDBRANCH   6   9
TORSDOF 5
ENDMDL
MODEL 2
REMARK VINA RESULT: -13.583729046      0.108      1.501
REMARK  5 active torsions:
REMARK  status: ('A' for Active; 'I' for Inactive)
REMARK    1  A    between atoms: C5_6  and  C6_7 
REMARK    2  A    between atoms: C9_10  and  C10_11 
REMARK    3  A    between atoms: C11_12  and  C12_13 
REMARK    4  A    between atoms: C15_16  and  C16_17 
REMARK    5  A    between atoms: C17_18  and  C18_19 
ROOT
HETATM    1  N1  UNL     1      65.646  29.751  83.232  1.00  0.00    -0.191 NA
HETATM    2  C1  UNL     1      64.983  30.131  82.354  1.00  0.00     0.099 C 
HETATM    3  C2  UNL     1      64.141  30.605  81.276  1.00  0.00     0.044 A 
HETATM    4  C3  UNL     1      63.094  29.828  80.825  1.00  0.00     0.023 A 
HETATM    5  C4  UNL     1      62.268  30.242  79.801  1.00  0.00     0.014 A 
HETATM    6  C5  UNL     1      62.478  31.471  79.191  1.00  0.00    -0.026 A 
HETATM    7  C28 UNL     1      63.530  32.231  79.659  1.00  0.00     0.014 A 
HETATM    8  C29 UNL     1      64.365  31.833  80.680  1.00  0.00     0.023 A 
ENDROOT
BRANCH   6   9
HETATM    9  C6  UNL     1      61.600  31.901  78.110  1.00  0.00    -0.026 A 
HETATM   10  C7  UNL     1      60.880  31.010  77.340  1.00  0.00     0.013 A 
HETATM   11  C8  UNL     1      60.060  31.427  76.328  1.00  0.00     0.012 A 
HETATM   12  C9  UNL     1      59.938  32.790  76.053  1.00  0.00    -0.036 A 
HETATM   13  C26 UNL     1      60.627  33.692  76.783  1.00  0.00     0.012 A 
HETATM   14  C27 UNL     1      61.457  33.236  77.812  1.00  0.00     0.013 A 
BRANCH  12  15
HETATM   15  C10 UNL     1      59.062  33.201  74.975  1.00  0.00     0.012 C 
HETATM   16  C11 UNL     1      58.765  32.391  73.992  1.00  0.00     0.012 C 
BRANCH  16  17
HETATM   17  C12 UNL     1      57.884  32.831  72.926  1.00  0.00    -0.036 A 
HETATM   18  C13 UNL     1      57.215  34.032  73.090  1.00  0.00     0.012 A 
HETATM   19  C14 UNL     1      56.359  34.492  72.090  1.00  0.00     0.012 A 
HETATM   20  C15 UNL     1      56.165  33.768  70.938  1.00  0.00    -0.036 A 
HETATM   21  C24 UNL     1      56.839  32.560  70.774  1.00  0.00     0.012 A 
HETATM   22  C25 UNL     1      57.679  32.126  71.773  1.00  0.00     0.012 A 
BRANCH  20  23
HETATM   23  C16 UNL     1      55.265  34.265  69.905  1.00  0.00     0.012 C 
HETATM   24  C17 UNL     1      55.621  35.157  69.028  1.00  0.00     0.012 C 
BRANCH  24  25
HETATM   25  C18 UNL     1      54.684  35.620  68.018  1.00  0.00    -0.036 A 
HETATM   26  C19 UNL     1      53.838  34.816  67.295  1.00  0.00     0.011 A 
HETATM   27  C20 UNL     1      52.963  35.346  66.336  1.00  0.00     0.001 A 
HETATM   28  C21 UNL     1      52.906  36.695  66.072  1.00  0.00     0.000 A 
HETATM   29  C22 UNL     1      53.752  37.508  66.795  1.00  0.00     0.001 A 
HETATM   30  C23 UNL     1      54.607  36.989  67.730  1.00  0.00     0.011 A 
ENDBRANCH  24  25
ENDBRANCH  20  23
ENDBRANCH  16  17
ENDBRANCH  12  15
ENDBRANCH   6   9
TORSDOF 5
ENDMDL
MODEL 3
REMARK VINA RESULT: -13.531839971      0.139      1.499
REMARK  5 active torsions:
REMARK  status: ('A' for Active; 'I' for Inactive)
REMARK    1  A    between atoms: C5_6  and  C6_7 
REMARK    2  A    between atoms: C9_10  and  C10_11 
REMARK    3  A    between atoms: C11_12  and  C12_13 
REMARK    4  A    between atoms: C15_16  and  C16_17 
REMARK    5  A    between atoms: C17_18  and  C18_19 
ROOT
HETATM    1  N1  UNL     1      65.678  29.783  83.254  1.00  0.00    -0.191 NA
HETATM    2  C1  UNL     1      65.010  30.155  82.377  1.00  0.00     0.099 C 
HETATM    3  C2  UNL     1      64.162  30.620  81.299  1.00  0.00     0.044 A 
HETATM    4  C3  UNL     1      63.123  29.831  80.849  1.00  0.00     0.023 A 
HETATM    5  C4  UNL     1      62.292  30.236  79.826  1.00  0.00     0.014 A 
HETATM    6  C5  UNL     1      62.489  31.467  79.215  1.00  0.00    -0.026 A 
HETATM    7  C28 UNL     1      63.533  32.238  79.682  1.00  0.00     0.014 A 
HETATM    8  C29 UNL     1      64.372  31.850  80.703  1.00  0.00     0.023 A 
ENDROOT
BRANCH   6   9
HETATM    9  C6  UNL     1      61.605  31.887  78.134  1.00  0.00    -0.026 A 
HETATM   10  C7  UNL     1      61.424  33.212  77.795  1.00  0.00     0.013 A 
HETATM   11  C8  UNL     1      60.592  33.592  76.779  1.00  0.00     0.012 A 
HETATM   12  C9  UNL     1      59.897  32.621  76.054  1.00  0.00    -0.036 A 
HETATM   13  C26 UNL     1      60.047  31.315  76.356  1.00  0.00     0.012 A 
HETATM   14  C27 UNL     1      60.906  30.957  77.401  1.00  0.00     0.013 A 
BRANCH  12  15
HETATM   15  C10 UNL     1      59.023  33.054  74.983  1.00  0.00     0.012 C 
HETATM   16  C11 UNL     1      58.799  32.300  73.939  1.00  0.00     0.012 C 
BRANCH  16  17
HETATM   17  C12 UNL     1      57.919  32.761  72.881  1.00  0.00    -0.036 A 
HETATM   18  C13 UNL     1      57.251  33.959  73.069  1.00  0.00     0.012 A 
HETATM   19  C14 UNL     1      56.395  34.438  72.078  1.00  0.00     0.012 A 
HETATM   20  C15 UNL     1      56.201  33.738  70.912  1.00  0.00    -0.036 A 
HETATM   21  C24 UNL     1      56.875  32.533  70.724  1.00  0.00     0.012 A 
HETATM   22  C25 UNL     1      57.714  32.078  71.715  1.00  0.00     0.012 A 
BRANCH  20  23
HETATM   23  C16 UNL     1      55.301  34.255  69.889  1.00  0.00     0.012 C 
HETATM   24  C17 UNL     1      55.623  35.236  69.097  1.00  0.00     0.012 C 
BRANCH  24  25
HETATM   25  C18 UNL     1      54.688  35.715  68.092  1.00  0.00    -0.036 A 
HETATM   26  C19 UNL     1      54.523  37.027  67.725  1.00  0.00     0.011 A 
HETATM   27  C20 UNL     1      53.595  37.404  66.743  1.00  0.00     0.001 A 
HETATM   28  C21 UNL     1      52.805  36.480  66.099  1.00  0.00     0.000 A 
HETATM   29  C22 UNL     1      52.966  35.161  66.461  1.00  0.00     0.001 A 
HETATM   30  C23 UNL     1      53.872  34.794  67.421  1.00  0.00     0.011 A 
ENDBRANCH  24  25
ENDBRANCH  20  23
ENDBRANCH  16  17
ENDBRANCH  12  15
ENDBRANCH   6   9
TORSDOF 5
ENDMDL
MODEL 4
REMARK VINA RESULT: -13.328490658      4.397     13.545
REMARK  5 active torsions:
REMARK  status: ('A' for Active; 'I' for Inactive)
REMARK    1  A    between atoms: C5_6  and  C6_7 
REMARK    2  A    between atoms: C9_10  and  C10_11 
REMARK    3  A    between atoms: C11_12  and  C12_13 
REMARK    4  A    between atoms: C15_16  and  C16_17 
REMARK    5  A    between atoms: C17_18  and  C18_19 
ROOT
HETATM    1  N1  UNL     1      51.964  37.092  65.462  1.00  0.00    -0.191 NA
HETATM    2  C1  UNL     1      52.597  36.568  66.286  1.00  0.00     0.099 C 
HETATM    3  C2  UNL     1      53.376  35.930  67.326  1.00  0.00     0.044 A 
HETATM    4  C3  UNL     1      54.438  36.598  67.901  1.00  0.00     0.023 A 
HETATM    5  C4  UNL     1      55.206  36.027  68.894  1.00  0.00     0.014 A 
HETATM    6  C5  UNL     1      54.922  34.744  69.342  1.00  0.00    -0.026 A 
HETATM    7  C28 UNL     1      53.857  34.095  68.753  1.00  0.00     0.014 A 
HETATM    8  C29 UNL     1      53.080  34.651  67.760  1.00  0.00     0.023 A 
ENDROOT
BRANCH   6   9
HETATM    9  C6  UNL     1      55.740  34.148  70.392  1.00  0.00    -0.026 A 
HETATM   10  C7  UNL     1      55.893  34.730  71.634  1.00  0.00     0.013 A 
HETATM   11  C8  UNL     1      56.663  34.161  72.610  1.00  0.00     0.012 A 
HETATM   12  C9  UNL     1      57.321  32.955  72.357  1.00  0.00    -0.036 A 
HETATM   13  C26 UNL     1      57.196  32.356  71.155  1.00  0.00     0.012 A 
HETATM   14  C27 UNL     1      56.401  32.962  70.177  1.00  0.00     0.013 A 
BRANCH  12  15
HETATM   15  C10 UNL     1      58.129  32.377  73.410  1.00  0.00     0.012 C 
HETATM   16  C11 UNL     1      58.414  33.046  74.498  1.00  0.00     0.012 C 
BRANCH  16  17
HETATM   17  C12 UNL     1      59.226  32.440  75.536  1.00  0.00    -0.036 A 
HETATM   18  C13 UNL     1      60.044  33.267  76.286  1.00  0.00     0.012 A 
HETATM   19  C14 UNL     1      60.841  32.725  77.294  1.00  0.00     0.012 A 
HETATM   20  C15 UNL     1      60.829  31.377  77.557  1.00  0.00    -0.036 A 
HETATM   21  C24 UNL     1      60.004  30.546  76.801  1.00  0.00     0.012 A 
HETATM   22  C25 UNL     1      59.227  31.101  75.812  1.00  0.00     0.012 A 
BRANCH  20  23
HETATM   23  C16 UNL     1      61.671  30.830  78.613  1.00  0.00     0.012 C 
HETATM   24  C17 UNL     1      62.510  31.555  79.294  1.00  0.00     0.012 C 
BRANCH  24  25
HETATM   25  C18 UNL     1      63.327  30.959  80.338  1.00  0.00    -0.036 A 
HETATM   26  C19 UNL     1      64.307  31.610  81.045  1.00  0.00     0.011 A 
HETATM   27  C20 UNL     1      65.051  30.959  82.040  1.00  0.00     0.001 A 
HETATM   28  C21 UNL     1      64.836  29.638  82.358  1.00  0.00     0.000 A 
HETATM   29  C22 UNL     1      63.853  28.978  81.653  1.00  0.00     0.001 A 
HETATM   30  C23 UNL     1      63.128  29.616  80.681  1.00  0.00     0.011 A 
ENDBRANCH  24  25
ENDBRANCH  20  23
ENDBRANCH  16  17
ENDBRANCH  12  15
ENDBRANCH   6   9
TORSDOF 5
ENDMDL
MODEL 5
REMARK VINA RESULT: -13.268338029      4.395     13.553
REMARK  5 active torsions:
REMARK  status: ('A' for Active; 'I' for Inactive)
REMARK    1  A    between atoms: C5_6  and  C6_7 
REMARK    2  A    between atoms: C9_10  and  C10_11 
REMARK    3  A    between atoms: C11_12  and  C12_13 
REMARK    4  A    between atoms: C15_16  and  C16_17 
REMARK    5  A    between atoms: C17_18  and  C18_19 
ROOT
HETATM    1  N1  UNL     1      51.920  37.123  65.542  1.00  0.00    -0.191 NA
HETATM    2  C1  UNL     1      52.569  36.594  66.350  1.00  0.00     0.099 C 
HETATM    3  C2  UNL     1      53.366  35.945  67.370  1.00  0.00     0.044 A 
HETATM    4  C3  UNL     1      54.211  36.692  68.165  1.00  0.00     0.023 A 
HETATM    5  C4  UNL     1      54.987  36.114  69.148  1.00  0.00     0.014 A 
HETATM    6  C5  UNL     1      54.933  34.744  69.360  1.00  0.00    -0.026 A 
HETATM    7  C28 UNL     1      54.081  34.017  68.554  1.00  0.00     0.014 A 
HETATM    8  C29 UNL     1      53.300  34.578  67.568  1.00  0.00     0.023 A 
ENDROOT
BRANCH   6   9
HETATM    9  C6  UNL     1      55.757  34.141  70.402  1.00  0.00    -0.026 A 
HETATM   10  C7  UNL     1      56.417  32.942  70.226  1.00  0.00     0.013 A 
HETATM   11  C8  UNL     1      57.185  32.389  71.212  1.00  0.00     0.012 A 
HETATM   12  C9  UNL     1      57.315  33.044  72.438  1.00  0.00    -0.036 A 
HETATM   13  C26 UNL     1      56.685  34.218  72.649  1.00  0.00     0.012 A 
HETATM   14  C27 UNL     1      55.906  34.760  71.622  1.00  0.00     0.013 A 
BRANCH  12  15
HETATM   15  C10 UNL     1      58.137  32.432  73.463  1.00  0.00     0.012 C 
HETATM   16  C11 UNL     1      58.308  33.001  74.629  1.00  0.00     0.012 C 
BRANCH  16  17
HETATM   17  C12 UNL     1      59.137  32.364  75.635  1.00  0.00    -0.036 A 
HETATM   18  C13 UNL     1      60.007  33.162  76.359  1.00  0.00     0.012 A 
HETATM   19  C14 UNL     1      60.822  32.591  77.336  1.00  0.00     0.012 A 
HETATM   20  C15 UNL     1      60.777  31.242  77.594  1.00  0.00    -0.036 A 
HETATM   21  C24 UNL     1      59.900  30.441  76.865  1.00  0.00     0.012 A 
HETATM   22  C25 UNL     1      59.106  31.025  75.907  1.00  0.00     0.012 A 
BRANCH  20  23
HETATM   23  C16 UNL     1      61.638  30.664  78.618  1.00  0.00     0.012 C 
HETATM   24  C17 UNL     1      62.455  31.376  79.337  1.00  0.00     0.012 C 
BRANCH  24  25
HETATM   25  C18 UNL     1      63.293  30.750  80.347  1.00  0.00    -0.036 A 
HETATM   26  C19 UNL     1      63.173  29.454  80.783  1.00  0.00     0.011 A 
HETATM   27  C20 UNL     1      64.026  28.928  81.764  1.00  0.00     0.001 A 
HETATM   28  C21 UNL     1      65.024  29.681  82.337  1.00  0.00     0.000 A 
HETATM   29  C22 UNL     1      65.151  30.983  81.905  1.00  0.00     0.001 A 
HETATM   30  C23 UNL     1      64.316  31.496  80.946  1.00  0.00     0.011 A 
ENDBRANCH  24  25
ENDBRANCH  20  23
ENDBRANCH  16  17
ENDBRANCH  12  15
ENDBRANCH   6   9
TORSDOF 5
ENDMDL
