MODEL 1
REMARK VINA RESULT: -8.044054228      0.000      0.000
REMARK  9 active torsions:
REMARK  status: ('A' for Active; 'I' for Inactive)
REMARK    1  A    between atoms: C3_3  and  C4_4 
REMARK    2  A    between atoms: C4_4  and  C5_5 
REMARK    3  A    between atoms: C10_10  and  C11_11 
REMARK    4  A    between atoms: C11_11  and  N1_12 
REMARK    5  A    between atoms: C11_11  and  O1_15 
REMARK    6  A    between atoms: O1_15  and  C13_16 
REMARK    7  A    between atoms: C13_16  and  C14_17 
REMARK    8  A    between atoms: N3_26  and  C20_27 
REMARK    9  A    between atoms: C23_30  and  N4_31 
REMARK       I    between atoms: N4_31  and  C24_33 
ROOT
HETATM    1  C1  UNL     1      -3.292  12.490  12.005  1.00  0.00     0.112 C 
HETATM    2  C2  UNL     1      -3.245  11.044  11.831  1.00  0.00    -0.106 C 
HETATM    3  C3  UNL     1      -3.190   9.832  11.702  1.00  0.00    -0.077 C 
ENDROOT
BRANCH   3   4
HETATM    4  C4  UNL     1      -3.149   8.449  11.499  1.00  0.00     0.095 C 
BRANCH   4   5
HETATM    5  C5  UNL     1      -3.311   7.440  12.296  1.00  0.00     0.057 A 
HETATM    6  C6  UNL     1      -2.382   7.019  13.236  1.00  0.00    -0.027 A 
HETATM    7  C7  UNL     1      -1.186   7.832  13.568  1.00  0.00     0.051 C 
HETATM    8  C8  UNL     1      -2.542   5.866  14.026  1.00  0.00    -0.034 A 
HETATM    9  C9  UNL     1      -1.483   5.425  14.925  1.00  0.00     0.050 C 
HETATM   10  C10 UNL     1      -3.677   5.120  13.873  1.00  0.00     0.089 A 
HETATM   11  C19 UNL     1      -4.585   5.587  12.916  1.00  0.00     0.268 A 
HETATM   12  O2  UNL     1      -5.663   4.927  12.732  1.00  0.00    -0.267 OA
HETATM   13  N3  UNL     1      -4.439   6.658  12.173  1.00  0.00    -0.277 N 
BRANCH  10  14
HETATM   14  C11 UNL     1      -3.991   4.083  14.565  1.00  0.00     0.154 C 
BRANCH  14  15
HETATM   15  N1  UNL     1      -4.827   3.894  15.665  1.00  0.00    -0.374 N 
HETATM   16  C12 UNL     1      -5.838   4.874  16.089  1.00  0.00     0.148 C 
ATOM     17  H1  UNL     1      -4.732   3.033  16.203  1.00  0.00     0.161 HD
ENDBRANCH  14  15
BRANCH  14  18
HETATM   18  O1  UNL     1      -3.394   2.828  14.188  1.00  0.00    -0.331 OA
BRANCH  18  19
HETATM   19  C13 UNL     1      -4.287   1.730  14.203  1.00  0.00     0.217 C 
BRANCH  19  20
HETATM   20  C14 UNL     1      -4.389   1.062  12.898  1.00  0.00    -0.019 A 
HETATM   21  C15 UNL     1      -4.030  -0.262  12.732  1.00  0.00     0.012 A 
HETATM   22  C16 UNL     1      -4.128  -0.889  11.493  1.00  0.00     0.018 A 
HETATM   23  C17 UNL     1      -4.592  -0.181  10.400  1.00  0.00     0.087 A 
HETATM   24  N2  UNL     1      -4.938   1.110  10.572  1.00  0.00    -0.375 N 
HETATM   25  C18 UNL     1      -4.845   1.727  11.778  1.00  0.00     0.096 A 
ATOM     26  H2  UNL     1      -5.281   1.640   9.771  1.00  0.00     0.164 HD
ENDBRANCH  19  20
ENDBRANCH  18  19
ENDBRANCH  14  18
ENDBRANCH  10  14
BRANCH  13  27
HETATM   27  C20 UNL     1      -5.411   7.060  11.227  1.00  0.00     0.043 A 
HETATM   28  C21 UNL     1      -6.453   7.886  11.608  1.00  0.00     0.032 A 
HETATM   29  C22 UNL     1      -7.412   8.312  10.726  1.00  0.00     0.032 A 
HETATM   30  C23 UNL     1      -7.382   7.923   9.376  1.00  0.00     0.034 A 
HETATM   31  C26 UNL     1      -6.359   7.107   8.989  1.00  0.00     0.032 A 
HETATM   32  C27 UNL     1      -5.386   6.683   9.909  1.00  0.00     0.032 A 
BRANCH  30  33
HETATM   33  N4  UNL     1      -8.381   8.361   8.498  1.00  0.00    -0.328 N 
HETATM   34  C24 UNL     1      -8.580   9.655   8.053  1.00  0.00     0.218 C 
HETATM   35  C25 UNL     1      -9.738   9.894   7.088  1.00  0.00     0.117 C 
HETATM   36  O3  UNL     1      -7.954  10.705   8.314  1.00  0.00    -0.274 OA
ATOM     37  H4  UNL     1      -9.028   7.653   8.150  1.00  0.00     0.169 HD
ENDBRANCH  30  33
ENDBRANCH  13  27
ENDBRANCH   4   5
ENDBRANCH   3   4
TORSDOF 9
ENDMDL
MODEL 2
REMARK VINA RESULT: -8.041710742      2.623      8.379
REMARK  9 active torsions:
REMARK  status: ('A' for Active; 'I' for Inactive)
REMARK    1  A    between atoms: C3_3  and  C4_4 
REMARK    2  A    between atoms: C4_4  and  C5_5 
REMARK    3  A    between atoms: C10_10  and  C11_11 
REMARK    4  A    between atoms: C11_11  and  N1_12 
REMARK    5  A    between atoms: C11_11  and  O1_15 
REMARK    6  A    between atoms: O1_15  and  C13_16 
REMARK    7  A    between atoms: C13_16  and  C14_17 
REMARK    8  A    between atoms: N3_26  and  C20_27 
REMARK    9  A    between atoms: C23_30  and  N4_31 
REMARK       I    between atoms: N4_31  and  C24_33 
ROOT
HETATM    1  C1  UNL     1      -2.457  -1.494  11.546  1.00  0.00     0.112 C 
HETATM    2  C2  UNL     1      -2.264  -0.050  11.534  1.00  0.00    -0.106 C 
HETATM    3  C3  UNL     1      -2.085   1.156  11.539  1.00  0.00    -0.077 C 
ENDROOT
BRANCH   3   4
HETATM    4  C4  UNL     1      -1.936   2.547  11.525  1.00  0.00     0.095 C 
BRANCH   4   5
HETATM    5  C5  UNL     1      -2.564   3.490  10.896  1.00  0.00     0.057 A 
HETATM    6  C6  UNL     1      -2.288   3.893   9.597  1.00  0.00    -0.027 A 
HETATM    7  C7  UNL     1      -1.375   3.120   8.719  1.00  0.00     0.051 C 
HETATM    8  C8  UNL     1      -2.922   4.980   8.969  1.00  0.00    -0.034 A 
HETATM    9  C9  UNL     1      -2.516   5.413   7.637  1.00  0.00     0.050 C 
HETATM   10  C10 UNL     1      -3.871   5.676   9.664  1.00  0.00     0.089 A 
HETATM   11  C19 UNL     1      -4.116   5.230  10.968  1.00  0.00     0.268 A 
HETATM   12  O2  UNL     1      -4.993   5.846  11.663  1.00  0.00    -0.267 OA
HETATM   13  N3  UNL     1      -3.525   4.221  11.561  1.00  0.00    -0.277 N 
BRANCH  10  14
HETATM   14  C11 UNL     1      -4.576   6.647   9.202  1.00  0.00     0.154 C 
BRANCH  14  15
HETATM   15  N1  UNL     1      -4.603   8.014   9.477  1.00  0.00    -0.374 N 
HETATM   16  C12 UNL     1      -3.907   9.018   8.658  1.00  0.00     0.148 C 
ATOM     17  H1  UNL     1      -5.133   8.333  10.288  1.00  0.00     0.161 HD
ENDBRANCH  14  15
BRANCH  14  18
HETATM   18  O1  UNL     1      -5.557   6.335   8.196  1.00  0.00    -0.331 OA
BRANCH  18  19
HETATM   19  C13 UNL     1      -6.898   6.486   8.622  1.00  0.00     0.217 C 
BRANCH  19  20
HETATM   20  C14 UNL     1      -7.582   7.605   7.959  1.00  0.00    -0.019 A 
HETATM   21  C15 UNL     1      -8.763   8.128   8.453  1.00  0.00     0.012 A 
HETATM   22  C16 UNL     1      -9.407   9.186   7.819  1.00  0.00     0.018 A 
HETATM   23  C17 UNL     1      -8.863   9.734   6.672  1.00  0.00     0.087 A 
HETATM   24  N2  UNL     1      -7.712   9.216   6.199  1.00  0.00    -0.375 N 
HETATM   25  C18 UNL     1      -7.079   8.184   6.811  1.00  0.00     0.096 A 
ATOM     26  H2  UNL     1      -7.304   9.614   5.353  1.00  0.00     0.164 HD
ENDBRANCH  19  20
ENDBRANCH  18  19
ENDBRANCH  14  18
ENDBRANCH  10  14
BRANCH  13  27
HETATM   27  C20 UNL     1      -3.836   3.836  12.886  1.00  0.00     0.043 A 
HETATM   28  C21 UNL     1      -4.793   2.866  13.122  1.00  0.00     0.032 A 
HETATM   29  C22 UNL     1      -5.121   2.450  14.387  1.00  0.00     0.032 A 
HETATM   30  C23 UNL     1      -4.492   2.999  15.517  1.00  0.00     0.034 A 
HETATM   31  C26 UNL     1      -3.546   3.957  15.296  1.00  0.00     0.032 A 
HETATM   32  C27 UNL     1      -3.225   4.368  13.992  1.00  0.00     0.032 A 
BRANCH  30  33
HETATM   33  N4  UNL     1      -4.853   2.567  16.799  1.00  0.00    -0.328 N 
HETATM   34  C24 UNL     1      -5.971   2.952  17.516  1.00  0.00     0.218 C 
HETATM   35  C25 UNL     1      -6.160   2.340  18.902  1.00  0.00     0.117 C 
HETATM   36  O3  UNL     1      -6.889   3.745  17.217  1.00  0.00    -0.274 OA
ATOM     37  H4  UNL     1      -4.228   1.898  17.251  1.00  0.00     0.169 HD
ENDBRANCH  30  33
ENDBRANCH  13  27
ENDBRANCH   4   5
ENDBRANCH   3   4
TORSDOF 9
ENDMDL
MODEL 3
REMARK VINA RESULT: -7.938622127      2.276      8.413
REMARK  9 active torsions:
REMARK  status: ('A' for Active; 'I' for Inactive)
REMARK    1  A    between atoms: C3_3  and  C4_4 
REMARK    2  A    between atoms: C4_4  and  C5_5 
REMARK    3  A    between atoms: C10_10  and  C11_11 
REMARK    4  A    between atoms: C11_11  and  N1_12 
REMARK    5  A    between atoms: C11_11  and  O1_15 
REMARK    6  A    between atoms: O1_15  and  C13_16 
REMARK    7  A    between atoms: C13_16  and  C14_17 
REMARK    8  A    between atoms: N3_26  and  C20_27 
REMARK    9  A    between atoms: C23_30  and  N4_31 
REMARK       I    between atoms: N4_31  and  C24_33 
ROOT
HETATM    1  C1  UNL     1      -4.736   2.397  16.789  1.00  0.00     0.112 C 
HETATM    2  C2  UNL     1      -4.074   3.008  15.644  1.00  0.00    -0.106 C 
HETATM    3  C3  UNL     1      -3.541   3.529  14.678  1.00  0.00    -0.077 C 
ENDROOT
BRANCH   3   4
HETATM    4  C4  UNL     1      -2.883   4.087  13.577  1.00  0.00     0.095 C 
BRANCH   4   5
HETATM    5  C5  UNL     1      -3.282   4.865  12.620  1.00  0.00     0.057 A 
HETATM    6  C6  UNL     1      -3.345   6.249  12.701  1.00  0.00    -0.027 A 
HETATM    7  C7  UNL     1      -2.746   6.990  13.838  1.00  0.00     0.051 C 
HETATM    8  C8  UNL     1      -3.867   7.064  11.681  1.00  0.00    -0.034 A 
HETATM    9  C9  UNL     1      -3.995   8.505  11.870  1.00  0.00     0.050 C 
HETATM   10  C10 UNL     1      -4.331   6.471  10.540  1.00  0.00     0.089 A 
HETATM   11  C19 UNL     1      -4.243   5.075  10.505  1.00  0.00     0.268 A 
HETATM   12  O2  UNL     1      -4.663   4.469   9.462  1.00  0.00    -0.267 OA
HETATM   13  N3  UNL     1      -3.762   4.308  11.453  1.00  0.00    -0.277 N 
BRANCH  10  14
HETATM   14  C11 UNL     1      -4.775   7.088   9.503  1.00  0.00     0.154 C 
BRANCH  14  15
HETATM   15  N1  UNL     1      -4.183   7.465   8.299  1.00  0.00    -0.374 N 
HETATM   16  C12 UNL     1      -3.619   8.801   8.058  1.00  0.00     0.148 C 
ATOM     17  H1  UNL     1      -4.139   6.778   7.546  1.00  0.00     0.161 HD
ENDBRANCH  14  15
BRANCH  14  18
HETATM   18  O1  UNL     1      -6.153   7.505   9.518  1.00  0.00    -0.331 OA
BRANCH  18  19
HETATM   19  C13 UNL     1      -6.927   6.998   8.448  1.00  0.00     0.217 C 
BRANCH  19  20
HETATM   20  C14 UNL     1      -7.686   8.046   7.749  1.00  0.00    -0.019 A 
HETATM   21  C15 UNL     1      -8.931   8.454   8.188  1.00  0.00     0.012 A 
HETATM   22  C16 UNL     1      -9.644   9.446   7.522  1.00  0.00     0.018 A 
HETATM   23  C17 UNL     1      -9.106  10.041   6.397  1.00  0.00     0.087 A 
HETATM   24  N2  UNL     1      -7.891   9.635   5.976  1.00  0.00    -0.375 N 
HETATM   25  C18 UNL     1      -7.190   8.669   6.621  1.00  0.00     0.096 A 
ATOM     26  H2  UNL     1      -7.486  10.069   5.147  1.00  0.00     0.164 HD
ENDBRANCH  19  20
ENDBRANCH  18  19
ENDBRANCH  14  18
ENDBRANCH  10  14
BRANCH  13  27
HETATM   27  C20 UNL     1      -3.708   2.900  11.334  1.00  0.00     0.043 A 
HETATM   28  C21 UNL     1      -4.806   2.130  11.673  1.00  0.00     0.032 A 
HETATM   29  C22 UNL     1      -4.807   0.764  11.563  1.00  0.00     0.032 A 
HETATM   30  C23 UNL     1      -3.678   0.072  11.096  1.00  0.00     0.034 A 
HETATM   31  C26 UNL     1      -2.587   0.821  10.758  1.00  0.00     0.032 A 
HETATM   32  C27 UNL     1      -2.608   2.220  10.878  1.00  0.00     0.032 A 
BRANCH  30  33
HETATM   33  N4  UNL     1      -3.699  -1.325  11.004  1.00  0.00    -0.328 N 
HETATM   34  C24 UNL     1      -2.711  -2.196  11.426  1.00  0.00     0.218 C 
HETATM   35  C25 UNL     1      -2.960  -3.688  11.226  1.00  0.00     0.117 C 
HETATM   36  O3  UNL     1      -1.606  -1.966  11.962  1.00  0.00    -0.274 OA
ATOM     37  H4  UNL     1      -4.530  -1.744  10.584  1.00  0.00     0.169 HD
ENDBRANCH  30  33
ENDBRANCH  13  27
ENDBRANCH   4   5
ENDBRANCH   3   4
TORSDOF 9
ENDMDL
MODEL 4
REMARK VINA RESULT: -7.919746847      3.024      5.828
REMARK  9 active torsions:
REMARK  status: ('A' for Active; 'I' for Inactive)
REMARK    1  A    between atoms: C3_3  and  C4_4 
REMARK    2  A    between atoms: C4_4  and  C5_5 
REMARK    3  A    between atoms: C10_10  and  C11_11 
REMARK    4  A    between atoms: C11_11  and  N1_12 
REMARK    5  A    between atoms: C11_11  and  O1_15 
REMARK    6  A    between atoms: O1_15  and  C13_16 
REMARK    7  A    between atoms: C13_16  and  C14_17 
REMARK    8  A    between atoms: N3_26  and  C20_27 
REMARK    9  A    between atoms: C23_30  and  N4_31 
REMARK       I    between atoms: N4_31  and  C24_33 
ROOT
HETATM    1  C1  UNL     1      -2.805  11.344  11.737  1.00  0.00     0.112 C 
HETATM    2  C2  UNL     1      -2.999   9.910  11.575  1.00  0.00    -0.106 C 
HETATM    3  C3  UNL     1      -3.185   8.712  11.437  1.00  0.00    -0.077 C 
ENDROOT
BRANCH   3   4
HETATM    4  C4  UNL     1      -3.345   7.328  11.306  1.00  0.00     0.095 C 
BRANCH   4   5
HETATM    5  C5  UNL     1      -3.745   6.410  12.130  1.00  0.00     0.057 A 
HETATM    6  C6  UNL     1      -5.050   6.266  12.578  1.00  0.00    -0.027 A 
HETATM    7  C7  UNL     1      -6.169   7.031  11.977  1.00  0.00     0.051 C 
HETATM    8  C8  UNL     1      -5.440   5.319  13.542  1.00  0.00    -0.034 A 
HETATM    9  C9  UNL     1      -6.809   5.285  14.043  1.00  0.00     0.050 C 
HETATM   10  C10 UNL     1      -4.490   4.485  14.063  1.00  0.00     0.089 A 
HETATM   11  C19 UNL     1      -3.191   4.667  13.577  1.00  0.00     0.268 A 
HETATM   12  O2  UNL     1      -2.264   3.914  14.031  1.00  0.00    -0.267 OA
HETATM   13  N3  UNL     1      -2.820   5.551  12.682  1.00  0.00    -0.277 N 
BRANCH  10  14
HETATM   14  C11 UNL     1      -4.708   3.532  14.900  1.00  0.00     0.154 C 
BRANCH  14  15
HETATM   15  N1  UNL     1      -4.511   3.416  16.275  1.00  0.00    -0.374 N 
HETATM   16  C12 UNL     1      -5.557   2.970  17.207  1.00  0.00     0.148 C 
ATOM     17  H1  UNL     1      -3.594   3.653  16.654  1.00  0.00     0.161 HD
ENDBRANCH  14  15
BRANCH  14  18
HETATM   18  O1  UNL     1      -5.263   2.309  14.384  1.00  0.00    -0.331 OA
BRANCH  18  19
HETATM   19  C13 UNL     1      -4.314   1.281  14.173  1.00  0.00     0.217 C 
BRANCH  19  20
HETATM   20  C14 UNL     1      -4.305   0.791  12.788  1.00  0.00    -0.019 A 
HETATM   21  C15 UNL     1      -3.835  -0.469  12.467  1.00  0.00     0.012 A 
HETATM   22  C16 UNL     1      -3.828  -0.927  11.153  1.00  0.00     0.018 A 
HETATM   23  C17 UNL     1      -4.299  -0.114  10.140  1.00  0.00     0.087 A 
HETATM   24  N2  UNL     1      -4.754   1.113  10.462  1.00  0.00    -0.375 N 
HETATM   25  C18 UNL     1      -4.764   1.566  11.742  1.00  0.00     0.096 A 
ATOM     26  H2  UNL     1      -5.104   1.720   9.721  1.00  0.00     0.164 HD
ENDBRANCH  19  20
ENDBRANCH  18  19
ENDBRANCH  14  18
ENDBRANCH  10  14
BRANCH  13  27
HETATM   27  C20 UNL     1      -1.480   5.666  12.244  1.00  0.00     0.043 A 
HETATM   28  C21 UNL     1      -0.621   6.559  12.859  1.00  0.00     0.032 A 
HETATM   29  C22 UNL     1       0.689   6.699  12.478  1.00  0.00     0.032 A 
HETATM   30  C23 UNL     1       1.227   5.932  11.431  1.00  0.00     0.034 A 
HETATM   31  C26 UNL     1       0.388   5.047  10.817  1.00  0.00     0.032 A 
HETATM   32  C27 UNL     1      -0.950   4.920  11.223  1.00  0.00     0.032 A 
BRANCH  30  33
HETATM   33  N4  UNL     1       2.564   6.102  11.053  1.00  0.00    -0.328 N 
HETATM   34  C24 UNL     1       3.673   5.550  11.667  1.00  0.00     0.218 C 
HETATM   35  C25 UNL     1       5.039   5.875  11.070  1.00  0.00     0.117 C 
HETATM   36  O3  UNL     1       3.756   4.803  12.665  1.00  0.00    -0.274 OA
ATOM     37  H4  UNL     1       2.738   6.695  10.240  1.00  0.00     0.169 HD
ENDBRANCH  30  33
ENDBRANCH  13  27
ENDBRANCH   4   5
ENDBRANCH   3   4
TORSDOF 9
ENDMDL
MODEL 5
REMARK VINA RESULT: -7.792909357      1.078      1.438
REMARK  9 active torsions:
REMARK  status: ('A' for Active; 'I' for Inactive)
REMARK    1  A    between atoms: C3_3  and  C4_4 
REMARK    2  A    between atoms: C4_4  and  C5_5 
REMARK    3  A    between atoms: C10_10  and  C11_11 
REMARK    4  A    between atoms: C11_11  and  N1_12 
REMARK    5  A    between atoms: C11_11  and  O1_15 
REMARK    6  A    between atoms: O1_15  and  C13_16 
REMARK    7  A    between atoms: C13_16  and  C14_17 
REMARK    8  A    between atoms: N3_26  and  C20_27 
REMARK    9  A    between atoms: C23_30  and  N4_31 
REMARK       I    between atoms: N4_31  and  C24_33 
ROOT
HETATM    1  C1  UNL     1      -2.282  11.763  12.626  1.00  0.00     0.112 C 
HETATM    2  C2  UNL     1      -2.548  10.359  12.340  1.00  0.00    -0.106 C 
HETATM    3  C3  UNL     1      -2.786   9.190  12.085  1.00  0.00    -0.077 C 
ENDROOT
BRANCH   3   4
HETATM    4  C4  UNL     1      -3.036   7.835  11.845  1.00  0.00     0.095 C 
BRANCH   4   5
HETATM    5  C5  UNL     1      -3.310   6.841  12.631  1.00  0.00     0.057 A 
HETATM    6  C6  UNL     1      -2.433   6.307  13.564  1.00  0.00    -0.027 A 
HETATM    7  C7  UNL     1      -1.153   6.977  13.903  1.00  0.00     0.051 C 
HETATM    8  C8  UNL     1      -2.722   5.170  14.341  1.00  0.00    -0.034 A 
HETATM    9  C9  UNL     1      -1.717   4.602  15.232  1.00  0.00     0.050 C 
HETATM   10  C10 UNL     1      -3.934   4.559  14.182  1.00  0.00     0.089 A 
HETATM   11  C19 UNL     1      -4.785   5.137  13.233  1.00  0.00     0.268 A 
HETATM   12  O2  UNL     1      -5.930   4.604  13.044  1.00  0.00    -0.267 OA
HETATM   13  N3  UNL     1      -4.520   6.193  12.502  1.00  0.00    -0.277 N 
BRANCH  10  14
HETATM   14  C11 UNL     1      -4.361   3.555  14.864  1.00  0.00     0.154 C 
BRANCH  14  15
HETATM   15  N1  UNL     1      -5.405   3.404  15.775  1.00  0.00    -0.374 N 
HETATM   16  C12 UNL     1      -5.260   2.712  17.064  1.00  0.00     0.148 C 
ATOM     17  H1  UNL     1      -6.317   3.793  15.535  1.00  0.00     0.161 HD
ENDBRANCH  14  15
BRANCH  14  18
HETATM   18  O1  UNL     1      -3.669   2.303  14.706  1.00  0.00    -0.331 OA
BRANCH  18  19
HETATM   19  C13 UNL     1      -4.398   1.319  13.997  1.00  0.00     0.217 C 
BRANCH  19  20
HETATM   20  C14 UNL     1      -3.769   0.955  12.720  1.00  0.00    -0.019 A 
HETATM   21  C15 UNL     1      -2.858   1.787  12.098  1.00  0.00     0.012 A 
HETATM   22  C16 UNL     1      -2.266   1.438  10.887  1.00  0.00     0.018 A 
HETATM   23  C17 UNL     1      -2.591   0.236  10.287  1.00  0.00     0.087 A 
HETATM   24  N2  UNL     1      -3.481  -0.568  10.901  1.00  0.00    -0.375 N 
HETATM   25  C18 UNL     1      -4.061  -0.233  12.081  1.00  0.00     0.096 A 
ATOM     26  H2  UNL     1      -3.726  -1.457  10.465  1.00  0.00     0.164 HD
ENDBRANCH  19  20
ENDBRANCH  18  19
ENDBRANCH  14  18
ENDBRANCH  10  14
BRANCH  13  27
HETATM   27  C20 UNL     1      -5.441   6.713  11.564  1.00  0.00     0.043 A 
HETATM   28  C21 UNL     1      -5.298   6.431  10.218  1.00  0.00     0.032 A 
HETATM   29  C22 UNL     1      -6.172   6.902   9.272  1.00  0.00     0.032 A 
HETATM   30  C23 UNL     1      -7.267   7.705   9.630  1.00  0.00     0.034 A 
HETATM   31  C26 UNL     1      -7.418   7.991  10.957  1.00  0.00     0.032 A 
HETATM   32  C27 UNL     1      -6.512   7.497  11.909  1.00  0.00     0.032 A 
BRANCH  30  33
HETATM   33  N4  UNL     1      -8.138   8.185   8.644  1.00  0.00    -0.328 N 
HETATM   34  C24 UNL     1      -8.230   9.486   8.185  1.00  0.00     0.218 C 
HETATM   35  C25 UNL     1      -9.257   9.773   7.094  1.00  0.00     0.117 C 
HETATM   36  O3  UNL     1      -7.596  10.509   8.522  1.00  0.00    -0.274 OA
ATOM     37  H4  UNL     1      -8.769   7.504   8.220  1.00  0.00     0.169 HD
ENDBRANCH  30  33
ENDBRANCH  13  27
ENDBRANCH   4   5
ENDBRANCH   3   4
TORSDOF 9
ENDMDL
