MODEL 1
REMARK VINA RESULT: -9.561468723      0.000      0.000
REMARK  4 active torsions:
REMARK  status: ('A' for Active; 'I' for Inactive)
REMARK    1  A    between atoms: N2_13  and  N3_14 
REMARK    2  A    between atoms: N3_14  and  C9_16 
REMARK    3  A    between atoms: N5_19  and  C10_20 
REMARK    4  A    between atoms: C10_20  and  C11_21 
ROOT
HETATM    1  C9  UNL     1       4.160   2.913 -17.617  1.00  0.00     0.148 A 
HETATM    2  N4  UNL     1       3.968   3.369 -16.377  1.00  0.00    -0.281 N 
ATOM      3  H4  UNL     1       3.238   4.031 -16.112  1.00  0.00     0.189 HD
HETATM    4  N5  UNL     1       4.858   2.847 -15.530  1.00  0.00    -0.286 N 
HETATM    5  C16 UNL     1       5.679   2.015 -16.202  1.00  0.00     0.065 A 
HETATM    6  C17 UNL     1       6.761   1.237 -15.780  1.00  0.00     0.032 A 
HETATM    7  C18 UNL     1       7.396   0.489 -16.744  1.00  0.00     0.002 A 
HETATM    8  C19 UNL     1       6.985   0.504 -18.072  1.00  0.00     0.001 A 
HETATM    9  C20 UNL     1       5.919   1.279 -18.451  1.00  0.00     0.018 A 
HETATM   10  C21 UNL     1       5.256   2.044 -17.512  1.00  0.00     0.039 A 
ENDROOT
BRANCH   1  11
HETATM   11  N3  UNL     1       3.549   3.146 -18.720  1.00  0.00    -0.270 N 
ATOM     12  H3  UNL     1       3.909   2.692 -19.560  1.00  0.00     0.189 HD
BRANCH  11  13
HETATM   13  N2  UNL     1       2.449   3.956 -18.866  1.00  0.00    -0.166 N 
HETATM   14  C1  UNL     1       1.231   3.498 -19.200  1.00  0.00     0.349 A 
HETATM   15  O1  UNL     1       1.088   2.281 -19.387  1.00  0.00    -0.245 OA
HETATM   16  N1  UNL     1       0.162   4.302 -19.339  1.00  0.00    -0.306 N 
HETATM   17  C2  UNL     1       0.245   5.639 -19.150  1.00  0.00     0.052 A 
ATOM     18  H1  UNL     1      -0.737   3.893 -19.595  1.00  0.00     0.171 HD
HETATM   19  C3  UNL     1      -0.857   6.469 -19.294  1.00  0.00     0.030 A 
HETATM   20  C7  UNL     1       1.490   6.132 -18.805  1.00  0.00     0.061 A 
HETATM   21  C4  UNL     1      -0.662   7.816 -19.078  1.00  0.00     0.002 A 
HETATM   22  C5  UNL     1       0.570   8.347 -18.731  1.00  0.00     0.001 A 
HETATM   23  C6  UNL     1       1.633   7.487 -18.600  1.00  0.00     0.019 A 
HETATM   24  C8  UNL     1       2.584   5.279 -18.666  1.00  0.00     0.283 A 
HETATM   25  O2  UNL     1       3.688   5.809 -18.348  1.00  0.00    -0.265 OA
ENDBRANCH  11  13
ENDBRANCH   1  11
BRANCH   4  26
HETATM   26  C10 UNL     1       4.954   3.104 -14.102  1.00  0.00     0.187 C 
BRANCH  26  27
HETATM   27  C11 UNL     1       4.016   4.139 -13.623  1.00  0.00    -0.036 A 
HETATM   28  C12 UNL     1       2.709   3.807 -13.282  1.00  0.00     0.026 A 
HETATM   29  C13 UNL     1       1.804   4.748 -12.836  1.00  0.00     0.088 A 
HETATM   30  N6  UNL     1       2.208   6.022 -12.732  1.00  0.00    -0.375 N 
HETATM   31  C14 UNL     1       3.481   6.385 -13.058  1.00  0.00     0.088 A 
ATOM     32  H6  UNL     1       1.552   6.731 -12.403  1.00  0.00     0.164 HD
HETATM   33  C15 UNL     1       4.397   5.455 -13.505  1.00  0.00     0.026 A 
ENDBRANCH  26  27
ENDBRANCH   4  26
TORSDOF 4
ENDMDL
MODEL 2
REMARK VINA RESULT: -9.288126272      3.292      7.429
REMARK  4 active torsions:
REMARK  status: ('A' for Active; 'I' for Inactive)
REMARK    1  A    between atoms: N2_13  and  N3_14 
REMARK    2  A    between atoms: N3_14  and  C9_16 
REMARK    3  A    between atoms: N5_19  and  C10_20 
REMARK    4  A    between atoms: C10_20  and  C11_21 
ROOT
HETATM    1  C9  UNL     1       3.693   1.194 -18.000  1.00  0.00     0.148 A 
HETATM    2  N4  UNL     1       4.656   0.928 -18.886  1.00  0.00    -0.281 N 
ATOM      3  H4  UNL     1       5.601   0.628 -18.640  1.00  0.00     0.189 HD
HETATM    4  N5  UNL     1       4.222   1.106 -20.136  1.00  0.00    -0.286 N 
HETATM    5  C16 UNL     1       2.934   1.503 -20.108  1.00  0.00     0.065 A 
HETATM    6  C17 UNL     1       2.038   1.819 -21.133  1.00  0.00     0.032 A 
HETATM    7  C18 UNL     1       0.773   2.199 -20.750  1.00  0.00     0.002 A 
HETATM    8  C19 UNL     1       0.400   2.268 -19.413  1.00  0.00     0.001 A 
HETATM    9  C20 UNL     1       1.306   1.950 -18.432  1.00  0.00     0.018 A 
HETATM   10  C21 UNL     1       2.586   1.564 -18.777  1.00  0.00     0.039 A 
ENDROOT
BRANCH   1  11
HETATM   11  N3  UNL     1       3.673   1.156 -16.718  1.00  0.00    -0.270 N 
ATOM     12  H3  UNL     1       3.568   0.240 -16.279  1.00  0.00     0.189 HD
BRANCH  11  13
HETATM   13  N2  UNL     1       3.782   2.244 -15.887  1.00  0.00    -0.166 N 
HETATM   14  C1  UNL     1       4.879   3.017 -15.819  1.00  0.00     0.349 A 
HETATM   15  O1  UNL     1       5.844   2.737 -16.543  1.00  0.00    -0.245 OA
HETATM   16  N1  UNL     1       4.972   4.080 -15.000  1.00  0.00    -0.306 N 
HETATM   17  C2  UNL     1       3.957   4.444 -14.183  1.00  0.00     0.052 A 
ATOM     18  H1  UNL     1       5.832   4.628 -14.995  1.00  0.00     0.171 HD
HETATM   19  C3  UNL     1       4.053   5.539 -13.338  1.00  0.00     0.030 A 
HETATM   20  C7  UNL     1       2.818   3.661 -14.237  1.00  0.00     0.061 A 
HETATM   21  C4  UNL     1       2.959   5.821 -12.548  1.00  0.00     0.002 A 
HETATM   22  C5  UNL     1       1.802   5.061 -12.574  1.00  0.00     0.001 A 
HETATM   23  C6  UNL     1       1.752   3.984 -13.426  1.00  0.00     0.019 A 
HETATM   24  C8  UNL     1       2.743   2.563 -15.094  1.00  0.00     0.283 A 
HETATM   25  O2  UNL     1       1.667   1.899 -15.083  1.00  0.00    -0.265 OA
ENDBRANCH  11  13
ENDBRANCH   1  11
BRANCH   4  26
HETATM   26  C10 UNL     1       4.984   0.905 -21.358  1.00  0.00     0.187 C 
BRANCH  26  27
HETATM   27  C11 UNL     1       5.129  -0.515 -21.736  1.00  0.00    -0.036 A 
HETATM   28  C12 UNL     1       6.282  -0.965 -22.370  1.00  0.00     0.026 A 
HETATM   29  C13 UNL     1       6.451  -2.283 -22.742  1.00  0.00     0.088 A 
HETATM   30  N6  UNL     1       5.464  -3.151 -22.479  1.00  0.00    -0.375 N 
HETATM   31  C14 UNL     1       4.319  -2.746 -21.860  1.00  0.00     0.088 A 
ATOM     32  H6  UNL     1       5.571  -4.129 -22.747  1.00  0.00     0.164 HD
HETATM   33  C15 UNL     1       4.135  -1.432 -21.482  1.00  0.00     0.026 A 
ENDBRANCH  26  27
ENDBRANCH   4  26
TORSDOF 4
ENDMDL
MODEL 3
REMARK VINA RESULT: -8.892015818      2.926      6.204
REMARK  4 active torsions:
REMARK  status: ('A' for Active; 'I' for Inactive)
REMARK    1  A    between atoms: N2_13  and  N3_14 
REMARK    2  A    between atoms: N3_14  and  C9_16 
REMARK    3  A    between atoms: N5_19  and  C10_20 
REMARK    4  A    between atoms: C10_20  and  C11_21 
ROOT
HETATM    1  C9  UNL     1       1.223   4.160 -18.615  1.00  0.00     0.148 A 
HETATM    2  N4  UNL     1       1.959   4.357 -17.519  1.00  0.00    -0.281 N 
ATOM      3  H4  UNL     1       2.440   3.618 -17.006  1.00  0.00     0.189 HD
HETATM    4  N5  UNL     1       1.983   5.649 -17.181  1.00  0.00    -0.286 N 
HETATM    5  C16 UNL     1       1.247   6.354 -18.064  1.00  0.00     0.065 A 
HETATM    6  C17 UNL     1       0.957   7.719 -18.150  1.00  0.00     0.032 A 
HETATM    7  C18 UNL     1       0.155   8.114 -19.196  1.00  0.00     0.002 A 
HETATM    8  C19 UNL     1      -0.345   7.205 -20.121  1.00  0.00     0.001 A 
HETATM    9  C20 UNL     1      -0.040   5.872 -20.005  1.00  0.00     0.018 A 
HETATM   10  C21 UNL     1       0.762   5.437 -18.970  1.00  0.00     0.039 A 
ENDROOT
BRANCH   1  11
HETATM   11  N3  UNL     1       0.934   3.099 -19.275  1.00  0.00    -0.270 N 
ATOM     12  H3  UNL     1       0.416   3.216 -20.146  1.00  0.00     0.189 HD
BRANCH  11  13
HETATM   13  N2  UNL     1       1.265   1.818 -18.907  1.00  0.00    -0.166 N 
HETATM   14  C1  UNL     1       2.507   1.314 -19.013  1.00  0.00     0.349 A 
HETATM   15  O1  UNL     1       3.402   2.041 -19.467  1.00  0.00    -0.245 OA
HETATM   16  N1  UNL     1       2.818   0.057 -18.649  1.00  0.00    -0.306 N 
HETATM   17  C2  UNL     1       1.891  -0.790 -18.146  1.00  0.00     0.052 A 
ATOM     18  H1  UNL     1       3.779  -0.266 -18.754  1.00  0.00     0.171 HD
HETATM   19  C3  UNL     1       2.211  -2.087 -17.771  1.00  0.00     0.030 A 
HETATM   20  C7  UNL     1       0.606  -0.292 -18.028  1.00  0.00     0.061 A 
HETATM   21  C4  UNL     1       1.190  -2.866 -17.270  1.00  0.00     0.002 A 
HETATM   22  C5  UNL     1      -0.108  -2.402 -17.136  1.00  0.00     0.001 A 
HETATM   23  C6  UNL     1      -0.379  -1.112 -17.522  1.00  0.00     0.019 A 
HETATM   24  C8  UNL     1       0.307   1.015 -18.411  1.00  0.00     0.283 A 
HETATM   25  O2  UNL     1      -0.892   1.393 -18.271  1.00  0.00    -0.265 OA
ENDBRANCH  11  13
ENDBRANCH   1  11
BRANCH   4  26
HETATM   26  C10 UNL     1       2.686   6.241 -16.055  1.00  0.00     0.187 C 
BRANCH  26  27
HETATM   27  C11 UNL     1       2.408   5.571 -14.768  1.00  0.00    -0.036 A 
HETATM   28  C12 UNL     1       1.879   4.286 -14.738  1.00  0.00     0.026 A 
HETATM   29  C13 UNL     1       1.603   3.632 -13.555  1.00  0.00     0.088 A 
HETATM   30  N6  UNL     1       1.858   4.266 -12.401  1.00  0.00    -0.375 N 
HETATM   31  C14 UNL     1       2.376   5.526 -12.391  1.00  0.00     0.088 A 
ATOM     32  H6  UNL     1       1.660   3.797 -11.517  1.00  0.00     0.164 HD
HETATM   33  C15 UNL     1       2.657   6.193 -13.566  1.00  0.00     0.026 A 
ENDBRANCH  26  27
ENDBRANCH   4  26
TORSDOF 4
ENDMDL
MODEL 4
REMARK VINA RESULT: -8.809968858      3.292      6.531
REMARK  4 active torsions:
REMARK  status: ('A' for Active; 'I' for Inactive)
REMARK    1  A    between atoms: N2_13  and  N3_14 
REMARK    2  A    between atoms: N3_14  and  C9_16 
REMARK    3  A    between atoms: N5_19  and  C10_20 
REMARK    4  A    between atoms: C10_20  and  C11_21 
ROOT
HETATM    1  C9  UNL     1       3.275   3.377 -16.085  1.00  0.00     0.148 A 
HETATM    2  N4  UNL     1       3.047   4.302 -17.021  1.00  0.00    -0.281 N 
ATOM      3  H4  UNL     1       3.142   4.144 -18.024  1.00  0.00     0.189 HD
HETATM    4  N5  UNL     1       2.679   5.462 -16.471  1.00  0.00    -0.286 N 
HETATM    5  C16 UNL     1       2.654   5.331 -15.129  1.00  0.00     0.065 A 
HETATM    6  C17 UNL     1       2.341   6.239 -14.113  1.00  0.00     0.032 A 
HETATM    7  C18 UNL     1       2.421   5.771 -12.822  1.00  0.00     0.002 A 
HETATM    8  C19 UNL     1       2.794   4.462 -12.538  1.00  0.00     0.001 A 
HETATM    9  C20 UNL     1       3.094   3.598 -13.560  1.00  0.00     0.018 A 
HETATM   10  C21 UNL     1       3.026   4.030 -14.869  1.00  0.00     0.039 A 
ENDROOT
BRANCH   1  11
HETATM   11  N3  UNL     1       3.641   2.151 -16.164  1.00  0.00    -0.270 N 
ATOM     12  H3  UNL     1       4.635   1.967 -16.304  1.00  0.00     0.189 HD
BRANCH  11  13
HETATM   13  N2  UNL     1       2.807   1.063 -16.075  1.00  0.00    -0.166 N 
HETATM   14  C1  UNL     1       2.894   0.140 -15.102  1.00  0.00     0.349 A 
HETATM   15  O1  UNL     1       3.772   0.274 -14.238  1.00  0.00    -0.245 OA
HETATM   16  N1  UNL     1       2.070  -0.921 -15.027  1.00  0.00    -0.306 N 
HETATM   17  C2  UNL     1       1.090  -1.129 -15.936  1.00  0.00     0.052 A 
ATOM     18  H1  UNL     1       2.188  -1.586 -14.263  1.00  0.00     0.171 HD
HETATM   19  C3  UNL     1       0.241  -2.224 -15.859  1.00  0.00     0.030 A 
HETATM   20  C7  UNL     1       0.983  -0.191 -16.946  1.00  0.00     0.061 A 
HETATM   21  C4  UNL     1      -0.723  -2.340 -16.837  1.00  0.00     0.002 A 
HETATM   22  C5  UNL     1      -0.862  -1.421 -17.864  1.00  0.00     0.001 A 
HETATM   23  C6  UNL     1       0.002  -0.354 -17.900  1.00  0.00     0.019 A 
HETATM   24  C8  UNL     1       1.847   0.901 -17.004  1.00  0.00     0.283 A 
HETATM   25  O2  UNL     1       1.683   1.713 -17.960  1.00  0.00    -0.265 OA
ENDBRANCH  11  13
ENDBRANCH   1  11
BRANCH   4  26
HETATM   26  C10 UNL     1       2.341   6.689 -17.173  1.00  0.00     0.187 C 
BRANCH  26  27
HETATM   27  C11 UNL     1       1.396   6.490 -18.290  1.00  0.00    -0.036 A 
HETATM   28  C12 UNL     1       0.873   5.231 -18.559  1.00  0.00     0.026 A 
HETATM   29  C13 UNL     1      -0.009   5.007 -19.596  1.00  0.00     0.088 A 
HETATM   30  N6  UNL     1      -0.366   6.045 -20.365  1.00  0.00    -0.375 N 
HETATM   31  C14 UNL     1       0.127   7.294 -20.132  1.00  0.00     0.088 A 
ATOM     32  H6  UNL     1      -1.017   5.898 -21.136  1.00  0.00     0.164 HD
HETATM   33  C15 UNL     1       1.010   7.534 -19.099  1.00  0.00     0.026 A 
ENDBRANCH  26  27
ENDBRANCH   4  26
TORSDOF 4
ENDMDL
MODEL 5
REMARK VINA RESULT: -8.801078226      2.546      6.050
REMARK  4 active torsions:
REMARK  status: ('A' for Active; 'I' for Inactive)
REMARK    1  A    between atoms: N2_13  and  N3_14 
REMARK    2  A    between atoms: N3_14  and  C9_16 
REMARK    3  A    between atoms: N5_19  and  C10_20 
REMARK    4  A    between atoms: C10_20  and  C11_21 
ROOT
HETATM    1  C9  UNL     1       0.951   3.969 -18.211  1.00  0.00     0.148 A 
HETATM    2  N4  UNL     1       1.595   4.262 -17.078  1.00  0.00    -0.281 N 
ATOM      3  H4  UNL     1       1.927   3.568 -16.407  1.00  0.00     0.189 HD
HETATM    4  N5  UNL     1       1.745   5.581 -16.938  1.00  0.00    -0.286 N 
HETATM    5  C16 UNL     1       1.192   6.208 -17.996  1.00  0.00     0.065 A 
HETATM    6  C17 UNL     1       1.084   7.563 -18.320  1.00  0.00     0.032 A 
HETATM    7  C18 UNL     1       0.445   7.866 -19.500  1.00  0.00     0.002 A 
HETATM    8  C19 UNL     1      -0.070   6.877 -20.330  1.00  0.00     0.001 A 
HETATM    9  C20 UNL     1       0.054   5.556 -19.981  1.00  0.00     0.018 A 
HETATM   10  C21 UNL     1       0.690   5.212 -18.804  1.00  0.00     0.039 A 
ENDROOT
BRANCH   1  11
HETATM   11  N3  UNL     1       0.600   2.851 -18.733  1.00  0.00    -0.270 N 
ATOM     12  H3  UNL     1      -0.332   2.799 -19.145  1.00  0.00     0.189 HD
BRANCH  11  13
HETATM   13  N2  UNL     1       1.374   1.717 -18.783  1.00  0.00    -0.166 N 
HETATM   14  C1  UNL     1       1.457   0.832 -17.775  1.00  0.00     0.349 A 
HETATM   15  O1  UNL     1       0.802   1.046 -16.746  1.00  0.00    -0.245 OA
HETATM   16  N1  UNL     1       2.219  -0.275 -17.837  1.00  0.00    -0.306 N 
HETATM   17  C2  UNL     1       2.960  -0.571 -18.930  1.00  0.00     0.052 A 
ATOM     18  H1  UNL     1       2.239  -0.908 -17.038  1.00  0.00     0.171 HD
HETATM   19  C3  UNL     1       3.746  -1.712 -18.994  1.00  0.00     0.030 A 
HETATM   20  C7  UNL     1       2.889   0.327 -19.979  1.00  0.00     0.061 A 
HETATM   21  C4  UNL     1       4.460  -1.918 -20.155  1.00  0.00     0.002 A 
HETATM   22  C5  UNL     1       4.416  -1.042 -21.226  1.00  0.00     0.001 A 
HETATM   23  C6  UNL     1       3.623   0.075 -21.117  1.00  0.00     0.019 A 
HETATM   24  C8  UNL     1       2.092   1.468 -19.893  1.00  0.00     0.283 A 
HETATM   25  O2  UNL     1       2.083   2.239 -20.896  1.00  0.00    -0.265 OA
ENDBRANCH  11  13
ENDBRANCH   1  11
BRANCH   4  26
HETATM   26  C10 UNL     1       2.401   6.270 -15.838  1.00  0.00     0.187 C 
BRANCH  26  27
HETATM   27  C11 UNL     1       2.783   5.377 -14.726  1.00  0.00    -0.036 A 
HETATM   28  C12 UNL     1       2.032   5.342 -13.556  1.00  0.00     0.026 A 
HETATM   29  C13 UNL     1       2.362   4.524 -12.495  1.00  0.00     0.088 A 
HETATM   30  N6  UNL     1       3.444   3.741 -12.606  1.00  0.00    -0.375 N 
HETATM   31  C14 UNL     1       4.205   3.749 -13.737  1.00  0.00     0.088 A 
ATOM     32  H6  UNL     1       3.702   3.129 -11.831  1.00  0.00     0.164 HD
HETATM   33  C15 UNL     1       3.888   4.561 -14.806  1.00  0.00     0.026 A 
ENDBRANCH  26  27
ENDBRANCH   4  26
TORSDOF 4
ENDMDL
