MODEL 1
REMARK VINA RESULT: -6.321392715      0.000      0.000
REMARK  5 active torsions:
REMARK  status: ('A' for Active; 'I' for Inactive)
REMARK    1  A    between atoms: N2_6  and  C4_8 
REMARK    2  A    between atoms: C4_8  and  N3_10 
REMARK    3  A    between atoms: N3_10  and  C5_12 
REMARK    4  A    between atoms: C5_12  and  C6_13 
REMARK    5  A    between atoms: C9_17  and  C10_18 
ROOT
HETATM    1  C1  UNL     1       1.105   2.118 -20.544  1.00  0.00     0.069 C 
HETATM    2  C2  UNL     1       2.293   2.383 -19.606  1.00  0.00     0.024 A 
HETATM    3  N1  UNL     1       2.188   3.269 -18.632  1.00  0.00    -0.339 N 
ATOM      4  H1  UNL     1       1.333   3.815 -18.521  1.00  0.00     0.168 HD
HETATM    5  C3  UNL     1       3.210   3.440 -17.799  1.00  0.00     0.151 A 
HETATM    6  N2  UNL     1       3.365   4.217 -16.788  1.00  0.00    -0.313 N 
ATOM      7  H2  UNL     1       4.283   4.099 -16.359  1.00  0.00     0.170 HD
HETATM    8  S2  UNL     1       4.369   2.301 -18.422  1.00  0.00    -0.052 SA
HETATM    9  C9  UNL     1       3.448   1.685 -19.715  1.00  0.00     0.032 A 
ENDROOT
BRANCH   6  10
HETATM   10  C4  UNL     1       2.630   5.148 -16.146  1.00  0.00     0.177 C 
HETATM   11  S1  UNL     1       2.381   5.032 -14.502  1.00  0.00    -0.040 SA
BRANCH  10  12
HETATM   12  N3  UNL     1       2.047   6.273 -16.776  1.00  0.00    -0.346 N 
ATOM     13  H3  UNL     1       1.354   6.791 -16.234  1.00  0.00     0.167 HD
BRANCH  12  14
HETATM   14  C5  UNL     1       2.321   6.754 -18.067  1.00  0.00     0.067 C 
BRANCH  14  15
HETATM   15  C6  UNL     1       1.242   7.111 -18.996  1.00  0.00     0.016 C 
HETATM   16  C7  UNL     1       0.585   8.433 -18.862  1.00  0.00     0.015 C 
HETATM   17  C8  UNL     1       0.203   5.991 -19.139  1.00  0.00     0.015 C 
ENDBRANCH  14  15
ENDBRANCH  12  14
ENDBRANCH  10  12
ENDBRANCH   6  10
BRANCH   9  18
HETATM   18  C10 UNL     1       3.913   0.679 -20.672  1.00  0.00     0.045 C 
HETATM   19  C11 UNL     1       3.995  -0.594 -20.493  1.00  0.00     0.077 C 
HETATM   20  S3  UNL     1       4.600  -1.770 -21.760  1.00  0.00    -0.055 SA
HETATM   21  C14 UNL     1       3.666  -1.513 -19.423  1.00  0.00     0.266 C 
HETATM   22  C12 UNL     1       5.290  -2.893 -20.494  1.00  0.00     0.148 C 
HETATM   23  S4  UNL     1       6.614  -3.783 -20.652  1.00  0.00    -0.052 SA
HETATM   24  N4  UNL     1       4.366  -2.736 -19.431  1.00  0.00    -0.303 N 
HETATM   25  C13 UNL     1       4.164  -3.787 -18.400  1.00  0.00     0.161 C 
HETATM   26  O1  UNL     1       2.787  -1.237 -18.520  1.00  0.00    -0.266 OA
ENDBRANCH   9  18
TORSDOF 5
ENDMDL
MODEL 2
REMARK VINA RESULT: -6.239908570      4.043      4.844
REMARK  5 active torsions:
REMARK  status: ('A' for Active; 'I' for Inactive)
REMARK    1  A    between atoms: N2_6  and  C4_8 
REMARK    2  A    between atoms: C4_8  and  N3_10 
REMARK    3  A    between atoms: N3_10  and  C5_12 
REMARK    4  A    between atoms: C5_12  and  C6_13 
REMARK    5  A    between atoms: C9_17  and  C10_18 
ROOT
HETATM    1  C1  UNL     1       4.726   3.277 -14.227  1.00  0.00     0.069 C 
HETATM    2  C2  UNL     1       4.621   2.973 -15.730  1.00  0.00     0.024 A 
HETATM    3  N1  UNL     1       3.747   3.621 -16.479  1.00  0.00    -0.339 N 
ATOM      4  H1  UNL     1       3.107   4.297 -16.060  1.00  0.00     0.168 HD
HETATM    5  C3  UNL     1       3.712   3.382 -17.786  1.00  0.00     0.151 A 
HETATM    6  N2  UNL     1       2.978   3.866 -18.722  1.00  0.00    -0.313 N 
ATOM      7  H2  UNL     1       3.210   3.463 -19.630  1.00  0.00     0.170 HD
HETATM    8  S2  UNL     1       4.966   2.187 -17.961  1.00  0.00    -0.052 SA
HETATM    9  C9  UNL     1       5.446   2.084 -16.330  1.00  0.00     0.032 A 
ENDROOT
BRANCH   6  10
HETATM   10  C4  UNL     1       1.980   4.768 -18.818  1.00  0.00     0.177 C 
HETATM   11  S1  UNL     1       0.395   4.260 -18.898  1.00  0.00    -0.040 SA
BRANCH  10  12
HETATM   12  N3  UNL     1       2.175   6.169 -18.835  1.00  0.00    -0.346 N 
ATOM     13  H3  UNL     1       2.999   6.509 -19.332  1.00  0.00     0.167 HD
BRANCH  12  14
HETATM   14  C5  UNL     1       1.355   7.143 -18.241  1.00  0.00     0.067 C 
BRANCH  14  15
HETATM   15  C6  UNL     1       0.301   7.825 -19.003  1.00  0.00     0.016 C 
HETATM   16  C7  UNL     1      -1.118   7.521 -18.700  1.00  0.00     0.015 C 
HETATM   17  C8  UNL     1       0.561   7.790 -20.515  1.00  0.00     0.015 C 
ENDBRANCH  14  15
ENDBRANCH  12  14
ENDBRANCH  10  12
ENDBRANCH   6  10
BRANCH   9  18
HETATM   18  C10 UNL     1       6.480   1.186 -15.815  1.00  0.00     0.045 C 
HETATM   19  C11 UNL     1       6.313   0.124 -15.103  1.00  0.00     0.077 C 
HETATM   20  S3  UNL     1       7.682  -0.931 -14.501  1.00  0.00    -0.055 SA
HETATM   21  C14 UNL     1       5.174  -0.608 -14.588  1.00  0.00     0.266 C 
HETATM   22  C12 UNL     1       6.762  -1.387 -12.988  1.00  0.00     0.148 C 
HETATM   23  S4  UNL     1       7.407  -1.667 -11.547  1.00  0.00    -0.052 SA
HETATM   24  N4  UNL     1       5.425  -1.410 -13.456  1.00  0.00    -0.303 N 
HETATM   25  C13 UNL     1       4.369  -2.216 -12.789  1.00  0.00     0.161 C 
HETATM   26  O1  UNL     1       4.005  -0.540 -15.129  1.00  0.00    -0.266 OA
ENDBRANCH   9  18
TORSDOF 5
ENDMDL
MODEL 3
REMARK VINA RESULT: -6.198011757      1.582      2.767
REMARK  5 active torsions:
REMARK  status: ('A' for Active; 'I' for Inactive)
REMARK    1  A    between atoms: N2_6  and  C4_8 
REMARK    2  A    between atoms: C4_8  and  N3_10 
REMARK    3  A    between atoms: N3_10  and  C5_12 
REMARK    4  A    between atoms: C5_12  and  C6_13 
REMARK    5  A    between atoms: C9_17  and  C10_18 
ROOT
HETATM    1  C1  UNL     1       0.768   2.156 -20.675  1.00  0.00     0.069 C 
HETATM    2  C2  UNL     1       1.990   2.560 -19.835  1.00  0.00     0.024 A 
HETATM    3  N1  UNL     1       1.914   3.579 -18.998  1.00  0.00    -0.339 N 
ATOM      4  H1  UNL     1       1.058   4.132 -18.933  1.00  0.00     0.168 HD
HETATM    5  C3  UNL     1       2.966   3.876 -18.242  1.00  0.00     0.151 A 
HETATM    6  N2  UNL     1       3.153   4.793 -17.363  1.00  0.00    -0.313 N 
ATOM      7  H2  UNL     1       4.088   4.744 -16.959  1.00  0.00     0.170 HD
HETATM    8  S2  UNL     1       4.112   2.663 -18.738  1.00  0.00    -0.052 SA
HETATM    9  C9  UNL     1       3.146   1.860 -19.889  1.00  0.00     0.032 A 
ENDROOT
BRANCH   6  10
HETATM   10  C4  UNL     1       2.434   5.805 -16.834  1.00  0.00     0.177 C 
HETATM   11  S1  UNL     1       1.910   7.056 -17.802  1.00  0.00    -0.040 SA
BRANCH  10  12
HETATM   12  N3  UNL     1       2.055   5.884 -15.473  1.00  0.00    -0.346 N 
ATOM     13  H3  UNL     1       1.581   6.739 -15.181  1.00  0.00     0.167 HD
BRANCH  12  14
HETATM   14  C5  UNL     1       2.263   4.911 -14.482  1.00  0.00     0.067 C 
BRANCH  14  15
HETATM   15  C6  UNL     1       3.329   5.051 -13.482  1.00  0.00     0.016 C 
HETATM   16  C7  UNL     1       3.533   6.366 -12.827  1.00  0.00     0.015 C 
HETATM   17  C8  UNL     1       4.661   4.464 -13.965  1.00  0.00     0.015 C 
ENDBRANCH  14  15
ENDBRANCH  12  14
ENDBRANCH  10  12
ENDBRANCH   6  10
BRANCH   9  18
HETATM   18  C10 UNL     1       3.583   0.727 -20.707  1.00  0.00     0.045 C 
HETATM   19  C11 UNL     1       3.728  -0.499 -20.335  1.00  0.00     0.077 C 
HETATM   20  S3  UNL     1       4.290  -1.845 -21.441  1.00  0.00    -0.055 SA
HETATM   21  C14 UNL     1       3.511  -1.242 -19.111  1.00  0.00     0.266 C 
HETATM   22  C12 UNL     1       5.111  -2.730 -20.068  1.00  0.00     0.148 C 
HETATM   23  S4  UNL     1       6.455  -3.596 -20.182  1.00  0.00    -0.052 SA
HETATM   24  N4  UNL     1       4.257  -2.431 -18.978  1.00  0.00    -0.303 N 
HETATM   25  C13 UNL     1       4.169  -3.308 -17.781  1.00  0.00     0.161 C 
HETATM   26  O1  UNL     1       2.686  -0.850 -18.200  1.00  0.00    -0.266 OA
ENDBRANCH   9  18
TORSDOF 5
ENDMDL
MODEL 4
REMARK VINA RESULT: -6.180660371      3.647      4.384
REMARK  5 active torsions:
REMARK  status: ('A' for Active; 'I' for Inactive)
REMARK    1  A    between atoms: N2_6  and  C4_8 
REMARK    2  A    between atoms: C4_8  and  N3_10 
REMARK    3  A    between atoms: N3_10  and  C5_12 
REMARK    4  A    between atoms: C5_12  and  C6_13 
REMARK    5  A    between atoms: C9_17  and  C10_18 
ROOT
HETATM    1  C1  UNL     1       4.777   3.146 -14.423  1.00  0.00     0.069 C 
HETATM    2  C2  UNL     1       4.677   2.969 -15.946  1.00  0.00     0.024 A 
HETATM    3  N1  UNL     1       3.666   3.497 -16.612  1.00  0.00    -0.339 N 
ATOM      4  H1  UNL     1       2.922   3.990 -16.117  1.00  0.00     0.168 HD
HETATM    5  C3  UNL     1       3.631   3.378 -17.936  1.00  0.00     0.151 A 
HETATM    6  N2  UNL     1       2.782   3.792 -18.807  1.00  0.00    -0.313 N 
ATOM      7  H2  UNL     1       3.056   3.530 -19.754  1.00  0.00     0.170 HD
HETATM    8  S2  UNL     1       5.088   2.479 -18.250  1.00  0.00    -0.052 SA
HETATM    9  C9  UNL     1       5.638   2.322 -16.646  1.00  0.00     0.032 A 
ENDROOT
BRANCH   6  10
HETATM   10  C4  UNL     1       1.623   4.482 -18.795  1.00  0.00     0.177 C 
HETATM   11  S1  UNL     1       0.253   3.832 -19.484  1.00  0.00    -0.040 SA
BRANCH  10  12
HETATM   12  N3  UNL     1       1.465   5.758 -18.203  1.00  0.00    -0.346 N 
ATOM     13  H3  UNL     1       1.258   5.773 -17.204  1.00  0.00     0.167 HD
BRANCH  12  14
HETATM   14  C5  UNL     1       1.561   7.004 -18.844  1.00  0.00     0.067 C 
BRANCH  14  15
HETATM   15  C6  UNL     1       0.370   7.705 -19.340  1.00  0.00     0.016 C 
HETATM   16  C7  UNL     1      -0.949   7.399 -18.734  1.00  0.00     0.015 C 
HETATM   17  C8  UNL     1       0.287   7.700 -20.871  1.00  0.00     0.015 C 
ENDBRANCH  14  15
ENDBRANCH  12  14
ENDBRANCH  10  12
ENDBRANCH   6  10
BRANCH   9  18
HETATM   18  C10 UNL     1       6.847   1.603 -16.240  1.00  0.00     0.045 C 
HETATM   19  C11 UNL     1       6.954   0.353 -15.946  1.00  0.00     0.077 C 
HETATM   20  S3  UNL     1       8.519  -0.450 -15.440  1.00  0.00    -0.055 SA
HETATM   21  C14 UNL     1       6.060  -0.787 -15.927  1.00  0.00     0.266 C 
HETATM   22  C12 UNL     1       7.646  -1.643 -14.365  1.00  0.00     0.148 C 
HETATM   23  S4  UNL     1       8.201  -2.242 -12.986  1.00  0.00    -0.052 SA
HETATM   24  N4  UNL     1       6.438  -1.846 -15.078  1.00  0.00    -0.303 N 
HETATM   25  C13 UNL     1       5.631  -3.084 -14.924  1.00  0.00     0.161 C 
HETATM   26  O1  UNL     1       4.988  -0.837 -16.644  1.00  0.00    -0.266 OA
ENDBRANCH   9  18
TORSDOF 5
ENDMDL
MODEL 5
REMARK VINA RESULT: -6.088333798      4.010      5.230
REMARK  5 active torsions:
REMARK  status: ('A' for Active; 'I' for Inactive)
REMARK    1  A    between atoms: N2_6  and  C4_8 
REMARK    2  A    between atoms: C4_8  and  N3_10 
REMARK    3  A    between atoms: N3_10  and  C5_12 
REMARK    4  A    between atoms: C5_12  and  C6_13 
REMARK    5  A    between atoms: C9_17  and  C10_18 
ROOT
HETATM    1  C1  UNL     1       4.625   3.392 -14.014  1.00  0.00     0.069 C 
HETATM    2  C2  UNL     1       4.508   3.140 -15.526  1.00  0.00     0.024 A 
HETATM    3  N1  UNL     1       3.645   3.830 -16.250  1.00  0.00    -0.339 N 
ATOM      4  H1  UNL     1       3.021   4.504 -15.807  1.00  0.00     0.168 HD
HETATM    5  C3  UNL     1       3.600   3.633 -17.564  1.00  0.00     0.151 A 
HETATM    6  N2  UNL     1       2.874   4.162 -18.481  1.00  0.00    -0.313 N 
ATOM      7  H2  UNL     1       3.095   3.785 -19.403  1.00  0.00     0.170 HD
HETATM    8  S2  UNL     1       4.830   2.420 -17.783  1.00  0.00    -0.052 SA
HETATM    9  C9  UNL     1       5.313   2.255 -16.158  1.00  0.00     0.032 A 
ENDROOT
BRANCH   6  10
HETATM   10  C4  UNL     1       1.894   5.087 -18.544  1.00  0.00     0.177 C 
HETATM   11  S1  UNL     1       2.227   6.685 -18.207  1.00  0.00    -0.040 SA
BRANCH  10  12
HETATM   12  N3  UNL     1       0.556   4.804 -18.907  1.00  0.00    -0.346 N 
ATOM     13  H3  UNL     1      -0.172   5.196 -18.309  1.00  0.00     0.167 HD
BRANCH  12  14
HETATM   14  C5  UNL     1       0.123   4.042 -20.005  1.00  0.00     0.067 C 
BRANCH  14  15
HETATM   15  C6  UNL     1       0.169   2.575 -19.984  1.00  0.00     0.016 C 
HETATM   16  C7  UNL     1       0.027   1.868 -18.688  1.00  0.00     0.015 C 
HETATM   17  C8  UNL     1       1.351   2.018 -20.788  1.00  0.00     0.015 C 
ENDBRANCH  14  15
ENDBRANCH  12  14
ENDBRANCH  10  12
ENDBRANCH   6  10
BRANCH   9  18
HETATM   18  C10 UNL     1       6.330   1.319 -15.676  1.00  0.00     0.045 C 
HETATM   19  C11 UNL     1       6.142   0.226 -15.020  1.00  0.00     0.077 C 
HETATM   20  S3  UNL     1       7.492  -0.875 -14.455  1.00  0.00    -0.055 SA
HETATM   21  C14 UNL     1       4.989  -0.517 -14.555  1.00  0.00     0.266 C 
HETATM   22  C12 UNL     1       6.549  -1.394 -12.977  1.00  0.00     0.148 C 
HETATM   23  S4  UNL     1       7.173  -1.753 -11.545  1.00  0.00    -0.052 SA
HETATM   24  N4  UNL     1       5.218  -1.377 -13.462  1.00  0.00    -0.303 N 
HETATM   25  C13 UNL     1       4.144  -2.203 -12.848  1.00  0.00     0.161 C 
HETATM   26  O1  UNL     1       3.827  -0.408 -15.105  1.00  0.00    -0.266 OA
ENDBRANCH   9  18
TORSDOF 5
ENDMDL
