MODEL 1
REMARK VINA RESULT: -9.003631497      0.000      0.000
REMARK  3 active torsions:
REMARK  status: ('A' for Active; 'I' for Inactive)
REMARK    1  A    between atoms: C3_3  and  C4_4 
REMARK    2  A    between atoms: C10_10  and  C11_11 
REMARK    3  A    between atoms: C17_21  and  C18_22 
ROOT
HETATM    1  C1  UNL     1       1.306   2.745 -20.100  1.00  0.00     0.026 C 
HETATM    2  C2  UNL     1       1.614   2.602 -18.830  1.00  0.00    -0.005 A 
HETATM    3  C3  UNL     1       1.713   3.642 -17.895  1.00  0.00     0.013 A 
HETATM    4  C10 UNL     1       2.049   3.040 -16.720  1.00  0.00     0.056 A 
HETATM    5  N2  UNL     1       2.153   1.696 -16.914  1.00  0.00    -0.354 N 
ATOM      6  H2  UNL     1       2.393   1.014 -16.195  1.00  0.00     0.166 HD
HETATM    7  C16 UNL     1       1.890   1.409 -18.200  1.00  0.00     0.045 A 
HETATM    8  C17 UNL     1       1.914   0.182 -18.690  1.00  0.00     0.063 C 
ENDROOT
BRANCH   8   9
HETATM    9  C18 UNL     1       2.226  -0.988 -17.891  1.00  0.00     0.076 A 
HETATM   10  C19 UNL     1       3.303  -1.810 -18.142  1.00  0.00     0.122 A 
HETATM   11  N3  UNL     1       3.327  -2.799 -17.240  1.00  0.00    -0.343 N 
HETATM   12  C20 UNL     1       2.247  -2.575 -16.429  1.00  0.00     0.175 A 
ATOM     13  H3  UNL     1       4.005  -3.557 -17.171  1.00  0.00     0.167 HD
HETATM   14  S1  UNL     1       1.370  -3.134 -15.077  1.00  0.00     0.011 SA
HETATM   15  N5  UNL     1       1.564  -1.497 -16.790  1.00  0.00    -0.229 N 
HETATM   16  C21 UNL     1       0.165  -1.927 -15.067  1.00  0.00     0.306 A 
HETATM   17  O1  UNL     1      -0.834  -1.764 -14.275  1.00  0.00    -0.258 OA
HETATM   18  N4  UNL     1       0.516  -1.169 -16.106  1.00  0.00    -0.251 N 
ATOM     19  H4  UNL     1      -0.031  -0.346 -16.357  1.00  0.00     0.191 HD
ENDBRANCH   8   9
BRANCH   3  20
HETATM   20  C4  UNL     1       1.495   5.054 -18.164  1.00  0.00    -0.023 A 
HETATM   21  C5  UNL     1       0.244   5.488 -18.516  1.00  0.00     0.012 A 
HETATM   22  C6  UNL     1       0.021   6.840 -18.776  1.00  0.00     0.001 A 
HETATM   23  C7  UNL     1       1.043   7.733 -18.682  1.00  0.00     0.000 A 
HETATM   24  C8  UNL     1       2.317   7.330 -18.330  1.00  0.00     0.001 A 
HETATM   25  C9  UNL     1       2.517   5.987 -18.076  1.00  0.00     0.012 A 
ENDBRANCH   3  20
BRANCH   4  26
HETATM   26  C11 UNL     1       2.272   3.681 -15.434  1.00  0.00     0.007 A 
HETATM   27  C12 UNL     1       3.425   4.359 -15.127  1.00  0.00     0.016 A 
HETATM   28  C13 UNL     1       3.556   4.934 -13.892  1.00  0.00     0.018 A 
HETATM   29  C14 UNL     1       2.553   4.839 -12.965  1.00  0.00     0.087 A 
HETATM   30  N1  UNL     1       1.432   4.173 -13.278  1.00  0.00    -0.374 N 
HETATM   31  C15 UNL     1       1.292   3.604 -14.487  1.00  0.00     0.101 A 
ATOM     32  H1  UNL     1       0.680   4.098 -12.593  1.00  0.00     0.164 HD
ENDBRANCH   4  26
TORSDOF 3
ENDMDL
MODEL 2
REMARK VINA RESULT: -8.905854825      3.333      3.827
REMARK  3 active torsions:
REMARK  status: ('A' for Active; 'I' for Inactive)
REMARK    1  A    between atoms: C3_3  and  C4_4 
REMARK    2  A    between atoms: C10_10  and  C11_11 
REMARK    3  A    between atoms: C17_21  and  C18_22 
ROOT
HETATM    1  C1  UNL     1       3.322   2.489 -19.818  1.00  0.00     0.026 C 
HETATM    2  C2  UNL     1       3.391   2.505 -18.505  1.00  0.00    -0.005 A 
HETATM    3  C3  UNL     1       2.841   3.491 -17.673  1.00  0.00     0.013 A 
HETATM    4  C10 UNL     1       3.150   3.106 -16.404  1.00  0.00     0.056 A 
HETATM    5  N2  UNL     1       3.856   1.941 -16.443  1.00  0.00    -0.354 N 
ATOM      6  H2  UNL     1       4.209   1.439 -15.630  1.00  0.00     0.166 HD
HETATM    7  C16 UNL     1       4.013   1.558 -17.722  1.00  0.00     0.045 A 
HETATM    8  C17 UNL     1       4.659   0.462 -18.077  1.00  0.00     0.063 C 
ENDROOT
BRANCH   8   9
HETATM    9  C18 UNL     1       5.268  -0.448 -17.125  1.00  0.00     0.076 A 
HETATM   10  C19 UNL     1       4.684  -1.631 -16.729  1.00  0.00     0.122 A 
HETATM   11  N3  UNL     1       5.481  -2.247 -15.848  1.00  0.00    -0.343 N 
HETATM   12  C20 UNL     1       6.566  -1.425 -15.705  1.00  0.00     0.175 A 
ATOM     13  H3  UNL     1       5.315  -3.139 -15.382  1.00  0.00     0.167 HD
HETATM   14  S1  UNL     1       8.066  -1.207 -14.923  1.00  0.00     0.011 SA
HETATM   15  N5  UNL     1       6.472  -0.336 -16.456  1.00  0.00    -0.229 N 
HETATM   16  C21 UNL     1       8.478   0.292 -15.624  1.00  0.00     0.306 A 
HETATM   17  O1  UNL     1       9.519   1.025 -15.452  1.00  0.00    -0.258 OA
HETATM   18  N4  UNL     1       7.433   0.529 -16.417  1.00  0.00    -0.251 N 
ATOM     19  H4  UNL     1       7.392   1.377 -16.983  1.00  0.00     0.191 HD
ENDBRANCH   8   9
BRANCH   3  20
HETATM   20  C4  UNL     1       2.102   4.663 -18.113  1.00  0.00    -0.023 A 
HETATM   21  C5  UNL     1       2.706   5.893 -18.078  1.00  0.00     0.012 A 
HETATM   22  C6  UNL     1       2.009   7.025 -18.496  1.00  0.00     0.001 A 
HETATM   23  C7  UNL     1       0.727   6.916 -18.942  1.00  0.00     0.000 A 
HETATM   24  C8  UNL     1       0.088   5.692 -18.990  1.00  0.00     0.001 A 
HETATM   25  C9  UNL     1       0.796   4.583 -18.571  1.00  0.00     0.012 A 
ENDBRANCH   3  20
BRANCH   4  26
HETATM   26  C11 UNL     1       2.807   3.790 -15.167  1.00  0.00     0.007 A 
HETATM   27  C12 UNL     1       3.588   4.775 -14.618  1.00  0.00     0.016 A 
HETATM   28  C13 UNL     1       3.193   5.370 -13.449  1.00  0.00     0.018 A 
HETATM   29  C14 UNL     1       2.034   4.990 -12.827  1.00  0.00     0.087 A 
HETATM   30  N1  UNL     1       1.281   4.026 -13.375  1.00  0.00    -0.374 N 
HETATM   31  C15 UNL     1       1.659   3.435 -14.521  1.00  0.00     0.101 A 
ATOM     32  H1  UNL     1       0.416   3.738 -12.918  1.00  0.00     0.164 HD
ENDBRANCH   4  26
TORSDOF 3
ENDMDL
MODEL 3
REMARK VINA RESULT: -8.624008461      3.085      3.344
REMARK  3 active torsions:
REMARK  status: ('A' for Active; 'I' for Inactive)
REMARK    1  A    between atoms: C3_3  and  C4_4 
REMARK    2  A    between atoms: C10_10  and  C11_11 
REMARK    3  A    between atoms: C17_21  and  C18_22 
ROOT
HETATM    1  C1  UNL     1       4.196   2.522 -19.375  1.00  0.00     0.026 C 
HETATM    2  C2  UNL     1       4.172   2.645 -18.067  1.00  0.00    -0.005 A 
HETATM    3  C3  UNL     1       3.364   3.539 -17.349  1.00  0.00     0.013 A 
HETATM    4  C10 UNL     1       3.665   3.324 -16.038  1.00  0.00     0.056 A 
HETATM    5  N2  UNL     1       4.609   2.347 -15.944  1.00  0.00    -0.354 N 
ATOM      6  H2  UNL     1       5.009   1.995 -15.075  1.00  0.00     0.166 HD
HETATM    7  C16 UNL     1       4.932   1.919 -17.177  1.00  0.00     0.045 A 
HETATM    8  C17 UNL     1       5.825   0.973 -17.406  1.00  0.00     0.063 C 
ENDROOT
BRANCH   8   9
HETATM    9  C18 UNL     1       6.553   0.292 -16.352  1.00  0.00     0.076 A 
HETATM   10  C19 UNL     1       7.927   0.206 -16.316  1.00  0.00     0.122 A 
HETATM   11  N3  UNL     1       8.300  -0.479 -15.228  1.00  0.00    -0.343 N 
HETATM   12  C20 UNL     1       7.135  -0.814 -14.593  1.00  0.00     0.175 A 
ATOM     13  H3  UNL     1       9.251  -0.703 -14.934  1.00  0.00     0.167 HD
HETATM   14  S1  UNL     1       6.450  -1.607 -13.247  1.00  0.00     0.011 SA
HETATM   15  N5  UNL     1       6.066  -0.367 -15.240  1.00  0.00    -0.229 N 
HETATM   16  C21 UNL     1       4.811  -1.308 -13.611  1.00  0.00     0.306 A 
HETATM   17  O1  UNL     1       3.748  -1.648 -12.974  1.00  0.00    -0.258 OA
HETATM   18  N4  UNL     1       4.896  -0.614 -14.747  1.00  0.00    -0.251 N 
ATOM     19  H4  UNL     1       4.054  -0.285 -15.219  1.00  0.00     0.191 HD
ENDBRANCH   8   9
BRANCH   3  20
HETATM   20  C4  UNL     1       2.418   4.482 -17.922  1.00  0.00    -0.023 A 
HETATM   21  C5  UNL     1       1.154   4.059 -18.242  1.00  0.00     0.012 A 
HETATM   22  C6  UNL     1       0.237   4.954 -18.792  1.00  0.00     0.001 A 
HETATM   23  C7  UNL     1       0.591   6.249 -19.014  1.00  0.00     0.000 A 
HETATM   24  C8  UNL     1       1.857   6.709 -18.704  1.00  0.00     0.001 A 
HETATM   25  C9  UNL     1       2.750   5.807 -18.160  1.00  0.00     0.012 A 
ENDBRANCH   3  20
BRANCH   4  26
HETATM   26  C11 UNL     1       3.098   3.999 -14.881  1.00  0.00     0.007 A 
HETATM   27  C12 UNL     1       3.658   5.120 -14.322  1.00  0.00     0.016 A 
HETATM   28  C13 UNL     1       3.061   5.695 -13.233  1.00  0.00     0.018 A 
HETATM   29  C14 UNL     1       1.918   5.165 -12.700  1.00  0.00     0.087 A 
HETATM   30  N1  UNL     1       1.381   4.070 -13.256  1.00  0.00    -0.374 N 
HETATM   31  C15 UNL     1       1.958   3.496 -14.325  1.00  0.00     0.101 A 
ATOM     32  H1  UNL     1       0.528   3.670 -12.865  1.00  0.00     0.164 HD
ENDBRANCH   4  26
TORSDOF 3
ENDMDL
MODEL 4
REMARK VINA RESULT: -8.461908574      2.196      2.325
REMARK  3 active torsions:
REMARK  status: ('A' for Active; 'I' for Inactive)
REMARK    1  A    between atoms: C3_3  and  C4_4 
REMARK    2  A    between atoms: C10_10  and  C11_11 
REMARK    3  A    between atoms: C17_21  and  C18_22 
ROOT
HETATM    1  C1  UNL     1       3.283   2.293 -19.323  1.00  0.00     0.026 C 
HETATM    2  C2  UNL     1       3.352   2.431 -18.017  1.00  0.00    -0.005 A 
HETATM    3  C3  UNL     1       2.846   3.515 -17.286  1.00  0.00     0.013 A 
HETATM    4  C10 UNL     1       3.138   3.241 -15.984  1.00  0.00     0.056 A 
HETATM    5  N2  UNL     1       3.791   2.047 -15.909  1.00  0.00    -0.354 N 
ATOM      6  H2  UNL     1       4.122   1.610 -15.050  1.00  0.00     0.166 HD
HETATM    7  C16 UNL     1       3.931   1.537 -17.145  1.00  0.00     0.045 A 
HETATM    8  C17 UNL     1       4.528   0.385 -17.391  1.00  0.00     0.063 C 
ENDROOT
BRANCH   8   9
HETATM    9  C18 UNL     1       5.096  -0.456 -16.353  1.00  0.00     0.076 A 
HETATM   10  C19 UNL     1       6.401  -0.896 -16.367  1.00  0.00     0.122 A 
HETATM   11  N3  UNL     1       6.627  -1.648 -15.282  1.00  0.00    -0.343 N 
HETATM   12  C20 UNL     1       5.441  -1.665 -14.599  1.00  0.00     0.175 A 
ATOM     13  H3  UNL     1       7.498  -2.110 -15.021  1.00  0.00     0.167 HD
HETATM   14  S1  UNL     1       4.628  -2.244 -13.217  1.00  0.00     0.011 SA
HETATM   15  N5  UNL     1       4.500  -0.960 -15.213  1.00  0.00    -0.229 N 
HETATM   16  C21 UNL     1       3.110  -1.532 -13.524  1.00  0.00     0.306 A 
HETATM   17  O1  UNL     1       2.022  -1.580 -12.843  1.00  0.00    -0.258 OA
HETATM   18  N4  UNL     1       3.326  -0.891 -14.674  1.00  0.00    -0.251 N 
ATOM     19  H4  UNL     1       2.580  -0.357 -15.119  1.00  0.00     0.191 HD
ENDBRANCH   8   9
BRANCH   3  20
HETATM   20  C4  UNL     1       2.160   4.672 -17.839  1.00  0.00    -0.023 A 
HETATM   21  C5  UNL     1       0.869   4.542 -18.280  1.00  0.00     0.012 A 
HETATM   22  C6  UNL     1       0.200   5.644 -18.812  1.00  0.00     0.001 A 
HETATM   23  C7  UNL     1       0.824   6.850 -18.898  1.00  0.00     0.000 A 
HETATM   24  C8  UNL     1       2.125   7.015 -18.463  1.00  0.00     0.001 A 
HETATM   25  C9  UNL     1       2.770   5.912 -17.939  1.00  0.00     0.012 A 
ENDBRANCH   3  20
BRANCH   4  26
HETATM   26  C11 UNL     1       2.826   4.054 -14.819  1.00  0.00     0.007 A 
HETATM   27  C12 UNL     1       3.575   5.141 -14.446  1.00  0.00     0.016 A 
HETATM   28  C13 UNL     1       3.212   5.854 -13.335  1.00  0.00     0.018 A 
HETATM   29  C14 UNL     1       2.117   5.493 -12.598  1.00  0.00     0.087 A 
HETATM   30  N1  UNL     1       1.394   4.429 -12.975  1.00  0.00    -0.374 N 
HETATM   31  C15 UNL     1       1.740   3.721 -14.063  1.00  0.00     0.101 A 
ATOM     32  H1  UNL     1       0.576   4.154 -12.431  1.00  0.00     0.164 HD
ENDBRANCH   4  26
TORSDOF 3
ENDMDL
MODEL 5
REMARK VINA RESULT: -8.452949507      3.793      6.806
REMARK  3 active torsions:
REMARK  status: ('A' for Active; 'I' for Inactive)
REMARK    1  A    between atoms: C3_3  and  C4_4 
REMARK    2  A    between atoms: C10_10  and  C11_11 
REMARK    3  A    between atoms: C17_21  and  C18_22 
ROOT
HETATM    1  C1  UNL     1       1.881   1.928 -20.761  1.00  0.00     0.026 C 
HETATM    2  C2  UNL     1       2.804   2.112 -19.844  1.00  0.00    -0.005 A 
HETATM    3  C3  UNL     1       3.968   1.344 -19.697  1.00  0.00     0.013 A 
HETATM    4  C10 UNL     1       4.625   1.883 -18.633  1.00  0.00     0.056 A 
HETATM    5  N2  UNL     1       3.908   2.933 -18.143  1.00  0.00    -0.354 N 
ATOM      6  H2  UNL     1       4.178   3.511 -17.348  1.00  0.00     0.166 HD
HETATM    7  C16 UNL     1       2.790   3.088 -18.873  1.00  0.00     0.045 A 
HETATM    8  C17 UNL     1       1.892   4.028 -18.636  1.00  0.00     0.063 C 
ENDROOT
BRANCH   8   9
HETATM    9  C18 UNL     1       2.018   4.996 -17.562  1.00  0.00     0.076 A 
HETATM   10  C19 UNL     1       2.088   6.355 -17.774  1.00  0.00     0.122 A 
HETATM   11  N3  UNL     1       2.200   6.983 -16.596  1.00  0.00    -0.343 N 
HETATM   12  C20 UNL     1       2.197   5.989 -15.655  1.00  0.00     0.175 A 
ATOM     13  H3  UNL     1       2.270   7.987 -16.435  1.00  0.00     0.167 HD
HETATM   14  S1  UNL     1       2.278   5.638 -13.988  1.00  0.00     0.011 SA
HETATM   15  N5  UNL     1       2.089   4.784 -16.199  1.00  0.00    -0.229 N 
HETATM   16  C21 UNL     1       2.167   3.940 -14.102  1.00  0.00     0.306 A 
HETATM   17  O1  UNL     1       2.169   3.048 -13.178  1.00  0.00    -0.258 OA
HETATM   18  N4  UNL     1       2.074   3.752 -15.419  1.00  0.00    -0.251 N 
ATOM     19  H4  UNL     1       1.992   2.811 -15.805  1.00  0.00     0.191 HD
ENDBRANCH   8   9
BRANCH   3  20
HETATM   20  C4  UNL     1       4.356   0.215 -20.527  1.00  0.00    -0.023 A 
HETATM   21  C5  UNL     1       5.157   0.425 -21.619  1.00  0.00     0.012 A 
HETATM   22  C6  UNL     1       5.536  -0.649 -22.424  1.00  0.00     0.001 A 
HETATM   23  C7  UNL     1       5.114  -1.909 -22.129  1.00  0.00     0.000 A 
HETATM   24  C8  UNL     1       4.306  -2.156 -21.036  1.00  0.00     0.001 A 
HETATM   25  C9  UNL     1       3.941  -1.079 -20.252  1.00  0.00     0.012 A 
ENDBRANCH   3  20
BRANCH   4  26
HETATM   26  C11 UNL     1       5.893   1.450 -18.066  1.00  0.00     0.007 A 
HETATM   27  C12 UNL     1       6.671   0.475 -18.637  1.00  0.00     0.016 A 
HETATM   28  C13 UNL     1       7.852   0.126 -18.040  1.00  0.00     0.018 A 
HETATM   29  C14 UNL     1       8.261   0.737 -16.885  1.00  0.00     0.087 A 
HETATM   30  N1  UNL     1       7.490   1.688 -16.338  1.00  0.00    -0.374 N 
HETATM   31  C15 UNL     1       6.329   2.039 -16.915  1.00  0.00     0.101 A 
ATOM     32  H1  UNL     1       7.788   2.148 -15.478  1.00  0.00     0.164 HD
ENDBRANCH   4  26
TORSDOF 3
ENDMDL
