MODEL 1
REMARK VINA RESULT: -6.987285650      0.000      0.000
REMARK  4 active torsions:
REMARK  status: ('A' for Active; 'I' for Inactive)
REMARK    1  A    between atoms: C6_7  and  N2_8 
REMARK    2  A    between atoms: N2_8  and  C7_10 
REMARK    3  A    between atoms: C7_10  and  C8_11 
REMARK    4  A    between atoms: C8_11  and  C9_12 
ROOT
HETATM    1  N1  UNL     1      27.924   2.879 -42.712  1.00  0.00    -0.190 NA
HETATM    2  C1  UNL     1      28.664   3.633 -43.200  1.00  0.00     0.117 C 
HETATM    3  C2  UNL     1      29.570   4.565 -43.815  1.00  0.00     0.115 A 
HETATM    4  C3  UNL     1      30.899   4.587 -43.449  1.00  0.00     0.041 A 
HETATM    5  C4  UNL     1      31.775   5.466 -44.023  1.00  0.00     0.007 A 
HETATM    6  C5  UNL     1      31.348   6.364 -44.997  1.00  0.00     0.048 A 
HETATM    7  C6  UNL     1      30.011   6.303 -45.329  1.00  0.00     0.101 A 
HETATM    8  N5  UNL     1      29.151   5.440 -44.764  1.00  0.00    -0.334 N 
ATOM      9  H5  UNL     1      28.172   5.442 -45.052  1.00  0.00     0.168 HD
ENDROOT
BRANCH   7  10
HETATM   10  N2  UNL     1      29.562   7.109 -46.222  1.00  0.00    -0.376 N 
ATOM     11  H2  UNL     1      29.195   6.730 -47.095  1.00  0.00     0.161 HD
BRANCH  10  12
HETATM   12  C7  UNL     1      29.563   8.534 -46.021  1.00  0.00     0.127 C 
BRANCH  12  13
HETATM   13  C8  UNL     1      28.469   8.870 -45.001  1.00  0.00     0.078 C 
BRANCH  13  14
HETATM   14  C9  UNL     1      27.563   9.858 -45.639  1.00  0.00     0.027 A 
HETATM   15  C10 UNL     1      26.188  10.006 -45.540  1.00  0.00     0.114 A 
HETATM   16  N3  UNL     1      25.787  11.042 -46.295  1.00  0.00    -0.360 N 
HETATM   17  C11 UNL     1      26.885  11.556 -46.874  1.00  0.00     0.180 A 
ATOM     18  H3  UNL     1      24.829  11.374 -46.409  1.00  0.00     0.166 HD
HETATM   19  N4  UNL     1      27.956  10.832 -46.469  1.00  0.00    -0.355 N 
ATOM     20  H4  UNL     1      28.920  11.004 -46.755  1.00  0.00     0.166 HD
ENDBRANCH  13  14
ENDBRANCH  12  13
ENDBRANCH  10  12
ENDBRANCH   7  10
TORSDOF 4
ENDMDL
MODEL 2
REMARK VINA RESULT: -6.948747993      2.039      2.398
REMARK  4 active torsions:
REMARK  status: ('A' for Active; 'I' for Inactive)
REMARK    1  A    between atoms: C6_7  and  N2_8 
REMARK    2  A    between atoms: N2_8  and  C7_10 
REMARK    3  A    between atoms: C7_10  and  C8_11 
REMARK    4  A    between atoms: C8_11  and  C9_12 
ROOT
HETATM    1  N1  UNL     1      28.189   3.410 -42.759  1.00  0.00    -0.190 NA
HETATM    2  C1  UNL     1      28.834   4.190 -43.333  1.00  0.00     0.117 C 
HETATM    3  C2  UNL     1      29.622   5.153 -44.054  1.00  0.00     0.115 A 
HETATM    4  C3  UNL     1      30.996   5.158 -43.934  1.00  0.00     0.041 A 
HETATM    5  C4  UNL     1      31.760   6.066 -44.612  1.00  0.00     0.007 A 
HETATM    6  C5  UNL     1      31.172   7.013 -45.445  1.00  0.00     0.048 A 
HETATM    7  C6  UNL     1      29.796   6.968 -45.532  1.00  0.00     0.101 A 
HETATM    8  N5  UNL     1      29.045   6.076 -44.866  1.00  0.00    -0.334 N 
ATOM      9  H5  UNL     1      28.030   6.091 -44.970  1.00  0.00     0.168 HD
ENDROOT
BRANCH   7  10
HETATM   10  N2  UNL     1      29.200   7.819 -46.287  1.00  0.00    -0.376 N 
ATOM     11  H2  UNL     1      29.415   7.836 -47.283  1.00  0.00     0.161 HD
BRANCH  10  12
HETATM   12  C7  UNL     1      28.235   8.748 -45.759  1.00  0.00     0.127 C 
BRANCH  12  13
HETATM   13  C8  UNL     1      28.988   9.996 -45.286  1.00  0.00     0.078 C 
BRANCH  13  14
HETATM   14  C9  UNL     1      28.664  10.186 -43.850  1.00  0.00     0.027 A 
HETATM   15  C10 UNL     1      27.472  10.548 -43.241  1.00  0.00     0.114 A 
HETATM   16  N3  UNL     1      27.638  10.601 -41.910  1.00  0.00    -0.360 N 
HETATM   17  C11 UNL     1      28.918  10.278 -41.660  1.00  0.00     0.180 A 
ATOM     18  H3  UNL     1      26.928  10.842 -41.219  1.00  0.00     0.166 HD
HETATM   19  N4  UNL     1      29.531  10.028 -42.842  1.00  0.00    -0.355 N 
ATOM     20  H4  UNL     1      30.509   9.759 -42.949  1.00  0.00     0.166 HD
ENDBRANCH  13  14
ENDBRANCH  12  13
ENDBRANCH  10  12
ENDBRANCH   7  10
TORSDOF 4
ENDMDL
MODEL 3
REMARK VINA RESULT: -6.885424957      1.818      2.234
REMARK  4 active torsions:
REMARK  status: ('A' for Active; 'I' for Inactive)
REMARK    1  A    between atoms: C6_7  and  N2_8 
REMARK    2  A    between atoms: N2_8  and  C7_10 
REMARK    3  A    between atoms: C7_10  and  C8_11 
REMARK    4  A    between atoms: C8_11  and  C9_12 
ROOT
HETATM    1  N1  UNL     1      29.243   2.928 -43.003  1.00  0.00    -0.190 NA
HETATM    2  C1  UNL     1      29.450   3.965 -43.489  1.00  0.00     0.117 C 
HETATM    3  C2  UNL     1      29.695   5.246 -44.096  1.00  0.00     0.115 A 
HETATM    4  C3  UNL     1      30.984   5.650 -44.371  1.00  0.00     0.041 A 
HETATM    5  C4  UNL     1      31.235   6.863 -44.948  1.00  0.00     0.007 A 
HETATM    6  C5  UNL     1      30.194   7.727 -45.275  1.00  0.00     0.048 A 
HETATM    7  C6  UNL     1      28.923   7.278 -44.980  1.00  0.00     0.101 A 
HETATM    8  N5  UNL     1      28.677   6.085 -44.413  1.00  0.00    -0.334 N 
ATOM      9  H5  UNL     1      27.715   5.808 -44.219  1.00  0.00     0.168 HD
ENDROOT
BRANCH   7  10
HETATM   10  N2  UNL     1      27.924   8.034 -45.260  1.00  0.00    -0.376 N 
ATOM     11  H2  UNL     1      27.814   8.382 -46.213  1.00  0.00     0.161 HD
BRANCH  10  12
HETATM   12  C7  UNL     1      26.954   8.402 -44.262  1.00  0.00     0.127 C 
BRANCH  12  13
HETATM   13  C8  UNL     1      26.344   9.749 -44.667  1.00  0.00     0.078 C 
BRANCH  13  14
HETATM   14  C9  UNL     1      27.324  10.802 -44.300  1.00  0.00     0.027 A 
HETATM   15  C10 UNL     1      28.087  10.955 -43.153  1.00  0.00     0.114 A 
HETATM   16  N3  UNL     1      28.840  12.063 -43.252  1.00  0.00    -0.360 N 
HETATM   17  C11 UNL     1      28.570  12.618 -44.445  1.00  0.00     0.180 A 
ATOM     18  H3  UNL     1      29.493  12.416 -42.552  1.00  0.00     0.166 HD
HETATM   19  N4  UNL     1      27.650  11.846 -45.073  1.00  0.00    -0.355 N 
ATOM     20  H4  UNL     1      27.263  12.033 -45.998  1.00  0.00     0.166 HD
ENDBRANCH  13  14
ENDBRANCH  12  13
ENDBRANCH  10  12
ENDBRANCH   7  10
TORSDOF 4
ENDMDL
MODEL 4
REMARK VINA RESULT: -6.879486085      2.462      3.072
REMARK  4 active torsions:
REMARK  status: ('A' for Active; 'I' for Inactive)
REMARK    1  A    between atoms: C6_7  and  N2_8 
REMARK    2  A    between atoms: N2_8  and  C7_10 
REMARK    3  A    between atoms: C7_10  and  C8_11 
REMARK    4  A    between atoms: C8_11  and  C9_12 
ROOT
HETATM    1  N1  UNL     1      26.637   5.368 -42.297  1.00  0.00    -0.190 NA
HETATM    2  C1  UNL     1      27.255   5.846 -43.159  1.00  0.00     0.117 C 
HETATM    3  C2  UNL     1      28.007   6.445 -44.229  1.00  0.00     0.115 A 
HETATM    4  C3  UNL     1      29.069   5.771 -44.795  1.00  0.00     0.041 A 
HETATM    5  C4  UNL     1      29.794   6.324 -45.812  1.00  0.00     0.007 A 
HETATM    6  C5  UNL     1      29.481   7.586 -46.308  1.00  0.00     0.048 A 
HETATM    7  C6  UNL     1      28.411   8.220 -45.711  1.00  0.00     0.101 A 
HETATM    8  N5  UNL     1      27.699   7.676 -44.710  1.00  0.00    -0.334 N 
ATOM      9  H5  UNL     1      26.917   8.193 -44.307  1.00  0.00     0.168 HD
ENDROOT
BRANCH   7  10
HETATM   10  N2  UNL     1      28.076   9.387 -46.128  1.00  0.00    -0.376 N 
ATOM     11  H2  UNL     1      27.136   9.534 -46.494  1.00  0.00     0.161 HD
BRANCH  10  12
HETATM   12  C7  UNL     1      28.996  10.494 -46.091  1.00  0.00     0.127 C 
BRANCH  12  13
HETATM   13  C8  UNL     1      28.332  11.638 -45.318  1.00  0.00     0.078 C 
BRANCH  13  14
HETATM   14  C9  UNL     1      28.156  11.178 -43.917  1.00  0.00     0.027 A 
HETATM   15  C10 UNL     1      27.007  11.055 -43.152  1.00  0.00     0.114 A 
HETATM   16  N3  UNL     1      27.320  10.597 -41.929  1.00  0.00    -0.360 N 
HETATM   17  C11 UNL     1      28.652  10.425 -41.903  1.00  0.00     0.180 A 
ATOM     18  H3  UNL     1      26.670  10.415 -41.165  1.00  0.00     0.166 HD
HETATM   19  N4  UNL     1      29.149  10.779 -43.113  1.00  0.00    -0.355 N 
ATOM     20  H4  UNL     1      30.135  10.746 -43.373  1.00  0.00     0.166 HD
ENDBRANCH  13  14
ENDBRANCH  12  13
ENDBRANCH  10  12
ENDBRANCH   7  10
TORSDOF 4
ENDMDL
MODEL 5
REMARK VINA RESULT: -6.856160687      0.926      1.159
REMARK  4 active torsions:
REMARK  status: ('A' for Active; 'I' for Inactive)
REMARK    1  A    between atoms: C6_7  and  N2_8 
REMARK    2  A    between atoms: N2_8  and  C7_10 
REMARK    3  A    between atoms: C7_10  and  C8_11 
REMARK    4  A    between atoms: C8_11  and  C9_12 
ROOT
HETATM    1  N1  UNL     1      27.734   3.052 -42.740  1.00  0.00    -0.190 NA
HETATM    2  C1  UNL     1      28.519   3.759 -43.229  1.00  0.00     0.117 C 
HETATM    3  C2  UNL     1      29.481   4.633 -43.845  1.00  0.00     0.115 A 
HETATM    4  C3  UNL     1      30.804   4.592 -43.460  1.00  0.00     0.041 A 
HETATM    5  C4  UNL     1      31.732   5.414 -44.034  1.00  0.00     0.007 A 
HETATM    6  C5  UNL     1      31.366   6.319 -45.027  1.00  0.00     0.048 A 
HETATM    7  C6  UNL     1      30.033   6.322 -45.378  1.00  0.00     0.101 A 
HETATM    8  N5  UNL     1      29.121   5.514 -44.812  1.00  0.00    -0.334 N 
ATOM      9  H5  UNL     1      28.147   5.562 -45.114  1.00  0.00     0.168 HD
ENDROOT
BRANCH   7  10
HETATM   10  N2  UNL     1      29.638   7.137 -46.289  1.00  0.00    -0.376 N 
ATOM     11  H2  UNL     1      30.002   7.038 -47.236  1.00  0.00     0.161 HD
BRANCH  10  12
HETATM   12  C7  UNL     1      28.695   8.186 -46.005  1.00  0.00     0.127 C 
BRANCH  12  13
HETATM   13  C8  UNL     1      29.484   9.435 -45.594  1.00  0.00     0.078 C 
BRANCH  13  14
HETATM   14  C9  UNL     1      28.593  10.604 -45.797  1.00  0.00     0.027 A 
HETATM   15  C10 UNL     1      28.731  11.919 -45.379  1.00  0.00     0.114 A 
HETATM   16  N3  UNL     1      27.676  12.641 -45.791  1.00  0.00    -0.360 N 
HETATM   17  C11 UNL     1      26.868  11.807 -46.466  1.00  0.00     0.180 A 
ATOM     18  H3  UNL     1      27.518  13.634 -45.622  1.00  0.00     0.166 HD
HETATM   19  N4  UNL     1      27.433  10.575 -46.465  1.00  0.00    -0.355 N 
ATOM     20  H4  UNL     1      27.033   9.748 -46.907  1.00  0.00     0.166 HD
ENDBRANCH  13  14
ENDBRANCH  12  13
ENDBRANCH  10  12
ENDBRANCH   7  10
TORSDOF 4
ENDMDL
