MODEL 1
REMARK VINA RESULT: -7.437637965      0.000      0.000
REMARK  14 active torsions:
REMARK  status: ('A' for Active; 'I' for Inactive)
REMARK    1  A    between atoms: C4_6  and  C5_7 
REMARK    2  A    between atoms: C5_7  and  C6_8 
REMARK    3  A    between atoms: C6_8  and  C7_9 
REMARK    4  A    between atoms: C7_9  and  C8_10 
REMARK    5  A    between atoms: C8_10  and  C9_11 
REMARK    6  A    between atoms: C9_11  and  C10_12 
REMARK    7  A    between atoms: C10_12  and  C11_13 
REMARK    8  A    between atoms: C11_13  and  C12_14 
REMARK    9  A    between atoms: C12_14  and  C13_15 
REMARK   10  A    between atoms: C16_22  and  C17_23 
REMARK   11  A    between atoms: C17_23  and  C18_24 
REMARK   12  A    between atoms: C18_24  and  C19_25 
REMARK   13  A    between atoms: C18_24  and  N4_29 
REMARK   14  A    between atoms: C19_25  and  S1_26 
ROOT
HETATM    1  C1  UNL     1      26.035  -5.984  44.212  1.00  0.00     0.045 C 
HETATM    2  C2  UNL     1      27.306  -5.741  43.946  1.00  0.00     0.053 A 
HETATM    3  N1  UNL     1      28.296  -5.826  44.851  1.00  0.00    -0.339 N 
ATOM      4  H1  UNL     1      28.183  -6.084  45.831  1.00  0.00     0.167 HD
HETATM    5  C3  UNL     1      29.458  -5.515  44.253  1.00  0.00     0.140 A 
HETATM    6  C4  UNL     1      30.807  -5.375  44.471  1.00  0.00     0.057 A 
HETATM    7  C15 UNL     1      31.329  -4.988  43.222  1.00  0.00     0.270 A 
HETATM    8  O1  UNL     1      32.549  -4.763  43.032  1.00  0.00    -0.266 OA
HETATM    9  N2  UNL     1      30.308  -4.920  42.359  1.00  0.00    -0.257 N 
ATOM     10  H2  UNL     1      30.398  -4.661  41.376  1.00  0.00     0.191 HD
HETATM   11  N3  UNL     1      29.164  -5.234  42.951  1.00  0.00    -0.234 N 
HETATM   12  C16 UNL     1      27.846  -5.360  42.715  1.00  0.00     0.082 A 
ENDROOT
BRANCH  12  13
HETATM   13  C17 UNL     1      27.131  -5.188  41.618  1.00  0.00     0.034 C 
BRANCH  13  14
HETATM   14  C18 UNL     1      26.688  -6.291  40.724  1.00  0.00     0.135 C 
BRANCH  14  15
HETATM   15  C19 UNL     1      26.622  -5.746  39.286  1.00  0.00     0.139 C 
BRANCH  15  16
HETATM   16  S1  UNL     1      25.429  -6.669  38.342  1.00  0.00     0.013 S 
HETATM   17  C20 UNL     1      26.051  -7.025  36.714  1.00  0.00     0.127 C 
HETATM   18  O2  UNL     1      25.169  -8.114  39.200  1.00  0.00    -0.258 OA
ENDBRANCH  15  16
ENDBRANCH  14  15
BRANCH  14  19
HETATM   19  N4  UNL     1      27.717  -7.293  40.687  1.00  0.00    -0.334 N 
HETATM   20  N5  UNL     1      27.542  -8.466  41.068  1.00  0.00    -0.349 N 
ATOM     21  H52 UNL     1      26.616  -8.711  41.419  1.00  0.00     0.176 HD
ATOM     22  H51 UNL     1      28.273  -9.177  41.041  1.00  0.00     0.176 HD
ATOM     23  H4  UNL     1      28.637  -7.030  40.333  1.00  0.00     0.180 HD
ENDBRANCH  14  19
ENDBRANCH  13  14
ENDBRANCH  12  13
BRANCH   6  24
HETATM   24  C5  UNL     1      31.650  -5.573  45.668  1.00  0.00     0.048 C 
BRANCH  24  25
HETATM   25  C6  UNL     1      31.346  -6.758  46.497  1.00  0.00     0.005 C 
BRANCH  25  26
HETATM   26  C7  UNL     1      31.324  -8.089  45.854  1.00  0.00     0.000 C 
BRANCH  26  27
HETATM   27  C8  UNL     1      30.027  -8.837  46.050  1.00  0.00     0.000 C 
BRANCH  27  28
HETATM   28  C9  UNL     1      29.444  -9.299  44.730  1.00  0.00     0.000 C 
BRANCH  28  29
HETATM   29  C10 UNL     1      27.946  -9.360  44.746  1.00  0.00     0.000 C 
BRANCH  29  30
HETATM   30  C11 UNL     1      27.370  -9.163  46.122  1.00  0.00     0.000 C 
BRANCH  30  31
HETATM   31  C12 UNL     1      26.472 -10.320  46.527  1.00  0.00    -0.000 C 
BRANCH  31  32
HETATM   32  C13 UNL     1      27.279 -11.216  47.465  1.00  0.00    -0.005 C 
HETATM   33  C14 UNL     1      27.629 -12.525  46.754  1.00  0.00     0.005 C 
ENDBRANCH  31  32
ENDBRANCH  30  31
ENDBRANCH  29  30
ENDBRANCH  28  29
ENDBRANCH  27  28
ENDBRANCH  26  27
ENDBRANCH  25  26
ENDBRANCH  24  25
ENDBRANCH   6  24
TORSDOF 14
ENDMDL
MODEL 2
REMARK VINA RESULT: -7.269587604      2.157      3.346
REMARK  14 active torsions:
REMARK  status: ('A' for Active; 'I' for Inactive)
REMARK    1  A    between atoms: C4_6  and  C5_7 
REMARK    2  A    between atoms: C5_7  and  C6_8 
REMARK    3  A    between atoms: C6_8  and  C7_9 
REMARK    4  A    between atoms: C7_9  and  C8_10 
REMARK    5  A    between atoms: C8_10  and  C9_11 
REMARK    6  A    between atoms: C9_11  and  C10_12 
REMARK    7  A    between atoms: C10_12  and  C11_13 
REMARK    8  A    between atoms: C11_13  and  C12_14 
REMARK    9  A    between atoms: C12_14  and  C13_15 
REMARK   10  A    between atoms: C16_22  and  C17_23 
REMARK   11  A    between atoms: C17_23  and  C18_24 
REMARK   12  A    between atoms: C18_24  and  C19_25 
REMARK   13  A    between atoms: C18_24  and  N4_29 
REMARK   14  A    between atoms: C19_25  and  S1_26 
ROOT
HETATM    1  C1  UNL     1      28.688  -9.648  41.365  1.00  0.00     0.045 C 
HETATM    2  C2  UNL     1      28.375  -8.398  41.654  1.00  0.00     0.053 A 
HETATM    3  N1  UNL     1      28.493  -7.854  42.877  1.00  0.00    -0.339 N 
ATOM      4  H1  UNL     1      28.832  -8.335  43.711  1.00  0.00     0.167 HD
HETATM    5  C3  UNL     1      28.092  -6.573  42.822  1.00  0.00     0.140 A 
HETATM    6  C4  UNL     1      27.917  -5.439  43.578  1.00  0.00     0.057 A 
HETATM    7  C15 UNL     1      27.414  -4.485  42.673  1.00  0.00     0.270 A 
HETATM    8  O1  UNL     1      27.128  -3.310  43.010  1.00  0.00    -0.266 OA
HETATM    9  N2  UNL     1      27.317  -5.073  41.475  1.00  0.00    -0.257 N 
ATOM     10  H2  UNL     1      26.979  -4.612  40.630  1.00  0.00     0.191 HD
HETATM   11  N3  UNL     1      27.721  -6.335  41.531  1.00  0.00    -0.234 N 
HETATM   12  C16 UNL     1      27.878  -7.434  40.773  1.00  0.00     0.082 A 
ENDROOT
BRANCH  12  13
HETATM   13  C17 UNL     1      27.648  -7.656  39.491  1.00  0.00     0.034 C 
BRANCH  13  14
HETATM   14  C18 UNL     1      26.296  -7.671  38.872  1.00  0.00     0.135 C 
BRANCH  14  15
HETATM   15  C19 UNL     1      26.392  -6.996  37.493  1.00  0.00     0.139 C 
BRANCH  15  16
HETATM   16  S1  UNL     1      25.467  -5.475  37.497  1.00  0.00     0.013 S 
HETATM   17  C20 UNL     1      23.751  -5.780  37.847  1.00  0.00     0.127 C 
HETATM   18  O2  UNL     1      26.155  -4.512  38.718  1.00  0.00    -0.258 OA
ENDBRANCH  15  16
ENDBRANCH  14  15
BRANCH  14  19
HETATM   19  N4  UNL     1      25.938  -9.034  38.587  1.00  0.00    -0.334 N 
HETATM   20  N5  UNL     1      25.192  -9.712  39.319  1.00  0.00    -0.349 N 
ATOM     21  H52 UNL     1      24.825  -9.262  40.158  1.00  0.00     0.176 HD
ATOM     22  H51 UNL     1      24.938 -10.678  39.116  1.00  0.00     0.176 HD
ATOM     23  H4  UNL     1      26.313  -9.467  37.743  1.00  0.00     0.180 HD
ENDBRANCH  14  19
ENDBRANCH  13  14
ENDBRANCH  12  13
BRANCH   6  24
HETATM   24  C5  UNL     1      28.177  -5.139  45.002  1.00  0.00     0.048 C 
BRANCH  24  25
HETATM   25  C6  UNL     1      29.468  -4.491  45.312  1.00  0.00     0.005 C 
BRANCH  25  26
HETATM   26  C7  UNL     1      30.696  -5.011  44.675  1.00  0.00     0.000 C 
BRANCH  26  27
HETATM   27  C8  UNL     1      31.754  -5.448  45.659  1.00  0.00     0.000 C 
BRANCH  27  28
HETATM   28  C9  UNL     1      31.300  -6.640  46.475  1.00  0.00     0.000 C 
BRANCH  28  29
HETATM   29  C10 UNL     1      31.318  -7.920  45.695  1.00  0.00     0.000 C 
BRANCH  29  30
HETATM   30  C11 UNL     1      30.117  -8.785  45.968  1.00  0.00     0.000 C 
BRANCH  30  31
HETATM   31  C12 UNL     1      29.129  -8.100  46.896  1.00  0.00    -0.000 C 
BRANCH  31  32
HETATM   32  C13 UNL     1      27.730  -8.570  46.500  1.00  0.00    -0.005 C 
HETATM   33  C14 UNL     1      27.822  -9.914  45.776  1.00  0.00     0.005 C 
ENDBRANCH  31  32
ENDBRANCH  30  31
ENDBRANCH  29  30
ENDBRANCH  28  29
ENDBRANCH  27  28
ENDBRANCH  26  27
ENDBRANCH  25  26
ENDBRANCH  24  25
ENDBRANCH   6  24
TORSDOF 14
ENDMDL
MODEL 3
REMARK VINA RESULT: -7.228375189      2.183      2.791
REMARK  14 active torsions:
REMARK  status: ('A' for Active; 'I' for Inactive)
REMARK    1  A    between atoms: C4_6  and  C5_7 
REMARK    2  A    between atoms: C5_7  and  C6_8 
REMARK    3  A    between atoms: C6_8  and  C7_9 
REMARK    4  A    between atoms: C7_9  and  C8_10 
REMARK    5  A    between atoms: C8_10  and  C9_11 
REMARK    6  A    between atoms: C9_11  and  C10_12 
REMARK    7  A    between atoms: C10_12  and  C11_13 
REMARK    8  A    between atoms: C11_13  and  C12_14 
REMARK    9  A    between atoms: C12_14  and  C13_15 
REMARK   10  A    between atoms: C16_22  and  C17_23 
REMARK   11  A    between atoms: C17_23  and  C18_24 
REMARK   12  A    between atoms: C18_24  and  C19_25 
REMARK   13  A    between atoms: C18_24  and  N4_29 
REMARK   14  A    between atoms: C19_25  and  S1_26 
ROOT
HETATM    1  C1  UNL     1      28.740  -9.622  41.498  1.00  0.00     0.045 C 
HETATM    2  C2  UNL     1      28.567  -8.359  41.844  1.00  0.00     0.053 A 
HETATM    3  N1  UNL     1      28.958  -7.839  43.020  1.00  0.00    -0.339 N 
ATOM      4  H1  UNL     1      29.426  -8.350  43.768  1.00  0.00     0.167 HD
HETATM    5  C3  UNL     1      28.632  -6.536  43.047  1.00  0.00     0.140 A 
HETATM    6  C4  UNL     1      28.680  -5.404  43.824  1.00  0.00     0.057 A 
HETATM    7  C15 UNL     1      28.064  -4.410  43.038  1.00  0.00     0.270 A 
HETATM    8  O1  UNL     1      27.923  -3.225  43.427  1.00  0.00    -0.266 OA
HETATM    9  N2  UNL     1      27.697  -4.976  41.883  1.00  0.00    -0.257 N 
ATOM     10  H2  UNL     1      27.225  -4.485  41.123  1.00  0.00     0.191 HD
HETATM   11  N3  UNL     1      28.026  -6.260  41.856  1.00  0.00    -0.234 N 
HETATM   12  C16 UNL     1      27.964  -7.356  41.080  1.00  0.00     0.082 A 
ENDROOT
BRANCH  12  13
HETATM   13  C17 UNL     1      27.471  -7.548  39.870  1.00  0.00     0.034 C 
BRANCH  13  14
HETATM   14  C18 UNL     1      26.146  -7.047  39.415  1.00  0.00     0.135 C 
BRANCH  14  15
HETATM   15  C19 UNL     1      26.308  -6.487  37.992  1.00  0.00     0.139 C 
BRANCH  15  16
HETATM   16  S1  UNL     1      27.429  -5.104  38.008  1.00  0.00     0.013 S 
HETATM   17  C20 UNL     1      27.425  -4.271  36.437  1.00  0.00     0.127 C 
HETATM   18  O2  UNL     1      26.868  -4.062  39.229  1.00  0.00    -0.258 OA
ENDBRANCH  15  16
ENDBRANCH  14  15
BRANCH  14  19
HETATM   19  N4  UNL     1      25.259  -8.169  39.267  1.00  0.00    -0.334 N 
HETATM   20  N5  UNL     1      25.657  -9.331  39.058  1.00  0.00    -0.349 N 
ATOM     21  H52 UNL     1      26.665  -9.476  38.991  1.00  0.00     0.176 HD
ATOM     22  H51 UNL     1      25.027 -10.127  38.953  1.00  0.00     0.176 HD
ATOM     23  H4  UNL     1      24.255  -8.006  39.337  1.00  0.00     0.180 HD
ENDBRANCH  14  19
ENDBRANCH  13  14
ENDBRANCH  12  13
BRANCH   6  24
HETATM   24  C5  UNL     1      29.234  -5.138  45.168  1.00  0.00     0.048 C 
BRANCH  24  25
HETATM   25  C6  UNL     1      30.663  -5.460  45.364  1.00  0.00     0.005 C 
BRANCH  25  26
HETATM   26  C7  UNL     1      31.029  -6.505  46.343  1.00  0.00     0.000 C 
BRANCH  26  27
HETATM   27  C8  UNL     1      31.332  -7.845  45.717  1.00  0.00     0.000 C 
BRANCH  27  28
HETATM   28  C9  UNL     1      30.239  -8.854  46.001  1.00  0.00     0.000 C 
BRANCH  28  29
HETATM   29  C10 UNL     1      29.251  -8.370  47.020  1.00  0.00     0.000 C 
BRANCH  29  30
HETATM   30  C11 UNL     1      27.849  -8.284  46.477  1.00  0.00     0.000 C 
BRANCH  30  31
HETATM   31  C12 UNL     1      27.168  -9.641  46.461  1.00  0.00    -0.000 C 
BRANCH  31  32
HETATM   32  C13 UNL     1      26.650  -9.874  45.043  1.00  0.00    -0.005 C 
HETATM   33  C14 UNL     1      27.249 -11.165  44.480  1.00  0.00     0.005 C 
ENDBRANCH  31  32
ENDBRANCH  30  31
ENDBRANCH  29  30
ENDBRANCH  28  29
ENDBRANCH  27  28
ENDBRANCH  26  27
ENDBRANCH  25  26
ENDBRANCH  24  25
ENDBRANCH   6  24
TORSDOF 14
ENDMDL
MODEL 4
REMARK VINA RESULT: -7.217379462      3.691      6.285
REMARK  14 active torsions:
REMARK  status: ('A' for Active; 'I' for Inactive)
REMARK    1  A    between atoms: C4_6  and  C5_7 
REMARK    2  A    between atoms: C5_7  and  C6_8 
REMARK    3  A    between atoms: C6_8  and  C7_9 
REMARK    4  A    between atoms: C7_9  and  C8_10 
REMARK    5  A    between atoms: C8_10  and  C9_11 
REMARK    6  A    between atoms: C9_11  and  C10_12 
REMARK    7  A    between atoms: C10_12  and  C11_13 
REMARK    8  A    between atoms: C11_13  and  C12_14 
REMARK    9  A    between atoms: C12_14  and  C13_15 
REMARK   10  A    between atoms: C16_22  and  C17_23 
REMARK   11  A    between atoms: C17_23  and  C18_24 
REMARK   12  A    between atoms: C18_24  and  C19_25 
REMARK   13  A    between atoms: C18_24  and  N4_29 
REMARK   14  A    between atoms: C19_25  and  S1_26 
ROOT
HETATM    1  C1  UNL     1      29.036 -10.156  42.718  1.00  0.00     0.045 C 
HETATM    2  C2  UNL     1      29.151  -9.399  43.795  1.00  0.00     0.053 A 
HETATM    3  N1  UNL     1      30.176  -8.560  44.020  1.00  0.00    -0.339 N 
ATOM      4  H1  UNL     1      30.970  -8.412  43.397  1.00  0.00     0.167 HD
HETATM    5  C3  UNL     1      29.983  -7.948  45.200  1.00  0.00     0.140 A 
HETATM    6  C4  UNL     1      30.529  -7.035  46.071  1.00  0.00     0.057 A 
HETATM    7  C15 UNL     1      29.619  -6.984  47.145  1.00  0.00     0.270 A 
HETATM    8  O1  UNL     1      29.788  -6.248  48.147  1.00  0.00    -0.266 OA
HETATM    9  N2  UNL     1      28.620  -7.833  46.872  1.00  0.00    -0.257 N 
ATOM     10  H2  UNL     1      27.820  -7.998  47.482  1.00  0.00     0.191 HD
HETATM   11  N3  UNL     1      28.810  -8.430  45.703  1.00  0.00    -0.234 N 
HETATM   12  C16 UNL     1      28.260  -9.329  44.869  1.00  0.00     0.082 A 
ENDROOT
BRANCH  12  13
HETATM   13  C17 UNL     1      27.148 -10.036  44.951  1.00  0.00     0.034 C 
BRANCH  13  14
HETATM   14  C18 UNL     1      26.755 -10.848  46.133  1.00  0.00     0.135 C 
BRANCH  14  15
HETATM   15  C19 UNL     1      28.033 -11.228  46.901  1.00  0.00     0.139 C 
BRANCH  15  16
HETATM   16  S1  UNL     1      28.467 -12.920  46.559  1.00  0.00     0.013 S 
HETATM   17  C20 UNL     1      28.338 -13.265  44.820  1.00  0.00     0.127 C 
HETATM   18  O2  UNL     1      30.075 -13.105  47.079  1.00  0.00    -0.258 OA
ENDBRANCH  15  16
ENDBRANCH  14  15
BRANCH  14  19
HETATM   19  N4  UNL     1      26.019 -10.010  47.040  1.00  0.00    -0.334 N 
HETATM   20  N5  UNL     1      25.305 -10.458  47.957  1.00  0.00    -0.349 N 
ATOM     21  H52 UNL     1      25.250 -11.473  48.055  1.00  0.00     0.176 HD
ATOM     22  H51 UNL     1      24.783  -9.863  48.601  1.00  0.00     0.176 HD
ATOM     23  H4  UNL     1      26.086  -8.999  46.928  1.00  0.00     0.180 HD
ENDBRANCH  14  19
ENDBRANCH  13  14
ENDBRANCH  12  13
BRANCH   6  24
HETATM   24  C5  UNL     1      31.753  -6.211  46.014  1.00  0.00     0.048 C 
BRANCH  24  25
HETATM   25  C6  UNL     1      31.664  -4.953  45.244  1.00  0.00     0.005 C 
BRANCH  25  26
HETATM   26  C7  UNL     1      31.510  -5.027  43.776  1.00  0.00     0.000 C 
BRANCH  26  27
HETATM   27  C8  UNL     1      30.160  -4.565  43.282  1.00  0.00     0.000 C 
BRANCH  27  28
HETATM   28  C9  UNL     1      29.447  -3.719  44.316  1.00  0.00     0.000 C 
BRANCH  28  29
HETATM   29  C10 UNL     1      28.213  -4.378  44.856  1.00  0.00     0.000 C 
BRANCH  29  30
HETATM   30  C11 UNL     1      27.676  -5.447  43.942  1.00  0.00     0.000 C 
BRANCH  30  31
HETATM   31  C12 UNL     1      26.578  -4.913  43.038  1.00  0.00    -0.000 C 
BRANCH  31  32
HETATM   32  C13 UNL     1      26.900  -5.365  41.615  1.00  0.00    -0.005 C 
HETATM   33  C14 UNL     1      27.517  -6.765  41.645  1.00  0.00     0.005 C 
ENDBRANCH  31  32
ENDBRANCH  30  31
ENDBRANCH  29  30
ENDBRANCH  28  29
ENDBRANCH  27  28
ENDBRANCH  26  27
ENDBRANCH  25  26
ENDBRANCH  24  25
ENDBRANCH   6  24
TORSDOF 14
ENDMDL
MODEL 5
REMARK VINA RESULT: -7.189475076      2.522      4.505
REMARK  14 active torsions:
REMARK  status: ('A' for Active; 'I' for Inactive)
REMARK    1  A    between atoms: C4_6  and  C5_7 
REMARK    2  A    between atoms: C5_7  and  C6_8 
REMARK    3  A    between atoms: C6_8  and  C7_9 
REMARK    4  A    between atoms: C7_9  and  C8_10 
REMARK    5  A    between atoms: C8_10  and  C9_11 
REMARK    6  A    between atoms: C9_11  and  C10_12 
REMARK    7  A    between atoms: C10_12  and  C11_13 
REMARK    8  A    between atoms: C11_13  and  C12_14 
REMARK    9  A    between atoms: C12_14  and  C13_15 
REMARK   10  A    between atoms: C16_22  and  C17_23 
REMARK   11  A    between atoms: C17_23  and  C18_24 
REMARK   12  A    between atoms: C18_24  and  C19_25 
REMARK   13  A    between atoms: C18_24  and  N4_29 
REMARK   14  A    between atoms: C19_25  and  S1_26 
ROOT
HETATM    1  C1  UNL     1      30.829  -8.131  40.713  1.00  0.00     0.045 C 
HETATM    2  C2  UNL     1      29.988  -8.383  41.700  1.00  0.00     0.053 A 
HETATM    3  N1  UNL     1      30.334  -8.412  42.997  1.00  0.00    -0.339 N 
ATOM      4  H1  UNL     1      31.271  -8.247  43.365  1.00  0.00     0.167 HD
HETATM    5  C3  UNL     1      29.245  -8.695  43.731  1.00  0.00     0.140 A 
HETATM    6  C4  UNL     1      28.802  -8.893  45.016  1.00  0.00     0.057 A 
HETATM    7  C15 UNL     1      27.429  -9.172  44.878  1.00  0.00     0.270 A 
HETATM    8  O1  UNL     1      26.679  -9.411  45.856  1.00  0.00    -0.266 OA
HETATM    9  N2  UNL     1      27.135  -9.129  43.573  1.00  0.00    -0.257 N 
ATOM     10  H2  UNL     1      26.207  -9.295  43.184  1.00  0.00     0.191 HD
HETATM   11  N3  UNL     1      28.211  -8.842  42.853  1.00  0.00    -0.234 N 
HETATM   12  C16 UNL     1      28.622  -8.658  41.586  1.00  0.00     0.082 A 
ENDROOT
BRANCH  12  13
HETATM   13  C17 UNL     1      27.973  -8.704  40.437  1.00  0.00     0.034 C 
BRANCH  13  14
HETATM   14  C18 UNL     1      27.153  -7.589  39.891  1.00  0.00     0.135 C 
BRANCH  14  15
HETATM   15  C19 UNL     1      27.813  -7.102  38.590  1.00  0.00     0.139 C 
BRANCH  15  16
HETATM   16  S1  UNL     1      26.584  -6.393  37.515  1.00  0.00     0.013 S 
HETATM   17  C20 UNL     1      27.313  -5.185  36.432  1.00  0.00     0.127 C 
HETATM   18  O2  UNL     1      25.951  -7.687  36.611  1.00  0.00    -0.258 OA
ENDBRANCH  15  16
ENDBRANCH  14  15
BRANCH  14  19
HETATM   19  N4  UNL     1      25.880  -8.115  39.480  1.00  0.00    -0.334 N 
HETATM   20  N5  UNL     1      25.673  -9.329  39.289  1.00  0.00    -0.349 N 
ATOM     21  H52 UNL     1      26.455  -9.967  39.436  1.00  0.00     0.176 HD
ATOM     22  H51 UNL     1      24.769  -9.702  38.997  1.00  0.00     0.176 HD
ATOM     23  H4  UNL     1      25.110  -7.463  39.338  1.00  0.00     0.180 HD
ENDBRANCH  14  19
ENDBRANCH  13  14
ENDBRANCH  12  13
BRANCH   6  24
HETATM   24  C5  UNL     1      29.483  -8.834  46.326  1.00  0.00     0.048 C 
BRANCH  24  25
HETATM   25  C6  UNL     1      29.168  -7.669  47.179  1.00  0.00     0.005 C 
BRANCH  25  26
HETATM   26  C7  UNL     1      29.954  -6.429  47.007  1.00  0.00     0.000 C 
BRANCH  26  27
HETATM   27  C8  UNL     1      31.330  -6.656  46.428  1.00  0.00     0.000 C 
BRANCH  27  28
HETATM   28  C9  UNL     1      31.627  -5.691  45.299  1.00  0.00     0.000 C 
BRANCH  28  29
HETATM   29  C10 UNL     1      30.427  -4.890  44.888  1.00  0.00     0.000 C 
BRANCH  29  30
HETATM   30  C11 UNL     1      30.273  -4.798  43.394  1.00  0.00     0.000 C 
BRANCH  30  31
HETATM   31  C12 UNL     1      28.851  -5.102  42.955  1.00  0.00    -0.000 C 
BRANCH  31  32
HETATM   32  C13 UNL     1      28.006  -5.250  44.218  1.00  0.00    -0.005 C 
HETATM   33  C14 UNL     1      26.559  -5.568  43.837  1.00  0.00     0.005 C 
ENDBRANCH  31  32
ENDBRANCH  30  31
ENDBRANCH  29  30
ENDBRANCH  28  29
ENDBRANCH  27  28
ENDBRANCH  26  27
ENDBRANCH  25  26
ENDBRANCH  24  25
ENDBRANCH   6  24
TORSDOF 14
ENDMDL
