MODEL 1
REMARK VINA RESULT: -7.296881360      0.000      0.000
REMARK  13 active torsions:
REMARK  status: ('A' for Active; 'I' for Inactive)
REMARK    1  A    between atoms: C2_2  and  N1_3 
REMARK    2  A    between atoms: N1_3  and  C4_5 
REMARK    3  A    between atoms: N1_3  and  C6_9 
REMARK    4  A    between atoms: C4_5  and  C5_6 
REMARK    5  A    between atoms: C5_6  and  O1_7 
REMARK    6  A    between atoms: C6_9  and  N2_10 
REMARK    7  A    between atoms: N2_10  and  C7_13 
REMARK    8  A    between atoms: C7_13  and  C8_14 
REMARK    9  A    between atoms: C8_14  and  S1_15 
REMARK   10  A    between atoms: S1_15  and  C10_17 
REMARK   11  A    between atoms: C10_17  and  C11_18 
REMARK   12  A    between atoms: C11_18  and  C12_19 
REMARK   13  A    between atoms: C12_19  and  N3_20 
ROOT
HETATM    1  S1  UNL     1      27.997  -5.382  44.652  1.00  0.00    -0.222 SA
HETATM    2  C9  UNL     1      29.582  -5.102  43.961  1.00  0.00     0.078 C 
ENDROOT
BRANCH   1   3
HETATM    3  C8  UNL     1      27.840  -7.007  45.294  1.00  0.00     0.090 C 
BRANCH   3   4
HETATM    4  C7  UNL     1      28.758  -7.245  46.437  1.00  0.00     0.243 C 
BRANCH   4   5
HETATM    5  N2  UNL     1      28.493  -8.392  47.269  1.00  0.00    -0.050 N 
ATOM      6  H22 UNL     1      28.252  -8.128  48.224  1.00  0.00     0.279 HD
ATOM      7  H21 UNL     1      29.340  -8.923  47.472  1.00  0.00     0.279 HD
BRANCH   5   8
HETATM    8  C6  UNL     1      27.468  -9.214  46.653  1.00  0.00     0.467 C 
BRANCH   8   9
HETATM    9  N1  UNL     1      27.729 -10.605  46.589  1.00  0.00    -0.046 N 
HETATM   10  C3  UNL     1      29.018 -10.879  47.179  1.00  0.00     0.274 C 
BRANCH   9  11
HETATM   11  C2  UNL     1      26.774 -11.336  47.426  1.00  0.00     0.234 C 
HETATM   12  C1  UNL     1      27.138 -12.763  47.633  1.00  0.00     0.035 C 
ENDBRANCH   9  11
BRANCH   9  13
HETATM   13  C4  UNL     1      27.776 -11.148  45.254  1.00  0.00     0.264 C 
BRANCH  13  14
HETATM   14  C5  UNL     1      27.078 -10.364  44.207  1.00  0.00     0.192 C 
BRANCH  14  15
HETATM   15  O1  UNL     1      26.310 -11.291  43.460  1.00  0.00    -0.399 OA
ATOM     16  H1  UNL     1      25.538 -10.823  43.168  1.00  0.00     0.209 HD
ENDBRANCH  14  15
ENDBRANCH  13  14
ENDBRANCH   9  13
ENDBRANCH   8   9
ENDBRANCH   5   8
ENDBRANCH   4   5
ENDBRANCH   3   4
ENDBRANCH   1   3
BRANCH   1  17
HETATM   17  C10 UNL     1      26.707  -5.144  43.429  1.00  0.00     0.065 C 
BRANCH  17  18
HETATM   18  C11 UNL     1      27.275  -4.593  42.159  1.00  0.00     0.038 C 
BRANCH  18  19
HETATM   19  C12 UNL     1      26.760  -5.182  40.897  1.00  0.00     0.251 C 
BRANCH  19  20
HETATM   20  N3  UNL     1      27.584  -6.134  40.221  1.00  0.00    -0.005 N 
HETATM   21  C13 UNL     1      29.007  -5.869  40.320  1.00  0.00     0.287 C 
HETATM   22  C14 UNL     1      27.336  -7.477  40.499  1.00  0.00     0.211 A 
HETATM   23  C15 UNL     1      26.923  -8.104  39.421  1.00  0.00     0.046 A 
HETATM   24  C16 UNL     1      26.878  -7.168  38.335  1.00  0.00     0.086 A 
HETATM   25  C17 UNL     1      27.280  -5.969  38.812  1.00  0.00     0.229 A 
HETATM   26  C19 UNL     1      26.534  -7.229  36.983  1.00  0.00     0.260 A 
HETATM   27  N4  UNL     1      27.343  -4.881  38.017  1.00  0.00    -0.331 N 
HETATM   28  C18 UNL     1      26.997  -4.991  36.707  1.00  0.00     0.185 A 
ATOM     29  H4  UNL     1      27.647  -3.984  38.395  1.00  0.00     0.168 HD
HETATM   30  N5  UNL     1      26.592  -6.154  36.178  1.00  0.00    -0.319 N 
ATOM     31  H5  UNL     1      26.336  -6.222  35.193  1.00  0.00     0.169 HD
HETATM   32  O2  UNL     1      26.162  -8.335  36.534  1.00  0.00    -0.267 OA
ENDBRANCH  19  20
ENDBRANCH  18  19
ENDBRANCH  17  18
ENDBRANCH   1  17
TORSDOF 13
ENDMDL
MODEL 2
REMARK VINA RESULT: -7.243326013      2.065      7.245
REMARK  13 active torsions:
REMARK  status: ('A' for Active; 'I' for Inactive)
REMARK    1  A    between atoms: C2_2  and  N1_3 
REMARK    2  A    between atoms: N1_3  and  C4_5 
REMARK    3  A    between atoms: N1_3  and  C6_9 
REMARK    4  A    between atoms: C4_5  and  C5_6 
REMARK    5  A    between atoms: C5_6  and  O1_7 
REMARK    6  A    between atoms: C6_9  and  N2_10 
REMARK    7  A    between atoms: N2_10  and  C7_13 
REMARK    8  A    between atoms: C7_13  and  C8_14 
REMARK    9  A    between atoms: C8_14  and  S1_15 
REMARK   10  A    between atoms: S1_15  and  C10_17 
REMARK   11  A    between atoms: C10_17  and  C11_18 
REMARK   12  A    between atoms: C11_18  and  C12_19 
REMARK   13  A    between atoms: C12_19  and  N3_20 
ROOT
HETATM    1  S1  UNL     1      27.432  -4.579  42.940  1.00  0.00    -0.222 SA
HETATM    2  C9  UNL     1      26.389  -5.647  43.858  1.00  0.00     0.078 C 
ENDROOT
BRANCH   1   3
HETATM    3  C8  UNL     1      27.882  -5.274  41.394  1.00  0.00     0.090 C 
BRANCH   3   4
HETATM    4  C7  UNL     1      27.865  -6.758  41.425  1.00  0.00     0.243 C 
BRANCH   4   5
HETATM    5  N2  UNL     1      26.844  -7.423  40.653  1.00  0.00    -0.050 N 
ATOM      6  H22 UNL     1      26.114  -7.821  41.244  1.00  0.00     0.279 HD
ATOM      7  H21 UNL     1      27.182  -8.289  40.233  1.00  0.00     0.279 HD
BRANCH   5   8
HETATM    8  C6  UNL     1      26.309  -6.508  39.663  1.00  0.00     0.467 C 
BRANCH   8   9
HETATM    9  N1  UNL     1      25.571  -7.088  38.602  1.00  0.00    -0.046 N 
HETATM   10  C3  UNL     1      25.639  -8.526  38.701  1.00  0.00     0.274 C 
BRANCH   9  11
HETATM   11  C2  UNL     1      24.148  -6.772  38.745  1.00  0.00     0.234 C 
HETATM   12  C1  UNL     1      23.653  -5.795  37.738  1.00  0.00     0.035 C 
ENDBRANCH   9  11
BRANCH   9  13
HETATM   13  C4  UNL     1      26.050  -6.754  37.283  1.00  0.00     0.264 C 
BRANCH  13  14
HETATM   14  C5  UNL     1      26.428  -7.898  36.418  1.00  0.00     0.192 C 
BRANCH  14  15
HETATM   15  O1  UNL     1      25.639  -7.789  35.247  1.00  0.00    -0.399 OA
ATOM     16  H1  UNL     1      26.200  -8.040  34.523  1.00  0.00     0.209 HD
ENDBRANCH  14  15
ENDBRANCH  13  14
ENDBRANCH   9  13
ENDBRANCH   8   9
ENDBRANCH   5   8
ENDBRANCH   4   5
ENDBRANCH   3   4
ENDBRANCH   1   3
BRANCH   1  17
HETATM   17  C10 UNL     1      28.939  -4.215  43.842  1.00  0.00     0.065 C 
BRANCH  17  18
HETATM   18  C11 UNL     1      29.138  -5.190  44.959  1.00  0.00     0.038 C 
BRANCH  18  19
HETATM   19  C12 UNL     1      29.924  -6.408  44.638  1.00  0.00     0.251 C 
BRANCH  19  20
HETATM   20  N3  UNL     1      29.660  -7.591  45.394  1.00  0.00    -0.005 N 
HETATM   21  C13 UNL     1      30.823  -8.146  46.061  1.00  0.00     0.287 C 
HETATM   22  C14 UNL     1      28.591  -7.531  46.286  1.00  0.00     0.211 A 
HETATM   23  C15 UNL     1      27.649  -8.376  45.938  1.00  0.00     0.046 A 
HETATM   24  C16 UNL     1      28.067  -9.065  44.750  1.00  0.00     0.086 A 
HETATM   25  C17 UNL     1      29.289  -8.595  44.415  1.00  0.00     0.229 A 
HETATM   26  C19 UNL     1      27.518 -10.050  43.927  1.00  0.00     0.260 A 
HETATM   27  N4  UNL     1      29.946  -9.057  43.332  1.00  0.00    -0.331 N 
HETATM   28  C18 UNL     1      29.371 -10.017  42.561  1.00  0.00     0.185 A 
ATOM     29  H4  UNL     1      30.867  -8.690  43.093  1.00  0.00     0.168 HD
HETATM   30  N5  UNL     1      28.162 -10.522  42.845  1.00  0.00    -0.319 N 
ATOM     31  H5  UNL     1      27.743 -11.243  42.258  1.00  0.00     0.169 HD
HETATM   32  O2  UNL     1      26.389 -10.491  44.231  1.00  0.00    -0.267 OA
ENDBRANCH  19  20
ENDBRANCH  18  19
ENDBRANCH  17  18
ENDBRANCH   1  17
TORSDOF 13
ENDMDL
MODEL 3
REMARK VINA RESULT: -7.212066968      2.164      7.220
REMARK  13 active torsions:
REMARK  status: ('A' for Active; 'I' for Inactive)
REMARK    1  A    between atoms: C2_2  and  N1_3 
REMARK    2  A    between atoms: N1_3  and  C4_5 
REMARK    3  A    between atoms: N1_3  and  C6_9 
REMARK    4  A    between atoms: C4_5  and  C5_6 
REMARK    5  A    between atoms: C5_6  and  O1_7 
REMARK    6  A    between atoms: C6_9  and  N2_10 
REMARK    7  A    between atoms: N2_10  and  C7_13 
REMARK    8  A    between atoms: C7_13  and  C8_14 
REMARK    9  A    between atoms: C8_14  and  S1_15 
REMARK   10  A    between atoms: S1_15  and  C10_17 
REMARK   11  A    between atoms: C10_17  and  C11_18 
REMARK   12  A    between atoms: C11_18  and  C12_19 
REMARK   13  A    between atoms: C12_19  and  N3_20 
ROOT
HETATM    1  S1  UNL     1      27.581  -4.493  43.051  1.00  0.00    -0.222 SA
HETATM    2  C9  UNL     1      26.519  -5.529  43.981  1.00  0.00     0.078 C 
ENDROOT
BRANCH   1   3
HETATM    3  C8  UNL     1      28.007  -5.208  41.507  1.00  0.00     0.090 C 
BRANCH   3   4
HETATM    4  C7  UNL     1      27.918  -6.690  41.538  1.00  0.00     0.243 C 
BRANCH   4   5
HETATM    5  N2  UNL     1      26.861  -7.305  40.773  1.00  0.00    -0.050 N 
ATOM      6  H22 UNL     1      26.221  -7.837  41.361  1.00  0.00     0.279 HD
ATOM      7  H21 UNL     1      27.202  -8.072  40.193  1.00  0.00     0.279 HD
BRANCH   5   8
HETATM    8  C6  UNL     1      26.175  -6.293  39.992  1.00  0.00     0.467 C 
BRANCH   8   9
HETATM    9  N1  UNL     1      25.621  -6.717  38.758  1.00  0.00    -0.046 N 
HETATM   10  C3  UNL     1      26.212  -5.960  37.682  1.00  0.00     0.274 C 
BRANCH   9  11
HETATM   11  C2  UNL     1      25.998  -8.106  38.488  1.00  0.00     0.234 C 
HETATM   12  C1  UNL     1      26.726  -8.284  37.203  1.00  0.00     0.035 C 
ENDBRANCH   9  11
BRANCH   9  13
HETATM   13  C4  UNL     1      24.195  -6.531  38.644  1.00  0.00     0.264 C 
BRANCH  13  14
HETATM   14  C5  UNL     1      23.742  -5.602  37.581  1.00  0.00     0.192 C 
BRANCH  14  15
HETATM   15  O1  UNL     1      22.818  -6.325  36.787  1.00  0.00    -0.399 OA
ATOM     16  H1  UNL     1      22.068  -5.755  36.666  1.00  0.00     0.209 HD
ENDBRANCH  14  15
ENDBRANCH  13  14
ENDBRANCH   9  13
ENDBRANCH   8   9
ENDBRANCH   5   8
ENDBRANCH   4   5
ENDBRANCH   3   4
ENDBRANCH   1   3
BRANCH   1  17
HETATM   17  C10 UNL     1      29.101  -4.157  43.943  1.00  0.00     0.065 C 
BRANCH  17  18
HETATM   18  C11 UNL     1      29.315  -5.167  45.025  1.00  0.00     0.038 C 
BRANCH  18  19
HETATM   19  C12 UNL     1      30.017  -6.415  44.631  1.00  0.00     0.251 C 
BRANCH  19  20
HETATM   20  N3  UNL     1      29.743  -7.599  45.382  1.00  0.00    -0.005 N 
HETATM   21  C13 UNL     1      30.907  -8.183  46.023  1.00  0.00     0.287 C 
HETATM   22  C14 UNL     1      28.691  -7.526  46.294  1.00  0.00     0.211 A 
HETATM   23  C15 UNL     1      27.726  -8.349  45.955  1.00  0.00     0.046 A 
HETATM   24  C16 UNL     1      28.110  -9.035  44.755  1.00  0.00     0.086 A 
HETATM   25  C17 UNL     1      29.334  -8.587  44.401  1.00  0.00     0.229 A 
HETATM   26  C19 UNL     1      27.527 -10.003  43.933  1.00  0.00     0.260 A 
HETATM   27  N4  UNL     1      29.963  -9.052  43.303  1.00  0.00    -0.331 N 
HETATM   28  C18 UNL     1      29.356  -9.994  42.534  1.00  0.00     0.185 A 
ATOM     29  H4  UNL     1      30.887  -8.701  43.051  1.00  0.00     0.168 HD
HETATM   30  N5  UNL     1      28.142 -10.478  42.836  1.00  0.00    -0.319 N 
ATOM     31  H5  UNL     1      27.698 -11.185  42.250  1.00  0.00     0.169 HD
HETATM   32  O2  UNL     1      26.395 -10.424  44.254  1.00  0.00    -0.267 OA
ENDBRANCH  19  20
ENDBRANCH  18  19
ENDBRANCH  17  18
ENDBRANCH   1  17
TORSDOF 13
ENDMDL
MODEL 4
REMARK VINA RESULT: -7.186744198      3.811      5.679
REMARK  13 active torsions:
REMARK  status: ('A' for Active; 'I' for Inactive)
REMARK    1  A    between atoms: C2_2  and  N1_3 
REMARK    2  A    between atoms: N1_3  and  C4_5 
REMARK    3  A    between atoms: N1_3  and  C6_9 
REMARK    4  A    between atoms: C4_5  and  C5_6 
REMARK    5  A    between atoms: C5_6  and  O1_7 
REMARK    6  A    between atoms: C6_9  and  N2_10 
REMARK    7  A    between atoms: N2_10  and  C7_13 
REMARK    8  A    between atoms: C7_13  and  C8_14 
REMARK    9  A    between atoms: C8_14  and  S1_15 
REMARK   10  A    between atoms: S1_15  and  C10_17 
REMARK   11  A    between atoms: C10_17  and  C11_18 
REMARK   12  A    between atoms: C11_18  and  C12_19 
REMARK   13  A    between atoms: C12_19  and  N3_20 
ROOT
HETATM    1  S1  UNL     1      29.595  -7.448  41.628  1.00  0.00    -0.222 SA
HETATM    2  C9  UNL     1      30.536  -7.795  40.192  1.00  0.00     0.078 C 
ENDROOT
BRANCH   1   3
HETATM    3  C8  UNL     1      29.779  -8.694  42.848  1.00  0.00     0.090 C 
BRANCH   3   4
HETATM    4  C7  UNL     1      29.786 -10.056  42.256  1.00  0.00     0.243 C 
BRANCH   4   5
HETATM    5  N2  UNL     1      29.500 -11.161  43.138  1.00  0.00    -0.050 N 
ATOM      6  H22 UNL     1      30.287 -11.806  43.214  1.00  0.00     0.279 HD
ATOM      7  H21 UNL     1      28.819 -11.806  42.737  1.00  0.00     0.279 HD
BRANCH   5   8
HETATM    8  C6  UNL     1      29.080 -10.655  44.431  1.00  0.00     0.467 C 
BRANCH   8   9
HETATM    9  N1  UNL     1      27.926 -11.252  44.996  1.00  0.00    -0.046 N 
HETATM   10  C3  UNL     1      26.777 -10.939  44.182  1.00  0.00     0.274 C 
BRANCH   9  11
HETATM   11  C2  UNL     1      28.035 -12.712  44.942  1.00  0.00     0.234 C 
HETATM   12  C1  UNL     1      28.169 -13.347  46.280  1.00  0.00     0.035 C 
ENDBRANCH   9  11
BRANCH   9  13
HETATM   13  C4  UNL     1      27.607 -10.802  46.329  1.00  0.00     0.264 C 
BRANCH  13  14
HETATM   14  C5  UNL     1      26.364 -10.005  46.468  1.00  0.00     0.192 C 
BRANCH  14  15
HETATM   15  O1  UNL     1      25.622 -10.603  47.515  1.00  0.00    -0.399 OA
ATOM     16  H1  UNL     1      25.938 -10.213  48.322  1.00  0.00     0.209 HD
ENDBRANCH  14  15
ENDBRANCH  13  14
ENDBRANCH   9  13
ENDBRANCH   8   9
ENDBRANCH   5   8
ENDBRANCH   4   5
ENDBRANCH   3   4
ENDBRANCH   1   3
BRANCH   1  17
HETATM   17  C10 UNL     1      27.849  -7.309  41.239  1.00  0.00     0.065 C 
BRANCH  17  18
HETATM   18  C11 UNL     1      27.168  -6.374  42.187  1.00  0.00     0.038 C 
BRANCH  18  19
HETATM   19  C12 UNL     1      28.000  -5.277  42.743  1.00  0.00     0.251 C 
BRANCH  19  20
HETATM   20  N3  UNL     1      28.013  -5.103  44.161  1.00  0.00    -0.005 N 
HETATM   21  C13 UNL     1      27.439  -3.849  44.613  1.00  0.00     0.287 C 
HETATM   22  C14 UNL     1      27.504  -6.154  44.920  1.00  0.00     0.211 A 
HETATM   23  C15 UNL     1      28.444  -6.681  45.671  1.00  0.00     0.046 A 
HETATM   24  C16 UNL     1      29.669  -5.973  45.435  1.00  0.00     0.086 A 
HETATM   25  C17 UNL     1      29.416  -5.011  44.521  1.00  0.00     0.229 A 
HETATM   26  C19 UNL     1      30.976  -6.059  45.919  1.00  0.00     0.260 A 
HETATM   27  N4  UNL     1      30.384  -4.174  44.094  1.00  0.00    -0.331 N 
HETATM   28  C18 UNL     1      31.641  -4.298  44.595  1.00  0.00     0.185 A 
ATOM     29  H4  UNL     1      30.174  -3.455  43.402  1.00  0.00     0.168 HD
HETATM   30  N5  UNL     1      31.951  -5.232  45.505  1.00  0.00    -0.319 N 
ATOM     31  H5  UNL     1      32.899  -5.313  45.873  1.00  0.00     0.169 HD
HETATM   32  O2  UNL     1      31.218  -6.946  46.767  1.00  0.00    -0.267 OA
ENDBRANCH  19  20
ENDBRANCH  18  19
ENDBRANCH  17  18
ENDBRANCH   1  17
TORSDOF 13
ENDMDL
MODEL 5
REMARK VINA RESULT: -7.156738759      3.140      3.914
REMARK  13 active torsions:
REMARK  status: ('A' for Active; 'I' for Inactive)
REMARK    1  A    between atoms: C2_2  and  N1_3 
REMARK    2  A    between atoms: N1_3  and  C4_5 
REMARK    3  A    between atoms: N1_3  and  C6_9 
REMARK    4  A    between atoms: C4_5  and  C5_6 
REMARK    5  A    between atoms: C5_6  and  O1_7 
REMARK    6  A    between atoms: C6_9  and  N2_10 
REMARK    7  A    between atoms: N2_10  and  C7_13 
REMARK    8  A    between atoms: C7_13  and  C8_14 
REMARK    9  A    between atoms: C8_14  and  S1_15 
REMARK   10  A    between atoms: S1_15  and  C10_17 
REMARK   11  A    between atoms: C10_17  and  C11_18 
REMARK   12  A    between atoms: C11_18  and  C12_19 
REMARK   13  A    between atoms: C12_19  and  N3_20 
ROOT
HETATM    1  S1  UNL     1      31.166  -6.556  46.443  1.00  0.00    -0.222 SA
HETATM    2  C9  UNL     1      31.534  -8.072  45.645  1.00  0.00     0.078 C 
ENDROOT
BRANCH   1   3
HETATM    3  C8  UNL     1      29.633  -6.618  47.293  1.00  0.00     0.090 C 
BRANCH   3   4
HETATM    4  C7  UNL     1      28.698  -7.596  46.681  1.00  0.00     0.243 C 
BRANCH   4   5
HETATM    5  N2  UNL     1      28.511  -8.850  47.368  1.00  0.00    -0.050 N 
ATOM      6  H22 UNL     1      28.286  -8.719  48.354  1.00  0.00     0.279 HD
ATOM      7  H21 UNL     1      29.387  -9.360  47.483  1.00  0.00     0.279 HD
BRANCH   5   8
HETATM    8  C6  UNL     1      27.506  -9.638  46.678  1.00  0.00     0.467 C 
BRANCH   8   9
HETATM    9  N1  UNL     1      27.721 -11.038  46.638  1.00  0.00    -0.046 N 
HETATM   10  C3  UNL     1      29.102 -11.320  46.949  1.00  0.00     0.274 C 
BRANCH   9  11
HETATM   11  C2  UNL     1      26.958 -11.696  47.701  1.00  0.00     0.234 C 
HETATM   12  C1  UNL     1      27.143 -13.171  47.738  1.00  0.00     0.035 C 
ENDBRANCH   9  11
BRANCH   9  13
HETATM   13  C4  UNL     1      27.466 -11.649  45.357  1.00  0.00     0.264 C 
BRANCH  13  14
HETATM   14  C5  UNL     1      27.365 -10.724  44.202  1.00  0.00     0.192 C 
BRANCH  14  15
HETATM   15  O1  UNL     1      26.288 -11.194  43.410  1.00  0.00    -0.399 OA
ATOM     16  H1  UNL     1      25.937 -10.434  42.961  1.00  0.00     0.209 HD
ENDBRANCH  14  15
ENDBRANCH  13  14
ENDBRANCH   9  13
ENDBRANCH   8   9
ENDBRANCH   5   8
ENDBRANCH   4   5
ENDBRANCH   3   4
ENDBRANCH   1   3
BRANCH   1  17
HETATM   17  C10 UNL     1      31.091  -5.206  45.265  1.00  0.00     0.065 C 
BRANCH  17  18
HETATM   18  C11 UNL     1      31.612  -5.637  43.930  1.00  0.00     0.038 C 
BRANCH  18  19
HETATM   19  C12 UNL     1      30.903  -5.100  42.741  1.00  0.00     0.251 C 
BRANCH  19  20
HETATM   20  N3  UNL     1      29.949  -5.945  42.096  1.00  0.00    -0.005 N 
HETATM   21  C13 UNL     1      29.847  -5.745  40.662  1.00  0.00     0.287 C 
HETATM   22  C14 UNL     1      30.036  -7.307  42.376  1.00  0.00     0.211 A 
HETATM   23  C15 UNL     1      28.955  -7.723  42.994  1.00  0.00     0.046 A 
HETATM   24  C16 UNL     1      28.064  -6.611  43.157  1.00  0.00     0.086 A 
HETATM   25  C17 UNL     1      28.659  -5.527  42.613  1.00  0.00     0.229 A 
HETATM   26  C19 UNL     1      26.798  -6.425  43.719  1.00  0.00     0.260 A 
HETATM   27  N4  UNL     1      28.057  -4.320  42.614  1.00  0.00    -0.331 N 
HETATM   28  C18 UNL     1      26.825  -4.188  43.173  1.00  0.00     0.185 A 
ATOM     29  H4  UNL     1      28.523  -3.512  42.200  1.00  0.00     0.168 HD
HETATM   30  N5  UNL     1      26.186  -5.228  43.727  1.00  0.00    -0.319 N 
ATOM     31  H5  UNL     1      25.261  -5.115  44.142  1.00  0.00     0.169 HD
HETATM   32  O2  UNL     1      26.241  -7.423  44.224  1.00  0.00    -0.267 OA
ENDBRANCH  19  20
ENDBRANCH  18  19
ENDBRANCH  17  18
ENDBRANCH   1  17
TORSDOF 13
ENDMDL
