MODEL 1
REMARK VINA RESULT: -7.576329639      0.000      0.000
REMARK  15 active torsions:
REMARK  status: ('A' for Active; 'I' for Inactive)
REMARK    1  A    between atoms: C2_2  and  C20_30 
REMARK    2  A    between atoms: C3_3  and  C4_4 
REMARK    3  A    between atoms: C4_4  and  C5_5 
REMARK    4  A    between atoms: C6_6  and  C8_8 
REMARK    5  A    between atoms: C8_8  and  N1_9 
REMARK    6  A    between atoms: C8_8  and  C16_23 
REMARK    7  A    between atoms: N1_9  and  C9_11 
REMARK    8  A    between atoms: C9_11  and  O1_12 
REMARK    9  A    between atoms: C9_11  and  C10_14 
REMARK   10  A    between atoms: C10_14  and  C11_15 
REMARK   11  A    between atoms: C10_14  and  N3_19 
REMARK   12  A    between atoms: C11_15  and  C12_16 
REMARK       I    between atoms: C16_23  and  N4_25 
REMARK   13  A    between atoms: N4_25  and  C17_27 
REMARK   14  A    between atoms: C20_30  and  N5_31 
REMARK   15  A    between atoms: N5_31  and  N6_33 
ROOT
HETATM    1  C8  UNL     1      26.966  -7.869  44.167  1.00  0.00     0.109 C 
ENDROOT
BRANCH   1   2
HETATM    2  C6  UNL     1      27.557  -7.595  42.841  1.00  0.00    -0.022 C 
HETATM    3  C5  UNL     1      27.086  -6.577  42.105  1.00  0.00     0.064 C 
HETATM    4  C7  UNL     1      28.606  -8.447  42.258  1.00  0.00     0.051 C 
BRANCH   3   5
HETATM    5  C4  UNL     1      27.396  -6.149  40.813  1.00  0.00    -0.127 C 
BRANCH   5   6
HETATM    6  C3  UNL     1      27.675  -5.749  39.646  1.00  0.00     0.063 C 
HETATM    7  C2  UNL     1      28.886  -5.788  38.892  1.00  0.00    -0.038 C 
HETATM    8  C1  UNL     1      30.212  -6.246  39.389  1.00  0.00     0.050 C 
BRANCH   7   9
HETATM    9  C20 UNL     1      28.886  -5.325  37.632  1.00  0.00     0.113 C 
BRANCH   9  10
HETATM   10  N5  UNL     1      28.238  -5.851  36.515  1.00  0.00    -0.318 N 
ATOM     11  H5  UNL     1      28.665  -6.682  36.106  1.00  0.00     0.185 HD
BRANCH  10  12
HETATM   12  N6  UNL     1      27.207  -5.439  35.952  1.00  0.00    -0.345 N 
ATOM     13  H62 UNL     1      27.005  -4.451  36.107  1.00  0.00     0.176 HD
ATOM     14  H61 UNL     1      26.554  -5.959  35.365  1.00  0.00     0.176 HD
ENDBRANCH  10  12
ENDBRANCH   9  10
ENDBRANCH   7   9
ENDBRANCH   5   6
ENDBRANCH   3   5
ENDBRANCH   1   2
BRANCH   1  15
HETATM   15  N1  UNL     1      27.115  -6.750  45.036  1.00  0.00    -0.331 N 
ATOM     16  H1  UNL     1      26.249  -6.307  45.344  1.00  0.00     0.168 HD
BRANCH  15  17
HETATM   17  C9  UNL     1      28.290  -6.185  45.519  1.00  0.00     0.172 C 
BRANCH  17  18
HETATM   18  O1  UNL     1      28.779  -6.704  46.619  1.00  0.00    -0.345 OA
ATOM     19  H1  UNL     1      29.630  -7.119  46.549  1.00  0.00     0.219 HD
ENDBRANCH  17  18
BRANCH  17  20
HETATM   20  C10 UNL     1      29.024  -5.061  44.952  1.00  0.00     0.171 C 
BRANCH  20  21
HETATM   21  C11 UNL     1      28.042  -4.065  44.468  1.00  0.00     0.169 C 
BRANCH  21  22
HETATM   22  C12 UNL     1      28.195  -2.658  44.800  1.00  0.00     0.236 C 
HETATM   23  N2  UNL     1      27.555  -2.126  45.999  1.00  0.00    -0.062 NA
HETATM   24  O2  UNL     1      28.843  -1.853  44.132  1.00  0.00    -0.277 OA
ENDBRANCH  21  22
ENDBRANCH  20  21
BRANCH  20  25
HETATM   25  N3  UNL     1      30.251  -5.298  44.322  1.00  0.00    -0.048 N 
HETATM   26  C13 UNL     1      30.748  -6.690  44.428  1.00  0.00     0.278 C 
HETATM   27  C14 UNL     1      30.334  -5.001  42.899  1.00  0.00     0.278 C 
HETATM   28  C15 UNL     1      31.351  -4.496  44.916  1.00  0.00     0.278 C 
ENDBRANCH  20  25
ENDBRANCH  17  20
ENDBRANCH  15  17
ENDBRANCH   1  15
BRANCH   1  29
HETATM   29  C16 UNL     1      27.020  -9.216  44.711  1.00  0.00     0.269 C 
HETATM   30  O3  UNL     1      26.365 -10.118  44.092  1.00  0.00    -0.266 OA
HETATM   31  N4  UNL     1      27.761  -9.562  45.871  1.00  0.00    -0.352 N 
ATOM     32  H4  UNL     1      28.234  -8.781  46.324  1.00  0.00     0.163 HD
BRANCH  31  33
HETATM   33  C17 UNL     1      27.951 -10.818  46.503  1.00  0.00     0.076 C 
HETATM   34  C18 UNL     1      26.788 -11.257  47.403  1.00  0.00     0.032 C 
HETATM   35  C19 UNL     1      29.203 -10.943  47.287  1.00  0.00     0.032 C 
ENDBRANCH  31  33
ENDBRANCH   1  29
TORSDOF 15
ENDMDL
MODEL 2
REMARK VINA RESULT: -7.480006803      3.317      5.143
REMARK  15 active torsions:
REMARK  status: ('A' for Active; 'I' for Inactive)
REMARK    1  A    between atoms: C2_2  and  C20_30 
REMARK    2  A    between atoms: C3_3  and  C4_4 
REMARK    3  A    between atoms: C4_4  and  C5_5 
REMARK    4  A    between atoms: C6_6  and  C8_8 
REMARK    5  A    between atoms: C8_8  and  N1_9 
REMARK    6  A    between atoms: C8_8  and  C16_23 
REMARK    7  A    between atoms: N1_9  and  C9_11 
REMARK    8  A    between atoms: C9_11  and  O1_12 
REMARK    9  A    between atoms: C9_11  and  C10_14 
REMARK   10  A    between atoms: C10_14  and  C11_15 
REMARK   11  A    between atoms: C10_14  and  N3_19 
REMARK   12  A    between atoms: C11_15  and  C12_16 
REMARK       I    between atoms: C16_23  and  N4_25 
REMARK   13  A    between atoms: N4_25  and  C17_27 
REMARK   14  A    between atoms: C20_30  and  N5_31 
REMARK   15  A    between atoms: N5_31  and  N6_33 
ROOT
HETATM    1  C8  UNL     1      29.615  -9.321  41.716  1.00  0.00     0.109 C 
ENDROOT
BRANCH   1   2
HETATM    2  C6  UNL     1      28.735  -8.267  41.170  1.00  0.00    -0.022 C 
HETATM    3  C5  UNL     1      27.821  -8.585  40.242  1.00  0.00     0.064 C 
HETATM    4  C7  UNL     1      28.870  -6.854  41.558  1.00  0.00     0.051 C 
BRANCH   3   5
HETATM    5  C4  UNL     1      26.930  -7.796  39.512  1.00  0.00    -0.127 C 
BRANCH   5   6
HETATM    6  C3  UNL     1      26.114  -7.085  38.857  1.00  0.00     0.063 C 
HETATM    7  C2  UNL     1      26.085  -5.686  38.578  1.00  0.00    -0.038 C 
HETATM    8  C1  UNL     1      27.019  -4.665  39.124  1.00  0.00     0.050 C 
BRANCH   7   9
HETATM    9  C20 UNL     1      25.105  -5.196  37.801  1.00  0.00     0.113 C 
BRANCH   9  10
HETATM   10  N5  UNL     1      24.356  -5.858  36.829  1.00  0.00    -0.318 N 
ATOM     11  H5  UNL     1      24.855  -6.572  36.297  1.00  0.00     0.185 HD
BRANCH  10  12
HETATM   12  N6  UNL     1      23.161  -5.693  36.526  1.00  0.00    -0.345 N 
ATOM     13  H62 UNL     1      22.750  -4.827  36.877  1.00  0.00     0.176 HD
ATOM     14  H61 UNL     1      22.554  -6.305  35.980  1.00  0.00     0.176 HD
ENDBRANCH  10  12
ENDBRANCH   9  10
ENDBRANCH   7   9
ENDBRANCH   5   6
ENDBRANCH   3   5
ENDBRANCH   1   2
BRANCH   1  15
HETATM   15  N1  UNL     1      30.089  -8.973  43.014  1.00  0.00    -0.331 N 
ATOM     16  H1  UNL     1      30.875  -8.324  43.043  1.00  0.00     0.168 HD
BRANCH  15  17
HETATM   17  C9  UNL     1      29.614  -9.407  44.247  1.00  0.00     0.172 C 
BRANCH  17  18
HETATM   18  O1  UNL     1      29.717 -10.690  44.495  1.00  0.00    -0.345 OA
ATOM     19  H1  UNL     1      30.342 -10.943  45.163  1.00  0.00     0.219 HD
ENDBRANCH  17  18
BRANCH  17  20
HETATM   20  C10 UNL     1      28.987  -8.596  45.284  1.00  0.00     0.171 C 
BRANCH  20  21
HETATM   21  C11 UNL     1      27.544  -8.485  44.974  1.00  0.00     0.169 C 
BRANCH  21  22
HETATM   22  C12 UNL     1      26.655  -9.615  45.193  1.00  0.00     0.236 C 
HETATM   23  N2  UNL     1      26.400 -10.553  44.104  1.00  0.00    -0.062 NA
HETATM   24  O2  UNL     1      26.083  -9.852  46.256  1.00  0.00    -0.277 OA
ENDBRANCH  21  22
ENDBRANCH  20  21
BRANCH  20  25
HETATM   25  N3  UNL     1      29.726  -7.570  45.883  1.00  0.00    -0.048 N 
HETATM   26  C13 UNL     1      31.191  -7.791  45.916  1.00  0.00     0.278 C 
HETATM   27  C14 UNL     1      29.583  -6.234  45.318  1.00  0.00     0.278 C 
HETATM   28  C15 UNL     1      29.375  -7.387  47.314  1.00  0.00     0.278 C 
ENDBRANCH  20  25
ENDBRANCH  17  20
ENDBRANCH  15  17
ENDBRANCH   1  15
BRANCH   1  29
HETATM   29  C16 UNL     1      30.469 -10.079  40.816  1.00  0.00     0.269 C 
HETATM   30  O3  UNL     1      31.615  -9.587  40.553  1.00  0.00    -0.266 OA
HETATM   31  N4  UNL     1      30.091 -11.319  40.239  1.00  0.00    -0.352 N 
ATOM     32  H4  UNL     1      29.149 -11.631  40.476  1.00  0.00     0.163 HD
BRANCH  31  33
HETATM   33  C17 UNL     1      30.809 -12.196  39.386  1.00  0.00     0.076 C 
HETATM   34  C18 UNL     1      30.155 -12.426  38.017  1.00  0.00     0.032 C 
HETATM   35  C19 UNL     1      31.120 -13.524  39.968  1.00  0.00     0.032 C 
ENDBRANCH  31  33
ENDBRANCH   1  29
TORSDOF 15
ENDMDL
MODEL 3
REMARK VINA RESULT: -7.408771752      2.609      5.581
REMARK  15 active torsions:
REMARK  status: ('A' for Active; 'I' for Inactive)
REMARK    1  A    between atoms: C2_2  and  C20_30 
REMARK    2  A    between atoms: C3_3  and  C4_4 
REMARK    3  A    between atoms: C4_4  and  C5_5 
REMARK    4  A    between atoms: C6_6  and  C8_8 
REMARK    5  A    between atoms: C8_8  and  N1_9 
REMARK    6  A    between atoms: C8_8  and  C16_23 
REMARK    7  A    between atoms: N1_9  and  C9_11 
REMARK    8  A    between atoms: C9_11  and  O1_12 
REMARK    9  A    between atoms: C9_11  and  C10_14 
REMARK   10  A    between atoms: C10_14  and  C11_15 
REMARK   11  A    between atoms: C10_14  and  N3_19 
REMARK   12  A    between atoms: C11_15  and  C12_16 
REMARK       I    between atoms: C16_23  and  N4_25 
REMARK   13  A    between atoms: N4_25  and  C17_27 
REMARK   14  A    between atoms: C20_30  and  N5_31 
REMARK   15  A    between atoms: N5_31  and  N6_33 
ROOT
HETATM    1  C8  UNL     1      28.086  -9.567  43.236  1.00  0.00     0.109 C 
ENDROOT
BRANCH   1   2
HETATM    2  C6  UNL     1      28.293  -8.190  43.731  1.00  0.00    -0.022 C 
HETATM    3  C5  UNL     1      27.296  -7.298  43.641  1.00  0.00     0.064 C 
HETATM    4  C7  UNL     1      29.587  -7.734  44.263  1.00  0.00     0.051 C 
BRANCH   3   5
HETATM    5  C4  UNL     1      27.240  -5.938  43.951  1.00  0.00    -0.127 C 
BRANCH   5   6
HETATM    6  C3  UNL     1      27.184  -4.708  44.241  1.00  0.00     0.063 C 
HETATM    7  C2  UNL     1      28.205  -3.735  44.455  1.00  0.00    -0.038 C 
HETATM    8  C1  UNL     1      29.669  -3.995  44.489  1.00  0.00     0.050 C 
BRANCH   7   9
HETATM    9  C20 UNL     1      27.853  -2.464  44.710  1.00  0.00     0.113 C 
BRANCH   9  10
HETATM   10  N5  UNL     1      26.752  -1.756  44.227  1.00  0.00    -0.318 N 
ATOM     11  H5  UNL     1      26.562  -1.860  43.230  1.00  0.00     0.185 HD
BRANCH  10  12
HETATM   12  N6  UNL     1      25.973  -1.015  44.853  1.00  0.00    -0.345 N 
ATOM     13  H62 UNL     1      26.039  -0.026  44.607  1.00  0.00     0.176 HD
ATOM     14  H61 UNL     1      25.290  -1.270  45.567  1.00  0.00     0.176 HD
ENDBRANCH  10  12
ENDBRANCH   9  10
ENDBRANCH   7   9
ENDBRANCH   5   6
ENDBRANCH   3   5
ENDBRANCH   1   2
BRANCH   1  15
HETATM   15  N1  UNL     1      27.765  -9.570  41.847  1.00  0.00    -0.331 N 
ATOM     16  H1  UNL     1      26.785  -9.736  41.617  1.00  0.00     0.168 HD
BRANCH  15  17
HETATM   17  C9  UNL     1      28.619  -9.375  40.767  1.00  0.00     0.172 C 
BRANCH  17  18
HETATM   18  O1  UNL     1      29.378 -10.389  40.433  1.00  0.00    -0.345 OA
ATOM     19  H1  UNL     1      30.242 -10.179  40.098  1.00  0.00     0.219 HD
ENDBRANCH  17  18
BRANCH  17  20
HETATM   20  C10 UNL     1      28.784  -8.157  39.984  1.00  0.00     0.171 C 
BRANCH  20  21
HETATM   21  C11 UNL     1      29.807  -7.317  40.646  1.00  0.00     0.169 C 
BRANCH  21  22
HETATM   22  C12 UNL     1      31.157  -7.244  40.112  1.00  0.00     0.236 C 
HETATM   23  N2  UNL     1      31.826  -8.464  39.673  1.00  0.00    -0.062 NA
HETATM   24  O2  UNL     1      31.802  -6.202  39.996  1.00  0.00    -0.277 OA
ENDBRANCH  21  22
ENDBRANCH  20  21
BRANCH  20  25
HETATM   25  N3  UNL     1      27.679  -7.630  39.307  1.00  0.00    -0.048 N 
HETATM   26  C13 UNL     1      26.774  -8.639  38.706  1.00  0.00     0.278 C 
HETATM   27  C14 UNL     1      26.787  -6.764  40.066  1.00  0.00     0.278 C 
HETATM   28  C15 UNL     1      28.078  -6.795  38.145  1.00  0.00     0.278 C 
ENDBRANCH  20  25
ENDBRANCH  17  20
ENDBRANCH  15  17
ENDBRANCH   1  15
BRANCH   1  29
HETATM   29  C16 UNL     1      27.496 -10.563  44.115  1.00  0.00     0.269 C 
HETATM   30  O3  UNL     1      26.279 -10.877  43.902  1.00  0.00    -0.266 OA
HETATM   31  N4  UNL     1      28.206 -11.193  45.170  1.00  0.00    -0.352 N 
ATOM     32  H4  UNL     1      29.165 -10.868  45.293  1.00  0.00     0.163 HD
BRANCH  31  33
HETATM   33  C17 UNL     1      27.800 -12.201  46.081  1.00  0.00     0.076 C 
HETATM   34  C18 UNL     1      27.126 -11.671  47.353  1.00  0.00     0.032 C 
HETATM   35  C19 UNL     1      28.869 -13.143  46.493  1.00  0.00     0.032 C 
ENDBRANCH  31  33
ENDBRANCH   1  29
TORSDOF 15
ENDMDL
MODEL 4
REMARK VINA RESULT: -7.326183211      1.590      2.077
REMARK  15 active torsions:
REMARK  status: ('A' for Active; 'I' for Inactive)
REMARK    1  A    between atoms: C2_2  and  C20_30 
REMARK    2  A    between atoms: C3_3  and  C4_4 
REMARK    3  A    between atoms: C4_4  and  C5_5 
REMARK    4  A    between atoms: C6_6  and  C8_8 
REMARK    5  A    between atoms: C8_8  and  N1_9 
REMARK    6  A    between atoms: C8_8  and  C16_23 
REMARK    7  A    between atoms: N1_9  and  C9_11 
REMARK    8  A    between atoms: C9_11  and  O1_12 
REMARK    9  A    between atoms: C9_11  and  C10_14 
REMARK   10  A    between atoms: C10_14  and  C11_15 
REMARK   11  A    between atoms: C10_14  and  N3_19 
REMARK   12  A    between atoms: C11_15  and  C12_16 
REMARK       I    between atoms: C16_23  and  N4_25 
REMARK   13  A    between atoms: N4_25  and  C17_27 
REMARK   14  A    between atoms: C20_30  and  N5_31 
REMARK   15  A    between atoms: N5_31  and  N6_33 
ROOT
HETATM    1  C8  UNL     1      27.613  -8.113  44.492  1.00  0.00     0.109 C 
ENDROOT
BRANCH   1   2
HETATM    2  C6  UNL     1      27.787  -7.829  43.052  1.00  0.00    -0.022 C 
HETATM    3  C5  UNL     1      27.126  -6.804  42.495  1.00  0.00     0.064 C 
HETATM    4  C7  UNL     1      28.613  -8.679  42.180  1.00  0.00     0.051 C 
BRANCH   3   5
HETATM    5  C4  UNL     1      27.044  -6.365  41.172  1.00  0.00    -0.127 C 
BRANCH   5   6
HETATM    6  C3  UNL     1      26.958  -5.964  39.976  1.00  0.00     0.063 C 
HETATM    7  C2  UNL     1      26.122  -6.374  38.894  1.00  0.00    -0.038 C 
HETATM    8  C1  UNL     1      25.170  -7.517  38.908  1.00  0.00     0.050 C 
BRANCH   7   9
HETATM    9  C20 UNL     1      26.213  -5.730  37.719  1.00  0.00     0.113 C 
BRANCH   9  10
HETATM   10  N5  UNL     1      25.416  -4.694  37.234  1.00  0.00    -0.318 N 
ATOM     11  H5  UNL     1      25.913  -3.850  36.948  1.00  0.00     0.185 HD
BRANCH  10  12
HETATM   12  N6  UNL     1      24.179  -4.663  37.105  1.00  0.00    -0.345 N 
ATOM     13  H62 UNL     1      23.721  -5.571  37.188  1.00  0.00     0.176 HD
ATOM     14  H61 UNL     1      23.579  -3.857  36.930  1.00  0.00     0.176 HD
ENDBRANCH  10  12
ENDBRANCH   9  10
ENDBRANCH   7   9
ENDBRANCH   5   6
ENDBRANCH   3   5
ENDBRANCH   1   2
BRANCH   1  15
HETATM   15  N1  UNL     1      27.539  -6.907  45.247  1.00  0.00    -0.331 N 
ATOM     16  H1  UNL     1      26.600  -6.584  45.481  1.00  0.00     0.168 HD
BRANCH  15  17
HETATM   17  C9  UNL     1      28.586  -6.114  45.705  1.00  0.00     0.172 C 
BRANCH  17  18
HETATM   18  O1  UNL     1      29.096  -6.436  46.869  1.00  0.00    -0.345 OA
ATOM     19  H1  UNL     1      28.628  -6.129  47.636  1.00  0.00     0.219 HD
ENDBRANCH  17  18
BRANCH  17  20
HETATM   20  C10 UNL     1      29.159  -4.946  45.049  1.00  0.00     0.171 C 
BRANCH  20  21
HETATM   21  C11 UNL     1      28.049  -4.058  44.635  1.00  0.00     0.169 C 
BRANCH  21  22
HETATM   22  C12 UNL     1      28.036  -2.660  45.037  1.00  0.00     0.236 C 
HETATM   23  N2  UNL     1      28.569  -1.646  44.133  1.00  0.00    -0.062 NA
HETATM   24  O2  UNL     1      27.596  -2.251  46.110  1.00  0.00    -0.277 OA
ENDBRANCH  21  22
ENDBRANCH  20  21
BRANCH  20  25
HETATM   25  N3  UNL     1      30.341  -5.092  44.314  1.00  0.00    -0.048 N 
HETATM   26  C13 UNL     1      31.467  -4.242  44.767  1.00  0.00     0.278 C 
HETATM   27  C14 UNL     1      30.915  -6.429  44.241  1.00  0.00     0.278 C 
HETATM   28  C15 UNL     1      30.169  -4.703  42.891  1.00  0.00     0.278 C 
ENDBRANCH  20  25
ENDBRANCH  17  20
ENDBRANCH  15  17
ENDBRANCH   1  15
BRANCH   1  29
HETATM   29  C16 UNL     1      28.238  -9.290  45.071  1.00  0.00     0.269 C 
HETATM   30  O3  UNL     1      29.470  -9.196  45.388  1.00  0.00    -0.266 OA
HETATM   31  N4  UNL     1      27.548 -10.508  45.302  1.00  0.00    -0.352 N 
ATOM     32  H4  UNL     1      26.575 -10.512  44.997  1.00  0.00     0.163 HD
BRANCH  31  33
HETATM   33  C17 UNL     1      27.991 -11.722  45.888  1.00  0.00     0.076 C 
HETATM   34  C18 UNL     1      28.048 -12.910  44.919  1.00  0.00     0.032 C 
HETATM   35  C19 UNL     1      27.233 -12.152  47.089  1.00  0.00     0.032 C 
ENDBRANCH  31  33
ENDBRANCH   1  29
TORSDOF 15
ENDMDL
MODEL 5
REMARK VINA RESULT: -7.292431037      1.306      1.712
REMARK  15 active torsions:
REMARK  status: ('A' for Active; 'I' for Inactive)
REMARK    1  A    between atoms: C2_2  and  C20_30 
REMARK    2  A    between atoms: C3_3  and  C4_4 
REMARK    3  A    between atoms: C4_4  and  C5_5 
REMARK    4  A    between atoms: C6_6  and  C8_8 
REMARK    5  A    between atoms: C8_8  and  N1_9 
REMARK    6  A    between atoms: C8_8  and  C16_23 
REMARK    7  A    between atoms: N1_9  and  C9_11 
REMARK    8  A    between atoms: C9_11  and  O1_12 
REMARK    9  A    between atoms: C9_11  and  C10_14 
REMARK   10  A    between atoms: C10_14  and  C11_15 
REMARK   11  A    between atoms: C10_14  and  N3_19 
REMARK   12  A    between atoms: C11_15  and  C12_16 
REMARK       I    between atoms: C16_23  and  N4_25 
REMARK   13  A    between atoms: N4_25  and  C17_27 
REMARK   14  A    between atoms: C20_30  and  N5_31 
REMARK   15  A    between atoms: N5_31  and  N6_33 
ROOT
HETATM    1  C8  UNL     1      27.605  -8.348  44.518  1.00  0.00     0.109 C 
ENDROOT
BRANCH   1   2
HETATM    2  C6  UNL     1      27.872  -8.256  43.068  1.00  0.00    -0.022 C 
HETATM    3  C5  UNL     1      27.389  -7.217  42.371  1.00  0.00     0.064 C 
HETATM    4  C7  UNL     1      28.595  -9.308  42.336  1.00  0.00     0.051 C 
BRANCH   3   5
HETATM    5  C4  UNL     1      27.420  -6.923  41.007  1.00  0.00    -0.127 C 
BRANCH   5   6
HETATM    6  C3  UNL     1      27.452  -6.667  39.768  1.00  0.00     0.063 C 
HETATM    7  C2  UNL     1      26.454  -6.765  38.753  1.00  0.00    -0.038 C 
HETATM    8  C1  UNL     1      25.088  -7.329  38.920  1.00  0.00     0.050 C 
BRANCH   7   9
HETATM    9  C20 UNL     1      26.755  -6.375  37.503  1.00  0.00     0.113 C 
BRANCH   9  10
HETATM   10  N5  UNL     1      25.978  -6.484  36.350  1.00  0.00    -0.318 N 
ATOM     11  H5  UNL     1      25.285  -5.748  36.212  1.00  0.00     0.185 HD
BRANCH  10  12
HETATM   12  N6  UNL     1      26.019  -7.362  35.469  1.00  0.00    -0.345 N 
ATOM     13  H62 UNL     1      26.104  -8.315  35.823  1.00  0.00     0.176 HD
ATOM     14  H61 UNL     1      25.978  -7.246  34.456  1.00  0.00     0.176 HD
ENDBRANCH  10  12
ENDBRANCH   9  10
ENDBRANCH   7   9
ENDBRANCH   5   6
ENDBRANCH   3   5
ENDBRANCH   1   2
BRANCH   1  15
HETATM   15  N1  UNL     1      27.492  -7.053  45.103  1.00  0.00    -0.331 N 
ATOM     16  H1  UNL     1      26.550  -6.665  45.148  1.00  0.00     0.168 HD
BRANCH  15  17
HETATM   17  C9  UNL     1      28.504  -6.252  45.619  1.00  0.00     0.172 C 
BRANCH  17  18
HETATM   18  O1  UNL     1      28.937  -6.557  46.818  1.00  0.00    -0.345 OA
ATOM     19  H1  UNL     1      29.580  -5.971  47.198  1.00  0.00     0.219 HD
ENDBRANCH  17  18
BRANCH  17  20
HETATM   20  C10 UNL     1      29.118  -5.090  44.986  1.00  0.00     0.171 C 
BRANCH  20  21
HETATM   21  C11 UNL     1      28.038  -4.162  44.581  1.00  0.00     0.169 C 
BRANCH  21  22
HETATM   22  C12 UNL     1      28.162  -2.735  44.831  1.00  0.00     0.236 C 
HETATM   23  N2  UNL     1      27.505  -2.147  45.994  1.00  0.00    -0.062 NA
HETATM   24  O2  UNL     1      28.798  -1.958  44.119  1.00  0.00    -0.277 OA
ENDBRANCH  21  22
ENDBRANCH  20  21
BRANCH  20  25
HETATM   25  N3  UNL     1      30.300  -5.259  44.257  1.00  0.00    -0.048 N 
HETATM   26  C13 UNL     1      30.902  -6.610  44.348  1.00  0.00     0.278 C 
HETATM   27  C14 UNL     1      30.239  -4.996  42.826  1.00  0.00     0.278 C 
HETATM   28  C15 UNL     1      31.386  -4.367  44.736  1.00  0.00     0.278 C 
ENDBRANCH  20  25
ENDBRANCH  17  20
ENDBRANCH  15  17
ENDBRANCH   1  15
BRANCH   1  29
HETATM   29  C16 UNL     1      28.186  -9.437  45.286  1.00  0.00     0.269 C 
HETATM   30  O3  UNL     1      29.421  -9.342  45.586  1.00  0.00    -0.266 OA
HETATM   31  N4  UNL     1      27.448 -10.572  45.713  1.00  0.00    -0.352 N 
ATOM     32  H4  UNL     1      26.474 -10.587  45.410  1.00  0.00     0.163 HD
BRANCH  31  33
HETATM   33  C17 UNL     1      27.844 -11.689  46.493  1.00  0.00     0.076 C 
HETATM   34  C18 UNL     1      27.967 -13.000  45.705  1.00  0.00     0.032 C 
HETATM   35  C19 UNL     1      27.001 -11.953  47.684  1.00  0.00     0.032 C 
ENDBRANCH  31  33
ENDBRANCH   1  29
TORSDOF 15
ENDMDL
