MODEL 1
REMARK VINA RESULT: -7.406725849      0.000      0.000
REMARK  12 active torsions:
REMARK  status: ('A' for Active; 'I' for Inactive)
REMARK    1  A    between atoms: C2_2  and  C3_3 
REMARK    2  A    between atoms: C3_3  and  C4_4 
REMARK    3  A    between atoms: C4_4  and  C5_5 
REMARK    4  A    between atoms: C5_5  and  C6_6 
REMARK    5  A    between atoms: C6_6  and  C7_7 
REMARK    6  A    between atoms: C7_7  and  N1_8 
REMARK       I    between atoms: C8_10  and  N3_12 
REMARK    7  A    between atoms: N3_12  and  C9_14 
REMARK    8  A    between atoms: C9_14  and  C10_15 
REMARK    9  A    between atoms: C10_15  and  N4_16 
REMARK   10  A    between atoms: N4_16  and  C13_19 
REMARK   11  A    between atoms: C13_19  and  C14_20 
REMARK   12  A    between atoms: C19_30  and  N8_31 
ROOT
HETATM    1  C9  UNL     1      29.291  -6.568  39.138  1.00  0.00     0.108 C 
HETATM    2  C15 UNL     1      30.820  -6.931  38.965  1.00  0.00     0.065 C 
HETATM    3  C16 UNL     1      30.667  -8.156  38.084  1.00  0.00     0.242 C 
HETATM    4  N7  UNL     1      29.533  -8.879  38.579  1.00  0.00    -0.048 N 
HETATM    5  C17 UNL     1      28.708  -9.451  37.575  1.00  0.00     0.274 C 
HETATM    6  C18 UNL     1      30.057 -10.025  39.347  1.00  0.00     0.274 C 
HETATM    7  C19 UNL     1      28.871  -7.940  39.468  1.00  0.00     0.361 C 
ENDROOT
BRANCH   1   8
HETATM    8  N3  UNL     1      29.366  -5.668  40.270  1.00  0.00    -0.350 N 
HETATM    9  C8  UNL     1      29.257  -6.000  41.629  1.00  0.00     0.184 C 
HETATM   10  N1  UNL     1      30.327  -6.172  42.320  1.00  0.00    -0.365 N 
HETATM   11  N2  UNL     1      28.016  -6.146  42.285  1.00  0.00    -0.064 NA
ATOM     12  H1  UNL     1      31.230  -6.070  41.858  1.00  0.00     0.162 HD
ATOM     13  H3  UNL     1      29.515  -4.682  40.056  1.00  0.00     0.163 HD
BRANCH  10  14
HETATM   14  C7  UNL     1      30.301  -6.504  43.730  1.00  0.00     0.122 C 
BRANCH  14  15
HETATM   15  C6  UNL     1      30.705  -5.338  44.591  1.00  0.00     0.020 C 
BRANCH  15  16
HETATM   16  C5  UNL     1      31.692  -5.701  45.661  1.00  0.00     0.002 C 
BRANCH  16  17
HETATM   17  C4  UNL     1      31.268  -6.936  46.389  1.00  0.00     0.000 C 
BRANCH  17  18
HETATM   18  C3  UNL     1      30.060  -6.657  47.273  1.00  0.00    -0.000 C 
BRANCH  18  19
HETATM   19  C2  UNL     1      28.991  -7.712  47.112  1.00  0.00    -0.005 C 
HETATM   20  C1  UNL     1      29.518  -8.970  46.501  1.00  0.00     0.005 C 
ENDBRANCH  18  19
ENDBRANCH  17  18
ENDBRANCH  16  17
ENDBRANCH  15  16
ENDBRANCH  14  15
ENDBRANCH  10  14
ENDBRANCH   1   8
BRANCH   1  21
HETATM   21  C10 UNL     1      28.976  -5.940  37.866  1.00  0.00     0.272 C 
BRANCH  21  22
HETATM   22  N4  UNL     1      27.782  -5.259  37.569  1.00  0.00    -0.066 N 
HETATM   23  C11 UNL     1      27.097  -4.566  38.600  1.00  0.00     0.272 C 
HETATM   24  C12 UNL     1      28.120  -4.199  36.583  1.00  0.00     0.272 C 
BRANCH  22  25
HETATM   25  C13 UNL     1      26.820  -6.086  36.838  1.00  0.00     0.308 C 
BRANCH  25  26
HETATM   26  C14 UNL     1      25.418  -5.917  37.242  1.00  0.00     0.113 C 
HETATM   27  N5  UNL     1      24.758  -4.836  36.892  1.00  0.00    -0.390 N 
ATOM     28  H52 UNL     1      25.299  -4.173  36.337  1.00  0.00     0.157 HD
ATOM     29  H51 UNL     1      23.785  -4.718  37.173  1.00  0.00     0.157 HD
HETATM   30  N6  UNL     1      24.664  -6.841  38.016  1.00  0.00    -0.086 NA
ENDBRANCH  25  26
ENDBRANCH  22  25
ENDBRANCH  21  22
ENDBRANCH   1  21
BRANCH   7  31
HETATM   31  N8  UNL     1      27.510  -8.232  39.688  1.00  0.00    -0.168 N 
HETATM   32  N9  UNL     1      26.420  -7.779  40.182  1.00  0.00    -0.207 N 
HETATM   33  N10 UNL     1      26.314  -8.951  39.668  1.00  0.00    -0.207 N 
ATOM     34  H9  UNL     1      25.953  -7.009  40.660  1.00  0.00     0.211 HD
ATOM     35  H10 UNL     1      25.769  -9.779  39.426  1.00  0.00     0.211 HD
ENDBRANCH   7  31
TORSDOF 12
ENDMDL
MODEL 2
REMARK VINA RESULT: -7.400658695      1.756      3.335
REMARK  12 active torsions:
REMARK  status: ('A' for Active; 'I' for Inactive)
REMARK    1  A    between atoms: C2_2  and  C3_3 
REMARK    2  A    between atoms: C3_3  and  C4_4 
REMARK    3  A    between atoms: C4_4  and  C5_5 
REMARK    4  A    between atoms: C5_5  and  C6_6 
REMARK    5  A    between atoms: C6_6  and  C7_7 
REMARK    6  A    between atoms: C7_7  and  N1_8 
REMARK       I    between atoms: C8_10  and  N3_12 
REMARK    7  A    between atoms: N3_12  and  C9_14 
REMARK    8  A    between atoms: C9_14  and  C10_15 
REMARK    9  A    between atoms: C10_15  and  N4_16 
REMARK   10  A    between atoms: N4_16  and  C13_19 
REMARK   11  A    between atoms: C13_19  and  C14_20 
REMARK   12  A    between atoms: C19_30  and  N8_31 
ROOT
HETATM    1  C9  UNL     1      28.106  -7.835  40.216  1.00  0.00     0.108 C 
HETATM    2  C15 UNL     1      28.715  -6.939  41.367  1.00  0.00     0.065 C 
HETATM    3  C16 UNL     1      29.439  -5.920  40.508  1.00  0.00     0.242 C 
HETATM    4  N7  UNL     1      30.015  -6.641  39.412  1.00  0.00    -0.048 N 
HETATM    5  C17 UNL     1      29.952  -5.972  38.162  1.00  0.00     0.274 C 
HETATM    6  C18 UNL     1      31.455  -6.783  39.703  1.00  0.00     0.274 C 
HETATM    7  C19 UNL     1      29.363  -7.939  39.458  1.00  0.00     0.361 C 
ENDROOT
BRANCH   1   8
HETATM    8  N3  UNL     1      27.752  -9.019  40.970  1.00  0.00    -0.350 N 
HETATM    9  C8  UNL     1      28.203  -9.379  42.248  1.00  0.00     0.184 C 
HETATM   10  N1  UNL     1      27.472  -9.108  43.270  1.00  0.00    -0.365 N 
HETATM   11  N2  UNL     1      29.429 -10.042  42.470  1.00  0.00    -0.064 NA
ATOM     12  H1  UNL     1      26.584  -8.628  43.124  1.00  0.00     0.162 HD
ATOM     13  H3  UNL     1      27.101  -9.664  40.521  1.00  0.00     0.163 HD
BRANCH  10  14
HETATM   14  C7  UNL     1      27.860  -9.457  44.622  1.00  0.00     0.122 C 
BRANCH  14  15
HETATM   15  C6  UNL     1      27.724  -8.292  45.565  1.00  0.00     0.020 C 
BRANCH  15  16
HETATM   16  C5  UNL     1      28.926  -8.091  46.441  1.00  0.00     0.002 C 
BRANCH  16  17
HETATM   17  C4  UNL     1      30.087  -8.899  45.956  1.00  0.00     0.000 C 
BRANCH  17  18
HETATM   18  C3  UNL     1      31.286  -8.008  45.666  1.00  0.00    -0.000 C 
BRANCH  18  19
HETATM   19  C2  UNL     1      31.220  -6.711  46.435  1.00  0.00    -0.005 C 
HETATM   20  C1  UNL     1      31.643  -5.537  45.613  1.00  0.00     0.005 C 
ENDBRANCH  18  19
ENDBRANCH  17  18
ENDBRANCH  16  17
ENDBRANCH  15  16
ENDBRANCH  14  15
ENDBRANCH  10  14
ENDBRANCH   1   8
BRANCH   1  21
HETATM   21  C10 UNL     1      26.984  -7.031  39.760  1.00  0.00     0.272 C 
BRANCH  21  22
HETATM   22  N4  UNL     1      26.147  -7.345  38.675  1.00  0.00    -0.066 N 
HETATM   23  C11 UNL     1      25.971  -8.702  38.297  1.00  0.00     0.272 C 
HETATM   24  C12 UNL     1      24.778  -6.891  39.036  1.00  0.00     0.272 C 
BRANCH  22  25
HETATM   25  C13 UNL     1      26.444  -6.558  37.477  1.00  0.00     0.308 C 
BRANCH  25  26
HETATM   26  C14 UNL     1      26.214  -5.114  37.606  1.00  0.00     0.113 C 
HETATM   27  N5  UNL     1      25.298  -4.524  36.871  1.00  0.00    -0.390 N 
ATOM     28  H52 UNL     1      24.794  -5.151  36.243  1.00  0.00     0.157 HD
ATOM     29  H51 UNL     1      25.138  -3.521  36.960  1.00  0.00     0.157 HD
HETATM   30  N6  UNL     1      26.915  -4.240  38.481  1.00  0.00    -0.086 NA
ENDBRANCH  25  26
ENDBRANCH  22  25
ENDBRANCH  21  22
ENDBRANCH   1  21
BRANCH   7  31
HETATM   31  N8  UNL     1      29.397  -8.632  38.230  1.00  0.00    -0.168 N 
HETATM   32  N9  UNL     1      30.137  -9.335  37.459  1.00  0.00    -0.207 N 
HETATM   33  N10 UNL     1      28.949  -9.140  37.011  1.00  0.00    -0.207 N 
ATOM     34  H9  UNL     1      31.050  -9.761  37.304  1.00  0.00     0.211 HD
ATOM     35  H10 UNL     1      28.226  -9.264  36.302  1.00  0.00     0.211 HD
ENDBRANCH   7  31
TORSDOF 12
ENDMDL
MODEL 3
REMARK VINA RESULT: -7.345487008      0.890      1.685
REMARK  12 active torsions:
REMARK  status: ('A' for Active; 'I' for Inactive)
REMARK    1  A    between atoms: C2_2  and  C3_3 
REMARK    2  A    between atoms: C3_3  and  C4_4 
REMARK    3  A    between atoms: C4_4  and  C5_5 
REMARK    4  A    between atoms: C5_5  and  C6_6 
REMARK    5  A    between atoms: C6_6  and  C7_7 
REMARK    6  A    between atoms: C7_7  and  N1_8 
REMARK       I    between atoms: C8_10  and  N3_12 
REMARK    7  A    between atoms: N3_12  and  C9_14 
REMARK    8  A    between atoms: C9_14  and  C10_15 
REMARK    9  A    between atoms: C10_15  and  N4_16 
REMARK   10  A    between atoms: N4_16  and  C13_19 
REMARK   11  A    between atoms: C13_19  and  C14_20 
REMARK   12  A    between atoms: C19_30  and  N8_31 
ROOT
HETATM    1  C9  UNL     1      29.058  -7.007  39.166  1.00  0.00     0.108 C 
HETATM    2  C15 UNL     1      30.612  -7.250  39.312  1.00  0.00     0.065 C 
HETATM    3  C16 UNL     1      30.776  -8.330  38.260  1.00  0.00     0.242 C 
HETATM    4  N7  UNL     1      29.631  -9.185  38.367  1.00  0.00    -0.048 N 
HETATM    5  C17 UNL     1      29.111  -9.640  37.127  1.00  0.00     0.274 C 
HETATM    6  C18 UNL     1      30.071 -10.405  39.072  1.00  0.00     0.274 C 
HETATM    7  C19 UNL     1      28.702  -8.435  39.194  1.00  0.00     0.361 C 
ENDROOT
BRANCH   1   8
HETATM    8  N3  UNL     1      28.791  -6.291  40.396  1.00  0.00    -0.350 N 
HETATM    9  C8  UNL     1      28.334  -6.827  41.610  1.00  0.00     0.184 C 
HETATM   10  N1  UNL     1      29.185  -7.106  42.532  1.00  0.00    -0.365 N 
HETATM   11  N2  UNL     1      26.969  -7.067  41.875  1.00  0.00    -0.064 NA
ATOM     12  H1  UNL     1      30.175  -6.938  42.352  1.00  0.00     0.162 HD
ATOM     13  H3  UNL     1      28.955  -5.284  40.379  1.00  0.00     0.163 HD
BRANCH  10  14
HETATM   14  C7  UNL     1      28.794  -7.651  43.816  1.00  0.00     0.122 C 
BRANCH  14  15
HETATM   15  C6  UNL     1      29.737  -8.727  44.282  1.00  0.00     0.020 C 
BRANCH  15  16
HETATM   16  C5  UNL     1      30.127  -8.594  45.725  1.00  0.00     0.002 C 
BRANCH  16  17
HETATM   17  C4  UNL     1      31.433  -7.879  45.866  1.00  0.00     0.000 C 
BRANCH  17  18
HETATM   18  C3  UNL     1      31.224  -6.467  46.395  1.00  0.00    -0.000 C 
BRANCH  18  19
HETATM   19  C2  UNL     1      31.805  -5.429  45.465  1.00  0.00    -0.005 C 
HETATM   20  C1  UNL     1      30.751  -4.627  44.774  1.00  0.00     0.005 C 
ENDBRANCH  18  19
ENDBRANCH  17  18
ENDBRANCH  16  17
ENDBRANCH  15  16
ENDBRANCH  14  15
ENDBRANCH  10  14
ENDBRANCH   1   8
BRANCH   1  21
HETATM   21  C10 UNL     1      28.982  -6.207  37.954  1.00  0.00     0.272 C 
BRANCH  21  22
HETATM   22  N4  UNL     1      27.899  -5.391  37.586  1.00  0.00    -0.066 N 
HETATM   23  C11 UNL     1      27.261  -4.588  38.567  1.00  0.00     0.272 C 
HETATM   24  C12 UNL     1      28.413  -4.409  36.595  1.00  0.00     0.272 C 
BRANCH  22  25
HETATM   25  C13 UNL     1      26.874  -6.109  36.828  1.00  0.00     0.308 C 
BRANCH  25  26
HETATM   26  C14 UNL     1      25.492  -5.873  37.266  1.00  0.00     0.113 C 
HETATM   27  N5  UNL     1      24.866  -4.775  36.907  1.00  0.00    -0.390 N 
ATOM     28  H52 UNL     1      25.417  -4.149  36.319  1.00  0.00     0.157 HD
ATOM     29  H51 UNL     1      23.907  -4.610  37.212  1.00  0.00     0.157 HD
HETATM   30  N6  UNL     1      24.725  -6.745  38.085  1.00  0.00    -0.086 NA
ENDBRANCH  25  26
ENDBRANCH  22  25
ENDBRANCH  21  22
ENDBRANCH   1  21
BRANCH   7  31
HETATM   31  N8  UNL     1      27.359  -8.836  39.042  1.00  0.00    -0.168 N 
HETATM   32  N9  UNL     1      26.241  -8.962  39.651  1.00  0.00    -0.207 N 
HETATM   33  N10 UNL     1      26.208  -9.318  38.418  1.00  0.00    -0.207 N 
ATOM     34  H9  UNL     1      25.725  -8.854  40.525  1.00  0.00     0.211 HD
ATOM     35  H10 UNL     1      25.715  -9.679  37.602  1.00  0.00     0.211 HD
ENDBRANCH   7  31
TORSDOF 12
ENDMDL
MODEL 4
REMARK VINA RESULT: -7.325427698      1.219      1.591
REMARK  12 active torsions:
REMARK  status: ('A' for Active; 'I' for Inactive)
REMARK    1  A    between atoms: C2_2  and  C3_3 
REMARK    2  A    between atoms: C3_3  and  C4_4 
REMARK    3  A    between atoms: C4_4  and  C5_5 
REMARK    4  A    between atoms: C5_5  and  C6_6 
REMARK    5  A    between atoms: C6_6  and  C7_7 
REMARK    6  A    between atoms: C7_7  and  N1_8 
REMARK       I    between atoms: C8_10  and  N3_12 
REMARK    7  A    between atoms: N3_12  and  C9_14 
REMARK    8  A    between atoms: C9_14  and  C10_15 
REMARK    9  A    between atoms: C10_15  and  N4_16 
REMARK   10  A    between atoms: N4_16  and  C13_19 
REMARK   11  A    between atoms: C13_19  and  C14_20 
REMARK   12  A    between atoms: C19_30  and  N8_31 
ROOT
HETATM    1  C9  UNL     1      28.939  -6.749  39.650  1.00  0.00     0.108 C 
HETATM    2  C15 UNL     1      30.382  -6.338  39.151  1.00  0.00     0.065 C 
HETATM    3  C16 UNL     1      30.807  -7.666  38.555  1.00  0.00     0.242 C 
HETATM    4  N7  UNL     1      30.324  -8.686  39.437  1.00  0.00    -0.048 N 
HETATM    5  C17 UNL     1      29.820  -9.844  38.789  1.00  0.00     0.274 C 
HETATM    6  C18 UNL     1      31.481  -9.156  40.223  1.00  0.00     0.274 C 
HETATM    7  C19 UNL     1      29.380  -7.995  40.299  1.00  0.00     0.361 C 
ENDROOT
BRANCH   1   8
HETATM    8  N3  UNL     1      28.659  -5.658  40.559  1.00  0.00    -0.350 N 
HETATM    9  C8  UNL     1      28.531  -5.725  41.954  1.00  0.00     0.184 C 
HETATM   10  N1  UNL     1      29.542  -5.431  42.691  1.00  0.00    -0.365 N 
HETATM   11  N2  UNL     1      27.330  -6.094  42.596  1.00  0.00    -0.064 NA
ATOM     12  H1  UNL     1      30.417  -5.164  42.239  1.00  0.00     0.162 HD
ATOM     13  H3  UNL     1      28.542  -4.736  40.137  1.00  0.00     0.163 HD
BRANCH  10  14
HETATM   14  C7  UNL     1      29.489  -5.464  44.139  1.00  0.00     0.122 C 
BRANCH  14  15
HETATM   15  C6  UNL     1      30.595  -4.654  44.761  1.00  0.00     0.020 C 
BRANCH  15  16
HETATM   16  C5  UNL     1      31.701  -5.494  45.330  1.00  0.00     0.002 C 
BRANCH  16  17
HETATM   17  C4  UNL     1      31.178  -6.455  46.349  1.00  0.00     0.000 C 
BRANCH  17  18
HETATM   18  C3  UNL     1      31.355  -7.893  45.881  1.00  0.00    -0.000 C 
BRANCH  18  19
HETATM   19  C2  UNL     1      30.087  -8.697  46.047  1.00  0.00    -0.005 C 
HETATM   20  C1  UNL     1      29.108  -8.037  46.961  1.00  0.00     0.005 C 
ENDBRANCH  18  19
ENDBRANCH  17  18
ENDBRANCH  16  17
ENDBRANCH  15  16
ENDBRANCH  14  15
ENDBRANCH  10  14
ENDBRANCH   1   8
BRANCH   1  21
HETATM   21  C10 UNL     1      28.171  -6.742  38.415  1.00  0.00     0.272 C 
BRANCH  21  22
HETATM   22  N4  UNL     1      27.035  -5.951  38.170  1.00  0.00    -0.066 N 
HETATM   23  C11 UNL     1      27.193  -4.573  37.871  1.00  0.00     0.272 C 
HETATM   24  C12 UNL     1      26.371  -6.508  36.963  1.00  0.00     0.272 C 
BRANCH  22  25
HETATM   25  C13 UNL     1      26.007  -6.094  39.201  1.00  0.00     0.308 C 
BRANCH  25  26
HETATM   26  C14 UNL     1      24.972  -7.096  38.915  1.00  0.00     0.113 C 
HETATM   27  N5  UNL     1      23.762  -6.715  38.571  1.00  0.00    -0.390 N 
ATOM     28  H52 UNL     1      23.637  -5.704  38.524  1.00  0.00     0.157 HD
ATOM     29  H51 UNL     1      23.044  -7.411  38.373  1.00  0.00     0.157 HD
HETATM   30  N6  UNL     1      25.146  -8.506  38.981  1.00  0.00    -0.086 NA
ENDBRANCH  25  26
ENDBRANCH  22  25
ENDBRANCH  21  22
ENDBRANCH   1  21
BRANCH   7  31
HETATM   31  N8  UNL     1      28.438  -8.850  40.907  1.00  0.00    -0.168 N 
HETATM   32  N9  UNL     1      27.196  -9.146  40.966  1.00  0.00    -0.207 N 
HETATM   33  N10 UNL     1      27.941  -9.862  41.729  1.00  0.00    -0.207 N 
ATOM     34  H9  UNL     1      26.252  -8.948  40.634  1.00  0.00     0.211 HD
ATOM     35  H10 UNL     1      28.070 -10.606  42.414  1.00  0.00     0.211 HD
ENDBRANCH   7  31
TORSDOF 12
ENDMDL
MODEL 5
REMARK VINA RESULT: -7.319095380      4.107      7.970
REMARK  12 active torsions:
REMARK  status: ('A' for Active; 'I' for Inactive)
REMARK    1  A    between atoms: C2_2  and  C3_3 
REMARK    2  A    between atoms: C3_3  and  C4_4 
REMARK    3  A    between atoms: C4_4  and  C5_5 
REMARK    4  A    between atoms: C5_5  and  C6_6 
REMARK    5  A    between atoms: C6_6  and  C7_7 
REMARK    6  A    between atoms: C7_7  and  N1_8 
REMARK       I    between atoms: C8_10  and  N3_12 
REMARK    7  A    between atoms: N3_12  and  C9_14 
REMARK    8  A    between atoms: C9_14  and  C10_15 
REMARK    9  A    between atoms: C10_15  and  N4_16 
REMARK   10  A    between atoms: N4_16  and  C13_19 
REMARK   11  A    between atoms: C13_19  and  C14_20 
REMARK   12  A    between atoms: C19_30  and  N8_31 
ROOT
HETATM    1  C9  UNL     1      28.032  -9.104  43.693  1.00  0.00     0.108 C 
HETATM    2  C15 UNL     1      27.022 -10.310  43.853  1.00  0.00     0.065 C 
HETATM    3  C16 UNL     1      26.986 -10.380  45.368  1.00  0.00     0.242 C 
HETATM    4  N7  UNL     1      28.325 -10.150  45.823  1.00  0.00    -0.048 N 
HETATM    5  C17 UNL     1      28.427  -9.350  46.991  1.00  0.00     0.274 C 
HETATM    6  C18 UNL     1      28.880 -11.463  46.203  1.00  0.00     0.274 C 
HETATM    7  C19 UNL     1      29.015  -9.633  44.653  1.00  0.00     0.361 C 
ENDROOT
BRANCH   1   8
HETATM    8  N3  UNL     1      28.400  -9.259  42.301  1.00  0.00    -0.350 N 
HETATM    9  C8  UNL     1      29.631  -9.698  41.791  1.00  0.00     0.184 C 
HETATM   10  N1  UNL     1      29.766 -10.931  41.455  1.00  0.00    -0.365 N 
HETATM   11  N2  UNL     1      30.738  -8.840  41.616  1.00  0.00    -0.064 NA
ATOM     12  H1  UNL     1      28.974 -11.562  41.577  1.00  0.00     0.162 HD
ATOM     13  H3  UNL     1      27.684  -9.022  41.614  1.00  0.00     0.163 HD
BRANCH  10  14
HETATM   14  C7  UNL     1      30.999 -11.462  40.909  1.00  0.00     0.122 C 
BRANCH  14  15
HETATM   15  C6  UNL     1      30.761 -12.275  39.665  1.00  0.00     0.020 C 
BRANCH  15  16
HETATM   16  C5  UNL     1      30.358 -11.447  38.480  1.00  0.00     0.002 C 
BRANCH  16  17
HETATM   17  C4  UNL     1      30.038 -12.311  37.303  1.00  0.00     0.000 C 
BRANCH  17  18
HETATM   18  C3  UNL     1      31.172 -12.289  36.288  1.00  0.00    -0.000 C 
BRANCH  18  19
HETATM   19  C2  UNL     1      31.328 -10.929  35.652  1.00  0.00    -0.005 C 
HETATM   20  C1  UNL     1      32.298 -10.938  34.516  1.00  0.00     0.005 C 
ENDBRANCH  18  19
ENDBRANCH  17  18
ENDBRANCH  16  17
ENDBRANCH  15  16
ENDBRANCH  14  15
ENDBRANCH  10  14
ENDBRANCH   1   8
BRANCH   1  21
HETATM   21  C10 UNL     1      27.192  -7.955  43.989  1.00  0.00     0.272 C 
BRANCH  21  22
HETATM   22  N4  UNL     1      27.622  -6.617  44.005  1.00  0.00    -0.066 N 
HETATM   23  C11 UNL     1      28.585  -6.179  43.059  1.00  0.00     0.272 C 
HETATM   24  C12 UNL     1      26.430  -5.774  43.725  1.00  0.00     0.272 C 
BRANCH  22  25
HETATM   25  C13 UNL     1      28.032  -6.165  45.336  1.00  0.00     0.308 C 
BRANCH  25  26
HETATM   26  C14 UNL     1      29.027  -5.085  45.348  1.00  0.00     0.113 C 
HETATM   27  N5  UNL     1      28.637  -3.830  45.327  1.00  0.00    -0.390 N 
ATOM     28  H52 UNL     1      27.625  -3.703  45.308  1.00  0.00     0.157 HD
ATOM     29  H51 UNL     1      29.328  -3.080  45.336  1.00  0.00     0.157 HD
HETATM   30  N6  UNL     1      30.437  -5.261  45.376  1.00  0.00    -0.086 NA
ENDBRANCH  25  26
ENDBRANCH  22  25
ENDBRANCH  21  22
ENDBRANCH   1  21
BRANCH   7  31
HETATM   31  N8  UNL     1      30.176  -8.895  44.961  1.00  0.00    -0.168 N 
HETATM   32  N9  UNL     1      31.071  -8.122  44.473  1.00  0.00    -0.207 N 
HETATM   33  N10 UNL     1      31.217  -8.368  45.725  1.00  0.00    -0.207 N 
ATOM     34  H9  UNL     1      31.427  -7.639  43.649  1.00  0.00     0.211 HD
ATOM     35  H10 UNL     1      31.716  -8.259  46.608  1.00  0.00     0.211 HD
ENDBRANCH   7  31
TORSDOF 12
ENDMDL
