MODEL 1
REMARK VINA RESULT: -9.197182387      0.000      0.000
REMARK  15 active torsions:
REMARK  status: ('A' for Active; 'I' for Inactive)
REMARK    1  A    between atoms: C2_2  and  N1_3 
REMARK       I    between atoms: C3_5  and  N3_7 
REMARK    2  A    between atoms: N3_7  and  C4_9 
REMARK    3  A    between atoms: C4_9  and  C5_10 
REMARK    4  A    between atoms: N4_13  and  C9_15 
REMARK    5  A    between atoms: C9_15  and  C10_16 
REMARK    6  A    between atoms: C10_16  and  C11_17 
REMARK    7  A    between atoms: C11_17  and  C12_18 
REMARK       I    between atoms: C12_18  and  N5_20 
REMARK    8  A    between atoms: C13_22  and  C14_23 
REMARK       I    between atoms: C14_23  and  N6_25 
REMARK    9  A    between atoms: N6_25  and  C16_27 
REMARK   10  A    between atoms: C16_27  and  C17_28 
REMARK   11  A    between atoms: C17_28  and  C18_29 
REMARK   12  A    between atoms: C18_29  and  C19_30 
REMARK   13  A    between atoms: C19_30  and  C20_31 
REMARK   14  A    between atoms: C20_31  and  C21_32 
REMARK   15  A    between atoms: C21_32  and  N7_33 
REMARK       I    between atoms: N7_33  and  C22_35 
ROOT
HETATM    1  C12 UNL     1      27.471  -1.767 -24.332  1.00  0.00     0.221 C 
HETATM    2  O1  UNL     1      28.394  -1.082 -24.815  1.00  0.00    -0.273 OA
HETATM    3  N5  UNL     1      27.294  -3.070 -24.887  1.00  0.00    -0.332 N 
ATOM      4  H5  UNL     1      26.789  -3.212 -25.761  1.00  0.00     0.168 HD
HETATM    5  C13 UNL     1      27.806  -4.066 -24.228  1.00  0.00     0.165 C 
ENDROOT
BRANCH   1   6
HETATM    6  C11 UNL     1      26.587  -1.292 -23.240  1.00  0.00     0.105 C 
BRANCH   6   7
HETATM    7  C10 UNL     1      26.289   0.159 -23.442  1.00  0.00     0.037 C 
BRANCH   7   8
HETATM    8  C9  UNL     1      25.023   0.694 -22.906  1.00  0.00     0.237 C 
BRANCH   8   9
HETATM    9  N4  UNL     1      25.070   1.865 -22.082  1.00  0.00    -0.071 N 
HETATM   10  C7  UNL     1      24.021   1.934 -21.106  1.00  0.00     0.237 C 
HETATM   11  C6  UNL     1      24.101   3.209 -20.322  1.00  0.00     0.034 C 
HETATM   12  C5  UNL     1      25.439   3.519 -19.744  1.00  0.00     0.006 C 
HETATM   13  C24 UNL     1      26.602   2.870 -20.401  1.00  0.00     0.034 C 
HETATM   14  C23 UNL     1      26.320   1.729 -21.299  1.00  0.00     0.237 C 
HETATM   15  C8  UNL     1      25.264   3.032 -22.880  1.00  0.00     0.272 C 
BRANCH  12  16
HETATM   16  C4  UNL     1      25.406   3.250 -18.233  1.00  0.00     0.127 C 
BRANCH  16  17
HETATM   17  N3  UNL     1      24.493   4.119 -17.568  1.00  0.00    -0.364 N 
HETATM   18  C3  UNL     1      24.840   5.037 -16.563  1.00  0.00     0.183 C 
HETATM   19  N1  UNL     1      25.995   5.347 -16.236  1.00  0.00    -0.365 N 
HETATM   20  N2  UNL     1      23.771   5.696 -15.823  1.00  0.00    -0.064 NA
ATOM     21  H1  UNL     1      25.999   6.032 -15.480  1.00  0.00     0.162 HD
ATOM     22  H3  UNL     1      23.511   4.070 -17.842  1.00  0.00     0.162 HD
BRANCH  19  23
HETATM   23  C2  UNL     1      27.297   5.008 -16.629  1.00  0.00     0.118 C 
HETATM   24  C1  UNL     1      27.913   3.983 -15.673  1.00  0.00     0.026 C 
ENDBRANCH  19  23
ENDBRANCH  16  17
ENDBRANCH  12  16
ENDBRANCH   8   9
ENDBRANCH   7   8
ENDBRANCH   6   7
ENDBRANCH   1   6
BRANCH   5  25
HETATM   25  C14 UNL     1      27.637  -5.394 -24.779  1.00  0.00     0.258 C 
HETATM   26  O2  UNL     1      26.500  -5.922 -24.780  1.00  0.00    -0.267 OA
HETATM   27  N6  UNL     1      28.754  -6.079 -25.312  1.00  0.00    -0.352 N 
HETATM   28  C15 UNL     1      28.608  -7.416 -25.906  1.00  0.00     0.152 C 
BRANCH  27  29
HETATM   29  C16 UNL     1      30.056  -5.480 -25.245  1.00  0.00     0.125 C 
BRANCH  29  30
HETATM   30  C17 UNL     1      31.080  -6.390 -24.660  1.00  0.00     0.020 C 
BRANCH  30  31
HETATM   31  C18 UNL     1      31.409  -6.003 -23.242  1.00  0.00     0.002 C 
BRANCH  31  32
HETATM   32  C19 UNL     1      30.945  -7.076 -22.283  1.00  0.00     0.002 C 
BRANCH  32  33
HETATM   33  C20 UNL     1      29.548  -6.900 -21.794  1.00  0.00     0.020 C 
BRANCH  33  34
HETATM   34  C21 UNL     1      28.709  -8.118 -22.189  1.00  0.00     0.122 C 
BRANCH  34  35
HETATM   35  N7  UNL     1      28.984  -9.168 -21.245  1.00  0.00    -0.365 N 
HETATM   36  C22 UNL     1      29.011 -10.516 -21.663  1.00  0.00     0.181 C 
HETATM   37  N8  UNL     1      29.901 -10.896 -22.525  1.00  0.00    -0.374 N 
HETATM   38  N9  UNL     1      28.091 -11.473 -21.169  1.00  0.00    -0.064 NA
ATOM     39  H82 UNL     1      30.563 -10.207 -22.881  1.00  0.00     0.158 HD
ATOM     40  H81 UNL     1      29.920 -11.870 -22.827  1.00  0.00     0.158 HD
ATOM     41  H7  UNL     1      29.161  -8.938 -20.267  1.00  0.00     0.162 HD
ENDBRANCH  34  35
ENDBRANCH  33  34
ENDBRANCH  32  33
ENDBRANCH  31  32
ENDBRANCH  30  31
ENDBRANCH  29  30
ENDBRANCH  27  29
ENDBRANCH   5  25
TORSDOF 15
ENDMDL
MODEL 2
REMARK VINA RESULT: -9.136625672      1.243      1.707
REMARK  15 active torsions:
REMARK  status: ('A' for Active; 'I' for Inactive)
REMARK    1  A    between atoms: C2_2  and  N1_3 
REMARK       I    between atoms: C3_5  and  N3_7 
REMARK    2  A    between atoms: N3_7  and  C4_9 
REMARK    3  A    between atoms: C4_9  and  C5_10 
REMARK    4  A    between atoms: N4_13  and  C9_15 
REMARK    5  A    between atoms: C9_15  and  C10_16 
REMARK    6  A    between atoms: C10_16  and  C11_17 
REMARK    7  A    between atoms: C11_17  and  C12_18 
REMARK       I    between atoms: C12_18  and  N5_20 
REMARK    8  A    between atoms: C13_22  and  C14_23 
REMARK       I    between atoms: C14_23  and  N6_25 
REMARK    9  A    between atoms: N6_25  and  C16_27 
REMARK   10  A    between atoms: C16_27  and  C17_28 
REMARK   11  A    between atoms: C17_28  and  C18_29 
REMARK   12  A    between atoms: C18_29  and  C19_30 
REMARK   13  A    between atoms: C19_30  and  C20_31 
REMARK   14  A    between atoms: C20_31  and  C21_32 
REMARK   15  A    between atoms: C21_32  and  N7_33 
REMARK       I    between atoms: N7_33  and  C22_35 
ROOT
HETATM    1  C12 UNL     1      27.461  -1.589 -24.449  1.00  0.00     0.221 C 
HETATM    2  O1  UNL     1      28.400  -0.970 -24.985  1.00  0.00    -0.273 OA
HETATM    3  N5  UNL     1      27.084  -2.821 -25.064  1.00  0.00    -0.332 N 
ATOM      4  H5  UNL     1      26.478  -2.843 -25.884  1.00  0.00     0.168 HD
HETATM    5  C13 UNL     1      27.546  -3.912 -24.531  1.00  0.00     0.165 C 
ENDROOT
BRANCH   1   6
HETATM    6  C11 UNL     1      26.753  -1.109 -23.238  1.00  0.00     0.105 C 
BRANCH   6   7
HETATM    7  C10 UNL     1      26.181   0.247 -23.505  1.00  0.00     0.037 C 
BRANCH   7   8
HETATM    8  C9  UNL     1      24.971   0.654 -22.768  1.00  0.00     0.237 C 
BRANCH   8   9
HETATM    9  N4  UNL     1      25.022   1.845 -21.974  1.00  0.00    -0.071 N 
HETATM   10  C7  UNL     1      23.973   1.942 -20.999  1.00  0.00     0.237 C 
HETATM   11  C6  UNL     1      24.058   3.236 -20.247  1.00  0.00     0.034 C 
HETATM   12  C5  UNL     1      25.397   3.556 -19.678  1.00  0.00     0.006 C 
HETATM   13  C24 UNL     1      26.557   2.887 -20.318  1.00  0.00     0.034 C 
HETATM   14  C23 UNL     1      26.272   1.724 -21.186  1.00  0.00     0.237 C 
HETATM   15  C8  UNL     1      25.219   2.991 -22.800  1.00  0.00     0.272 C 
BRANCH  12  16
HETATM   16  C4  UNL     1      25.362   3.324 -18.159  1.00  0.00     0.127 C 
BRANCH  16  17
HETATM   17  N3  UNL     1      24.439   4.201 -17.519  1.00  0.00    -0.364 N 
HETATM   18  C3  UNL     1      24.770   5.127 -16.516  1.00  0.00     0.183 C 
HETATM   19  N1  UNL     1      25.920   5.437 -16.170  1.00  0.00    -0.365 N 
HETATM   20  N2  UNL     1      23.689   5.794 -15.800  1.00  0.00    -0.064 NA
ATOM     21  H1  UNL     1      25.911   6.128 -15.420  1.00  0.00     0.162 HD
ATOM     22  H3  UNL     1      23.463   4.152 -17.810  1.00  0.00     0.162 HD
BRANCH  19  23
HETATM   23  C2  UNL     1      27.228   5.092 -16.536  1.00  0.00     0.118 C 
HETATM   24  C1  UNL     1      27.861   4.156 -15.503  1.00  0.00     0.026 C 
ENDBRANCH  19  23
ENDBRANCH  16  17
ENDBRANCH  12  16
ENDBRANCH   8   9
ENDBRANCH   7   8
ENDBRANCH   6   7
ENDBRANCH   1   6
BRANCH   5  25
HETATM   25  C14 UNL     1      27.173  -5.169 -25.144  1.00  0.00     0.258 C 
HETATM   26  O2  UNL     1      26.511  -5.166 -26.208  1.00  0.00    -0.267 OA
HETATM   27  N6  UNL     1      27.562  -6.387 -24.536  1.00  0.00    -0.352 N 
HETATM   28  C15 UNL     1      27.225  -7.679 -25.152  1.00  0.00     0.152 C 
BRANCH  27  29
HETATM   29  C16 UNL     1      28.266  -6.367 -23.287  1.00  0.00     0.125 C 
BRANCH  29  30
HETATM   30  C17 UNL     1      28.320  -7.705 -22.634  1.00  0.00     0.020 C 
BRANCH  30  31
HETATM   31  C18 UNL     1      29.695  -7.993 -22.091  1.00  0.00     0.002 C 
BRANCH  31  32
HETATM   32  C19 UNL     1      30.750  -7.626 -23.110  1.00  0.00     0.002 C 
BRANCH  32  33
HETATM   33  C20 UNL     1      31.665  -8.743 -23.476  1.00  0.00     0.020 C 
BRANCH  33  34
HETATM   34  C21 UNL     1      31.123  -9.465 -24.712  1.00  0.00     0.122 C 
BRANCH  34  35
HETATM   35  N7  UNL     1      30.689 -10.774 -24.305  1.00  0.00    -0.365 N 
HETATM   36  C22 UNL     1      29.331 -11.144 -24.417  1.00  0.00     0.181 C 
HETATM   37  N8  UNL     1      28.783 -11.197 -25.590  1.00  0.00    -0.374 N 
HETATM   38  N9  UNL     1      28.543 -11.460 -23.283  1.00  0.00    -0.064 NA
ATOM     39  H82 UNL     1      29.351 -10.970 -26.407  1.00  0.00     0.158 HD
ATOM     40  H81 UNL     1      27.802 -11.464 -25.672  1.00  0.00     0.158 HD
ATOM     41  H7  UNL     1      31.366 -11.440 -23.931  1.00  0.00     0.162 HD
ENDBRANCH  34  35
ENDBRANCH  33  34
ENDBRANCH  32  33
ENDBRANCH  31  32
ENDBRANCH  30  31
ENDBRANCH  29  30
ENDBRANCH  27  29
ENDBRANCH   5  25
TORSDOF 15
ENDMDL
MODEL 3
REMARK VINA RESULT: -8.854109657      3.537     12.785
REMARK  15 active torsions:
REMARK  status: ('A' for Active; 'I' for Inactive)
REMARK    1  A    between atoms: C2_2  and  N1_3 
REMARK       I    between atoms: C3_5  and  N3_7 
REMARK    2  A    between atoms: N3_7  and  C4_9 
REMARK    3  A    between atoms: C4_9  and  C5_10 
REMARK    4  A    between atoms: N4_13  and  C9_15 
REMARK    5  A    between atoms: C9_15  and  C10_16 
REMARK    6  A    between atoms: C10_16  and  C11_17 
REMARK    7  A    between atoms: C11_17  and  C12_18 
REMARK       I    between atoms: C12_18  and  N5_20 
REMARK    8  A    between atoms: C13_22  and  C14_23 
REMARK       I    between atoms: C14_23  and  N6_25 
REMARK    9  A    between atoms: N6_25  and  C16_27 
REMARK   10  A    between atoms: C16_27  and  C17_28 
REMARK   11  A    between atoms: C17_28  and  C18_29 
REMARK   12  A    between atoms: C18_29  and  C19_30 
REMARK   13  A    between atoms: C19_30  and  C20_31 
REMARK   14  A    between atoms: C20_31  and  C21_32 
REMARK   15  A    between atoms: C21_32  and  N7_33 
REMARK       I    between atoms: N7_33  and  C22_35 
ROOT
HETATM    1  C12 UNL     1      28.130  -2.590 -24.523  1.00  0.00     0.221 C 
HETATM    2  O1  UNL     1      29.347  -2.537 -24.788  1.00  0.00    -0.273 OA
HETATM    3  N5  UNL     1      27.652  -1.654 -23.558  1.00  0.00    -0.332 N 
ATOM      4  H5  UNL     1      27.761  -1.818 -22.557  1.00  0.00     0.168 HD
HETATM    5  C13 UNL     1      27.073  -0.583 -24.011  1.00  0.00     0.165 C 
ENDROOT
BRANCH   1   6
HETATM    6  C11 UNL     1      27.198  -3.555 -25.154  1.00  0.00     0.105 C 
BRANCH   6   7
HETATM    7  C10 UNL     1      27.442  -4.919 -24.592  1.00  0.00     0.037 C 
BRANCH   7   8
HETATM    8  C9  UNL     1      28.394  -5.803 -25.289  1.00  0.00     0.237 C 
BRANCH   8   9
HETATM    9  N4  UNL     1      29.304  -6.583 -24.504  1.00  0.00    -0.071 N 
HETATM   10  C7  UNL     1      28.818  -6.903 -23.193  1.00  0.00     0.237 C 
HETATM   11  C6  UNL     1      29.843  -7.668 -22.412  1.00  0.00     0.034 C 
HETATM   12  C5  UNL     1      30.423  -8.850 -23.109  1.00  0.00     0.006 C 
HETATM   13  C24 UNL     1      30.340  -8.841 -24.592  1.00  0.00     0.034 C 
HETATM   14  C23 UNL     1      29.399  -7.882 -25.210  1.00  0.00     0.237 C 
HETATM   15  C8  UNL     1      30.620  -6.034 -24.569  1.00  0.00     0.272 C 
BRANCH  12  16
HETATM   16  C4  UNL     1      29.826 -10.130 -22.505  1.00  0.00     0.127 C 
BRANCH  16  17
HETATM   17  N3  UNL     1      29.748 -11.175 -23.471  1.00  0.00    -0.364 N 
HETATM   18  C3  UNL     1      28.569 -11.844 -23.841  1.00  0.00     0.183 C 
HETATM   19  N1  UNL     1      27.419 -11.512 -23.519  1.00  0.00    -0.365 N 
HETATM   20  N2  UNL     1      28.678 -13.036 -24.674  1.00  0.00    -0.064 NA
ATOM     21  H1  UNL     1      26.723 -12.151 -23.904  1.00  0.00     0.162 HD
ATOM     22  H3  UNL     1      30.614 -11.460 -23.929  1.00  0.00     0.162 HD
BRANCH  19  23
HETATM   23  C2  UNL     1      26.819 -10.492 -22.768  1.00  0.00     0.118 C 
HETATM   24  C1  UNL     1      26.332  -9.355 -23.669  1.00  0.00     0.026 C 
ENDBRANCH  19  23
ENDBRANCH  16  17
ENDBRANCH  12  16
ENDBRANCH   8   9
ENDBRANCH   7   8
ENDBRANCH   6   7
ENDBRANCH   1   6
BRANCH   5  25
HETATM   25  C14 UNL     1      26.584   0.377 -23.045  1.00  0.00     0.258 C 
HETATM   26  O2  UNL     1      26.344   0.007 -21.872  1.00  0.00    -0.267 OA
HETATM   27  N6  UNL     1      26.385   1.724 -23.434  1.00  0.00    -0.352 N 
HETATM   28  C15 UNL     1      25.920   2.729 -22.467  1.00  0.00     0.152 C 
BRANCH  27  29
HETATM   29  C16 UNL     1      26.609   2.112 -24.797  1.00  0.00     0.125 C 
BRANCH  29  30
HETATM   30  C17 UNL     1      27.867   2.890 -24.975  1.00  0.00     0.020 C 
BRANCH  30  31
HETATM   31  C18 UNL     1      27.579   4.295 -25.435  1.00  0.00     0.002 C 
BRANCH  31  32
HETATM   32  C19 UNL     1      26.247   4.352 -26.148  1.00  0.00     0.002 C 
BRANCH  32  33
HETATM   33  C20 UNL     1      25.561   5.672 -26.061  1.00  0.00     0.020 C 
BRANCH  33  34
HETATM   34  C21 UNL     1      25.714   6.417 -27.390  1.00  0.00     0.122 C 
BRANCH  34  35
HETATM   35  N7  UNL     1      25.807   5.436 -28.438  1.00  0.00    -0.365 N 
HETATM   36  C22 UNL     1      24.734   5.244 -29.335  1.00  0.00     0.181 C 
HETATM   37  N8  UNL     1      24.377   6.216 -30.114  1.00  0.00    -0.374 N 
HETATM   38  N9  UNL     1      24.031   4.017 -29.412  1.00  0.00    -0.064 NA
ATOM     39  H82 UNL     1      24.883   7.100 -30.059  1.00  0.00     0.158 HD
ATOM     40  H81 UNL     1      23.601   6.078 -30.762  1.00  0.00     0.158 HD
ATOM     41  H7  UNL     1      26.654   4.875 -28.534  1.00  0.00     0.162 HD
ENDBRANCH  34  35
ENDBRANCH  33  34
ENDBRANCH  32  33
ENDBRANCH  31  32
ENDBRANCH  30  31
ENDBRANCH  29  30
ENDBRANCH  27  29
ENDBRANCH   5  25
TORSDOF 15
ENDMDL
MODEL 4
REMARK VINA RESULT: -8.843237961      7.715     10.795
REMARK  15 active torsions:
REMARK  status: ('A' for Active; 'I' for Inactive)
REMARK    1  A    between atoms: C2_2  and  N1_3 
REMARK       I    between atoms: C3_5  and  N3_7 
REMARK    2  A    between atoms: N3_7  and  C4_9 
REMARK    3  A    between atoms: C4_9  and  C5_10 
REMARK    4  A    between atoms: N4_13  and  C9_15 
REMARK    5  A    between atoms: C9_15  and  C10_16 
REMARK    6  A    between atoms: C10_16  and  C11_17 
REMARK    7  A    between atoms: C11_17  and  C12_18 
REMARK       I    between atoms: C12_18  and  N5_20 
REMARK    8  A    between atoms: C13_22  and  C14_23 
REMARK       I    between atoms: C14_23  and  N6_25 
REMARK    9  A    between atoms: N6_25  and  C16_27 
REMARK   10  A    between atoms: C16_27  and  C17_28 
REMARK   11  A    between atoms: C17_28  and  C18_29 
REMARK   12  A    between atoms: C18_29  and  C19_30 
REMARK   13  A    between atoms: C19_30  and  C20_31 
REMARK   14  A    between atoms: C20_31  and  C21_32 
REMARK   15  A    between atoms: C21_32  and  N7_33 
REMARK       I    between atoms: N7_33  and  C22_35 
ROOT
HETATM    1  C12 UNL     1      27.425  -5.955 -25.761  1.00  0.00     0.221 C 
HETATM    2  O1  UNL     1      26.528  -6.122 -24.913  1.00  0.00    -0.273 OA
HETATM    3  N5  UNL     1      27.282  -6.680 -26.983  1.00  0.00    -0.332 N 
ATOM      4  H5  UNL     1      27.554  -7.660 -27.055  1.00  0.00     0.168 HD
HETATM    5  C13 UNL     1      26.791  -6.034 -27.998  1.00  0.00     0.165 C 
ENDROOT
BRANCH   1   6
HETATM    6  C11 UNL     1      28.590  -5.062 -25.553  1.00  0.00     0.105 C 
BRANCH   6   7
HETATM    7  C10 UNL     1      28.889  -4.972 -24.091  1.00  0.00     0.037 C 
BRANCH   7   8
HETATM    8  C9  UNL     1      30.235  -5.356 -23.627  1.00  0.00     0.237 C 
BRANCH   8   9
HETATM    9  N4  UNL     1      30.460  -6.714 -23.232  1.00  0.00    -0.071 N 
HETATM   10  C7  UNL     1      29.258  -7.473 -23.039  1.00  0.00     0.237 C 
HETATM   11  C6  UNL     1      29.570  -8.863 -22.572  1.00  0.00     0.034 C 
HETATM   12  C5  UNL     1      30.582  -9.596 -23.385  1.00  0.00     0.006 C 
HETATM   13  C24 UNL     1      31.509  -8.757 -24.186  1.00  0.00     0.034 C 
HETATM   14  C23 UNL     1      31.132  -7.342 -24.394  1.00  0.00     0.237 C 
HETATM   15  C8  UNL     1      31.419  -6.778 -22.177  1.00  0.00     0.272 C 
BRANCH  12  16
HETATM   16  C4  UNL     1      29.866 -10.648 -24.245  1.00  0.00     0.127 C 
BRANCH  16  17
HETATM   17  N3  UNL     1      29.429 -10.098 -25.485  1.00  0.00    -0.364 N 
HETATM   18  C3  UNL     1      28.094 -10.056 -25.922  1.00  0.00     0.183 C 
HETATM   19  N1  UNL     1      27.100 -10.326 -25.232  1.00  0.00    -0.365 N 
HETATM   20  N2  UNL     1      27.826  -9.668 -27.302  1.00  0.00    -0.064 NA
ATOM     21  H1  UNL     1      26.236 -10.227 -25.767  1.00  0.00     0.162 HD
ATOM     22  H3  UNL     1      30.139  -9.705 -26.103  1.00  0.00     0.162 HD
BRANCH  19  23
HETATM   23  C2  UNL     1      26.846 -10.730 -23.915  1.00  0.00     0.118 C 
HETATM   24  C1  UNL     1      26.177  -9.611 -23.113  1.00  0.00     0.026 C 
ENDBRANCH  19  23
ENDBRANCH  16  17
ENDBRANCH  12  16
ENDBRANCH   8   9
ENDBRANCH   7   8
ENDBRANCH   6   7
ENDBRANCH   1   6
BRANCH   5  25
HETATM   25  C14 UNL     1      26.638  -6.755 -29.243  1.00  0.00     0.258 C 
HETATM   26  O2  UNL     1      25.860  -7.736 -29.298  1.00  0.00    -0.267 OA
HETATM   27  N6  UNL     1      27.367  -6.343 -30.385  1.00  0.00    -0.352 N 
HETATM   28  C15 UNL     1      27.210  -7.037 -31.672  1.00  0.00     0.152 C 
BRANCH  27  29
HETATM   29  C16 UNL     1      28.297  -5.256 -30.282  1.00  0.00     0.125 C 
BRANCH  29  30
HETATM   30  C17 UNL     1      29.324  -5.272 -31.362  1.00  0.00     0.020 C 
BRANCH  30  31
HETATM   31  C18 UNL     1      30.707  -5.069 -30.803  1.00  0.00     0.002 C 
BRANCH  31  32
HETATM   32  C19 UNL     1      30.815  -5.692 -29.429  1.00  0.00     0.002 C 
BRANCH  32  33
HETATM   33  C20 UNL     1      31.464  -7.033 -29.413  1.00  0.00     0.020 C 
BRANCH  33  34
HETATM   34  C21 UNL     1      30.507  -8.059 -28.799  1.00  0.00     0.122 C 
BRANCH  34  35
HETATM   35  N7  UNL     1      29.845  -8.745 -29.876  1.00  0.00    -0.365 N 
HETATM   36  C22 UNL     1      30.109 -10.110 -30.123  1.00  0.00     0.181 C 
HETATM   37  N8  UNL     1      29.807 -10.988 -29.219  1.00  0.00    -0.374 N 
HETATM   38  N9  UNL     1      30.697 -10.553 -31.333  1.00  0.00    -0.064 NA
ATOM     39  H82 UNL     1      29.384 -10.668 -28.347  1.00  0.00     0.158 HD
ATOM     40  H81 UNL     1      29.998 -11.974 -29.397  1.00  0.00     0.158 HD
ATOM     41  H7  UNL     1      29.181  -8.243 -30.466  1.00  0.00     0.162 HD
ENDBRANCH  34  35
ENDBRANCH  33  34
ENDBRANCH  32  33
ENDBRANCH  31  32
ENDBRANCH  30  31
ENDBRANCH  29  30
ENDBRANCH  27  29
ENDBRANCH   5  25
TORSDOF 15
ENDMDL
MODEL 5
REMARK VINA RESULT: -8.789557361      7.853     12.777
REMARK  15 active torsions:
REMARK  status: ('A' for Active; 'I' for Inactive)
REMARK    1  A    between atoms: C2_2  and  N1_3 
REMARK       I    between atoms: C3_5  and  N3_7 
REMARK    2  A    between atoms: N3_7  and  C4_9 
REMARK    3  A    between atoms: C4_9  and  C5_10 
REMARK    4  A    between atoms: N4_13  and  C9_15 
REMARK    5  A    between atoms: C9_15  and  C10_16 
REMARK    6  A    between atoms: C10_16  and  C11_17 
REMARK    7  A    between atoms: C11_17  and  C12_18 
REMARK       I    between atoms: C12_18  and  N5_20 
REMARK    8  A    between atoms: C13_22  and  C14_23 
REMARK       I    between atoms: C14_23  and  N6_25 
REMARK    9  A    between atoms: N6_25  and  C16_27 
REMARK   10  A    between atoms: C16_27  and  C17_28 
REMARK   11  A    between atoms: C17_28  and  C18_29 
REMARK   12  A    between atoms: C18_29  and  C19_30 
REMARK   13  A    between atoms: C19_30  and  C20_31 
REMARK   14  A    between atoms: C20_31  and  C21_32 
REMARK   15  A    between atoms: C21_32  and  N7_33 
REMARK       I    between atoms: N7_33  and  C22_35 
ROOT
HETATM    1  C12 UNL     1      27.568  -6.619 -24.641  1.00  0.00     0.221 C 
HETATM    2  O1  UNL     1      28.062  -5.980 -23.693  1.00  0.00    -0.273 OA
HETATM    3  N5  UNL     1      27.684  -8.040 -24.573  1.00  0.00    -0.332 N 
ATOM      4  H5  UNL     1      28.542  -8.519 -24.846  1.00  0.00     0.168 HD
HETATM    5  C13 UNL     1      26.646  -8.697 -24.147  1.00  0.00     0.165 C 
ENDROOT
BRANCH   1   6
HETATM    6  C11 UNL     1      26.889  -5.979 -25.793  1.00  0.00     0.105 C 
BRANCH   6   7
HETATM    7  C10 UNL     1      27.520  -6.450 -27.064  1.00  0.00     0.037 C 
BRANCH   7   8
HETATM    8  C9  UNL     1      28.951  -6.167 -27.281  1.00  0.00     0.237 C 
BRANCH   8   9
HETATM    9  N4  UNL     1      29.606  -6.775 -28.401  1.00  0.00    -0.071 N 
HETATM   10  C7  UNL     1      30.424  -7.902 -28.058  1.00  0.00     0.237 C 
HETATM   11  C6  UNL     1      31.120  -8.448 -29.268  1.00  0.00     0.034 C 
HETATM   12  C5  UNL     1      30.242  -8.718 -30.441  1.00  0.00     0.006 C 
HETATM   13  C24 UNL     1      28.959  -7.971 -30.483  1.00  0.00     0.034 C 
HETATM   14  C23 UNL     1      28.509  -7.330 -29.228  1.00  0.00     0.237 C 
HETATM   15  C8  UNL     1      30.218  -5.782 -29.224  1.00  0.00     0.272 C 
BRANCH  12  16
HETATM   16  C4  UNL     1      30.031 -10.234 -30.570  1.00  0.00     0.127 C 
BRANCH  16  17
HETATM   17  N3  UNL     1      28.994 -10.540 -31.498  1.00  0.00    -0.364 N 
HETATM   18  C3  UNL     1      29.188 -10.815 -32.862  1.00  0.00     0.183 C 
HETATM   19  N1  UNL     1      30.284 -11.003 -33.412  1.00  0.00    -0.365 N 
HETATM   20  N2  UNL     1      28.019 -10.890 -33.730  1.00  0.00    -0.064 NA
ATOM     21  H1  UNL     1      30.175 -11.182 -34.411  1.00  0.00     0.162 HD
ATOM     22  H3  UNL     1      28.037 -10.560 -31.146  1.00  0.00     0.162 HD
BRANCH  19  23
HETATM   23  C2  UNL     1      31.631 -11.034 -33.028  1.00  0.00     0.118 C 
HETATM   24  C1  UNL     1      32.548 -10.685 -34.203  1.00  0.00     0.026 C 
ENDBRANCH  19  23
ENDBRANCH  16  17
ENDBRANCH  12  16
ENDBRANCH   8   9
ENDBRANCH   7   8
ENDBRANCH   6   7
ENDBRANCH   1   6
BRANCH   5  25
HETATM   25  C14 UNL     1      26.748 -10.138 -24.070  1.00  0.00     0.258 C 
HETATM   26  O2  UNL     1      26.280 -10.841 -24.996  1.00  0.00    -0.267 OA
HETATM   27  N6  UNL     1      27.377 -10.737 -22.953  1.00  0.00    -0.352 N 
HETATM   28  C15 UNL     1      27.524 -12.198 -22.861  1.00  0.00     0.152 C 
BRANCH  27  29
HETATM   29  C16 UNL     1      27.852  -9.916 -21.877  1.00  0.00     0.125 C 
BRANCH  29  30
HETATM   30  C17 UNL     1      29.336  -9.939 -21.744  1.00  0.00     0.020 C 
BRANCH  30  31
HETATM   31  C18 UNL     1      29.945  -8.636 -22.189  1.00  0.00     0.002 C 
BRANCH  31  32
HETATM   32  C19 UNL     1      30.935  -8.872 -23.306  1.00  0.00     0.002 C 
BRANCH  32  33
HETATM   33  C20 UNL     1      31.435  -7.628 -23.956  1.00  0.00     0.020 C 
BRANCH  33  34
HETATM   34  C21 UNL     1      31.382  -6.470 -22.956  1.00  0.00     0.122 C 
BRANCH  34  35
HETATM   35  N7  UNL     1      32.029  -5.336 -23.560  1.00  0.00    -0.365 N 
HETATM   36  C22 UNL     1      31.461  -4.708 -24.689  1.00  0.00     0.181 C 
HETATM   37  N8  UNL     1      30.301  -4.141 -24.585  1.00  0.00    -0.374 N 
HETATM   38  N9  UNL     1      32.123  -4.677 -25.941  1.00  0.00    -0.064 NA
ATOM     39  H82 UNL     1      29.824  -4.164 -23.683  1.00  0.00     0.158 HD
ATOM     40  H81 UNL     1      29.891  -3.688 -25.401  1.00  0.00     0.158 HD
ATOM     41  H7  UNL     1      32.903  -4.983 -23.170  1.00  0.00     0.162 HD
ENDBRANCH  34  35
ENDBRANCH  33  34
ENDBRANCH  32  33
ENDBRANCH  31  32
ENDBRANCH  30  31
ENDBRANCH  29  30
ENDBRANCH  27  29
ENDBRANCH   5  25
TORSDOF 15
ENDMDL
