MODEL 1
REMARK VINA RESULT: -8.817448585      0.000      0.000
REMARK  16 active torsions:
REMARK  status: ('A' for Active; 'I' for Inactive)
REMARK    1  A    between atoms: C2_2  and  N1_3 
REMARK    2  A    between atoms: N1_3  and  C3_4 
REMARK    3  A    between atoms: C3_4  and  C4_5 
REMARK    4  A    between atoms: C4_5  and  C5_6 
REMARK    5  A    between atoms: C5_6  and  C6_7 
REMARK    6  A    between atoms: C6_7  and  C7_8 
REMARK    7  A    between atoms: C7_8  and  C8_9 
REMARK    8  A    between atoms: C8_9  and  N3_13 
REMARK    9  A    between atoms: N3_13  and  C9_15 
REMARK       I    between atoms: N4_17  and  C11_18 
REMARK   10  A    between atoms: C11_18  and  C12_20 
REMARK   11  A    between atoms: C12_20  and  C13_21 
REMARK   12  A    between atoms: C13_21  and  C14_22 
REMARK   13  A    between atoms: C14_22  and  C15_23 
REMARK   14  A    between atoms: C15_23  and  C16_24 
REMARK   15  A    between atoms: C16_24  and  N5_25 
REMARK   16  A    between atoms: C20_32  and  C21_33 
ROOT
HETATM    1  C9  UNL     1      28.512  -5.774 -23.789  1.00  0.00     0.113 C 
HETATM    2  C10 UNL     1      28.917  -6.895 -24.793  1.00  0.00     0.151 C 
HETATM    3  N4  UNL     1      28.106  -6.695 -25.963  1.00  0.00    -0.350 N 
HETATM    4  C11 UNL     1      28.584  -6.927 -27.280  1.00  0.00     0.219 C 
HETATM    5  O1  UNL     1      29.764  -7.330 -27.416  1.00  0.00    -0.273 OA
HETATM    6  C18 UNL     1      26.732  -6.230 -25.791  1.00  0.00     0.127 C 
HETATM    7  C19 UNL     1      26.716  -4.879 -25.093  1.00  0.00     0.035 C 
HETATM    8  C20 UNL     1      28.184  -4.618 -24.693  1.00  0.00     0.101 C 
ENDROOT
BRANCH   1   9
HETATM    9  N3  UNL     1      29.591  -5.572 -22.873  1.00  0.00    -0.373 N 
ATOM     10  H3  UNL     1      29.418  -5.045 -22.016  1.00  0.00     0.161 HD
BRANCH   9  11
HETATM   11  C8  UNL     1      30.884  -6.075 -23.112  1.00  0.00     0.070 C 
HETATM   12  N2  UNL     1      31.745  -5.435 -23.873  1.00  0.00    -0.389 N 
ATOM     13  H22 UNL     1      32.682  -5.800 -24.046  1.00  0.00     0.157 HD
ATOM     14  H21 UNL     1      31.424  -4.564 -24.295  1.00  0.00     0.157 HD
BRANCH  11  15
HETATM   15  C7  UNL     1      31.351  -7.337 -22.500  1.00  0.00     0.075 C 
BRANCH  15  16
HETATM   16  C6  UNL     1      31.734  -8.358 -23.551  1.00  0.00     0.007 C 
BRANCH  16  17
HETATM   17  C5  UNL     1      30.949  -9.626 -23.410  1.00  0.00     0.002 C 
BRANCH  17  18
HETATM   18  C4  UNL     1      29.827  -9.550 -22.406  1.00  0.00     0.028 C 
BRANCH  18  19
HETATM   19  C3  UNL     1      29.158 -10.891 -22.261  1.00  0.00     0.237 C 
BRANCH  19  20
HETATM   20  N1  UNL     1      27.731 -10.806 -22.334  1.00  0.00    -0.067 N 
HETATM   21  C22 UNL     1      27.308 -11.419 -23.581  1.00  0.00     0.237 C 
HETATM   22  C23 UNL     1      27.034 -10.278 -24.535  1.00  0.00     0.029 C 
HETATM   23  C24 UNL     1      26.424  -9.256 -23.570  1.00  0.00     0.029 C 
HETATM   24  C25 UNL     1      27.338  -9.432 -22.370  1.00  0.00     0.237 C 
BRANCH  20  25
HETATM   25  C2  UNL     1      27.029 -11.474 -21.269  1.00  0.00     0.233 C 
HETATM   26  C1  UNL     1      27.158 -12.964 -21.304  1.00  0.00     0.035 C 
ENDBRANCH  20  25
ENDBRANCH  19  20
ENDBRANCH  18  19
ENDBRANCH  17  18
ENDBRANCH  16  17
ENDBRANCH  15  16
ENDBRANCH  11  15
ENDBRANCH   9  11
ENDBRANCH   1   9
BRANCH   8  27
HETATM   27  C21 UNL     1      28.348  -3.277 -24.170  1.00  0.00     0.237 C 
HETATM   28  N8  UNL     1      29.004  -2.184 -24.776  1.00  0.00    -0.062 NA
HETATM   29  O2  UNL     1      27.847  -3.013 -23.016  1.00  0.00    -0.276 OA
ENDBRANCH   8  27
BRANCH   4  30
HETATM   30  C12 UNL     1      27.769  -6.720 -28.488  1.00  0.00     0.103 C 
BRANCH  30  31
HETATM   31  C13 UNL     1      28.244  -5.571 -29.324  1.00  0.00     0.009 C 
BRANCH  31  32
HETATM   32  C14 UNL     1      27.088  -4.794 -29.872  1.00  0.00     0.002 C 
BRANCH  32  33
HETATM   33  C15 UNL     1      27.289  -4.280 -31.269  1.00  0.00     0.020 C 
BRANCH  33  34
HETATM   34  C16 UNL     1      27.569  -5.483 -32.157  1.00  0.00     0.122 C 
BRANCH  34  35
HETATM   35  N5  UNL     1      26.344  -6.038 -32.674  1.00  0.00    -0.367 N 
HETATM   36  C17 UNL     1      25.875  -7.190 -32.409  1.00  0.00     0.196 C 
HETATM   37  N6  UNL     1      24.625  -7.520 -33.053  1.00  0.00    -0.067 NA
HETATM   38  N7  UNL     1      26.468  -8.138 -31.559  1.00  0.00    -0.067 NA
ATOM     39  H5  UNL     1      25.804  -5.454 -33.312  1.00  0.00     0.161 HD
ENDBRANCH  34  35
ENDBRANCH  33  34
ENDBRANCH  32  33
ENDBRANCH  31  32
ENDBRANCH  30  31
ENDBRANCH   4  30
TORSDOF 16
ENDMDL
MODEL 2
REMARK VINA RESULT: -8.680093092      1.247      2.025
REMARK  16 active torsions:
REMARK  status: ('A' for Active; 'I' for Inactive)
REMARK    1  A    between atoms: C2_2  and  N1_3 
REMARK    2  A    between atoms: N1_3  and  C3_4 
REMARK    3  A    between atoms: C3_4  and  C4_5 
REMARK    4  A    between atoms: C4_5  and  C5_6 
REMARK    5  A    between atoms: C5_6  and  C6_7 
REMARK    6  A    between atoms: C6_7  and  C7_8 
REMARK    7  A    between atoms: C7_8  and  C8_9 
REMARK    8  A    between atoms: C8_9  and  N3_13 
REMARK    9  A    between atoms: N3_13  and  C9_15 
REMARK       I    between atoms: N4_17  and  C11_18 
REMARK   10  A    between atoms: C11_18  and  C12_20 
REMARK   11  A    between atoms: C12_20  and  C13_21 
REMARK   12  A    between atoms: C13_21  and  C14_22 
REMARK   13  A    between atoms: C14_22  and  C15_23 
REMARK   14  A    between atoms: C15_23  and  C16_24 
REMARK   15  A    between atoms: C16_24  and  N5_25 
REMARK   16  A    between atoms: C20_32  and  C21_33 
ROOT
HETATM    1  C9  UNL     1      28.636  -5.387 -24.576  1.00  0.00     0.113 C 
HETATM    2  C10 UNL     1      29.289  -6.252 -25.695  1.00  0.00     0.151 C 
HETATM    3  N4  UNL     1      28.641  -5.873 -26.922  1.00  0.00    -0.350 N 
HETATM    4  C11 UNL     1      29.326  -5.802 -28.164  1.00  0.00     0.219 C 
HETATM    5  O1  UNL     1      30.547  -6.090 -28.181  1.00  0.00    -0.273 OA
HETATM    6  C18 UNL     1      27.219  -5.544 -26.888  1.00  0.00     0.127 C 
HETATM    7  C19 UNL     1      26.971  -4.366 -25.960  1.00  0.00     0.035 C 
HETATM    8  C20 UNL     1      28.333  -4.096 -25.285  1.00  0.00     0.101 C 
ENDROOT
BRANCH   1   9
HETATM    9  N3  UNL     1      29.546  -5.303 -23.476  1.00  0.00    -0.373 N 
ATOM     10  H3  UNL     1      29.173  -5.145 -22.539  1.00  0.00     0.161 HD
BRANCH   9  11
HETATM   11  C8  UNL     1      30.938  -5.431 -23.641  1.00  0.00     0.070 C 
HETATM   12  N2  UNL     1      31.671  -4.449 -24.119  1.00  0.00    -0.389 N 
ATOM     13  H22 UNL     1      32.679  -4.542 -24.239  1.00  0.00     0.157 HD
ATOM     14  H21 UNL     1      31.177  -3.595 -24.381  1.00  0.00     0.157 HD
BRANCH  11  15
HETATM   15  C7  UNL     1      31.653  -6.668 -23.261  1.00  0.00     0.075 C 
BRANCH  15  16
HETATM   16  C6  UNL     1      30.760  -7.612 -22.484  1.00  0.00     0.007 C 
BRANCH  16  17
HETATM   17  C5  UNL     1      30.494  -8.878 -23.239  1.00  0.00     0.002 C 
BRANCH  17  18
HETATM   18  C4  UNL     1      29.759  -9.928 -22.445  1.00  0.00     0.028 C 
BRANCH  18  19
HETATM   19  C3  UNL     1      28.321  -9.526 -22.246  1.00  0.00     0.237 C 
BRANCH  19  20
HETATM   20  N1  UNL     1      27.402 -10.492 -22.767  1.00  0.00    -0.067 N 
HETATM   21  C22 UNL     1      26.478 -10.851 -21.705  1.00  0.00     0.237 C 
HETATM   22  C23 UNL     1      26.960 -12.178 -21.163  1.00  0.00     0.029 C 
HETATM   23  C24 UNL     1      27.431 -12.846 -22.459  1.00  0.00     0.029 C 
HETATM   24  C25 UNL     1      28.115 -11.674 -23.140  1.00  0.00     0.237 C 
BRANCH  20  25
HETATM   25  C2  UNL     1      26.615 -10.039 -23.884  1.00  0.00     0.233 C 
HETATM   26  C1  UNL     1      26.624  -8.554 -24.064  1.00  0.00     0.035 C 
ENDBRANCH  20  25
ENDBRANCH  19  20
ENDBRANCH  18  19
ENDBRANCH  17  18
ENDBRANCH  16  17
ENDBRANCH  15  16
ENDBRANCH  11  15
ENDBRANCH   9  11
ENDBRANCH   1   9
BRANCH   8  27
HETATM   27  C21 UNL     1      28.289  -2.880 -24.497  1.00  0.00     0.237 C 
HETATM   28  N8  UNL     1      27.698  -2.689 -23.230  1.00  0.00    -0.062 NA
HETATM   29  O2  UNL     1      28.845  -1.827 -24.981  1.00  0.00    -0.276 OA
ENDBRANCH   8  27
BRANCH   4  30
HETATM   30  C12 UNL     1      28.679  -5.409 -29.426  1.00  0.00     0.103 C 
BRANCH  30  31
HETATM   31  C13 UNL     1      29.458  -5.826 -30.637  1.00  0.00     0.009 C 
BRANCH  31  32
HETATM   32  C14 UNL     1      29.720  -4.657 -31.533  1.00  0.00     0.002 C 
BRANCH  32  33
HETATM   33  C15 UNL     1      29.029  -4.726 -32.865  1.00  0.00     0.020 C 
BRANCH  33  34
HETATM   34  C16 UNL     1      27.543  -4.524 -32.614  1.00  0.00     0.122 C 
BRANCH  34  35
HETATM   35  N5  UNL     1      26.807  -5.735 -32.876  1.00  0.00    -0.367 N 
HETATM   36  C17 UNL     1      25.915  -6.245 -32.126  1.00  0.00     0.196 C 
HETATM   37  N6  UNL     1      25.318  -7.469 -32.607  1.00  0.00    -0.067 NA
HETATM   38  N7  UNL     1      25.482  -5.719 -30.897  1.00  0.00    -0.067 NA
ATOM     39  H5  UNL     1      27.021  -6.228 -33.743  1.00  0.00     0.161 HD
ENDBRANCH  34  35
ENDBRANCH  33  34
ENDBRANCH  32  33
ENDBRANCH  31  32
ENDBRANCH  30  31
ENDBRANCH   4  30
TORSDOF 16
ENDMDL
MODEL 3
REMARK VINA RESULT: -8.607064232      3.370      4.370
REMARK  16 active torsions:
REMARK  status: ('A' for Active; 'I' for Inactive)
REMARK    1  A    between atoms: C2_2  and  N1_3 
REMARK    2  A    between atoms: N1_3  and  C3_4 
REMARK    3  A    between atoms: C3_4  and  C4_5 
REMARK    4  A    between atoms: C4_5  and  C5_6 
REMARK    5  A    between atoms: C5_6  and  C6_7 
REMARK    6  A    between atoms: C6_7  and  C7_8 
REMARK    7  A    between atoms: C7_8  and  C8_9 
REMARK    8  A    between atoms: C8_9  and  N3_13 
REMARK    9  A    between atoms: N3_13  and  C9_15 
REMARK       I    between atoms: N4_17  and  C11_18 
REMARK   10  A    between atoms: C11_18  and  C12_20 
REMARK   11  A    between atoms: C12_20  and  C13_21 
REMARK   12  A    between atoms: C13_21  and  C14_22 
REMARK   13  A    between atoms: C14_22  and  C15_23 
REMARK   14  A    between atoms: C15_23  and  C16_24 
REMARK   15  A    between atoms: C16_24  and  N5_25 
REMARK   16  A    between atoms: C20_32  and  C21_33 
ROOT
HETATM    1  C9  UNL     1      29.216  -6.056 -26.833  1.00  0.00     0.113 C 
HETATM    2  C10 UNL     1      30.236  -6.974 -27.571  1.00  0.00     0.151 C 
HETATM    3  N4  UNL     1      29.456  -7.842 -28.411  1.00  0.00    -0.350 N 
HETATM    4  C11 UNL     1      29.889  -8.261 -29.697  1.00  0.00     0.219 C 
HETATM    5  O1  UNL     1      31.003  -7.856 -30.105  1.00  0.00    -0.273 OA
HETATM    6  C18 UNL     1      28.162  -8.311 -27.922  1.00  0.00     0.127 C 
HETATM    7  C19 UNL     1      27.241  -7.131 -27.653  1.00  0.00     0.035 C 
HETATM    8  C20 UNL     1      28.125  -5.880 -27.852  1.00  0.00     0.101 C 
ENDROOT
BRANCH   1   9
HETATM    9  N3  UNL     1      29.891  -4.864 -26.421  1.00  0.00    -0.373 N 
ATOM     10  H3  UNL     1      29.691  -3.991 -26.910  1.00  0.00     0.161 HD
BRANCH   9  11
HETATM   11  C8  UNL     1      30.822  -4.854 -25.365  1.00  0.00     0.070 C 
HETATM   12  N2  UNL     1      32.085  -4.542 -25.559  1.00  0.00    -0.389 N 
ATOM     13  H22 UNL     1      32.759  -4.535 -24.794  1.00  0.00     0.157 HD
ATOM     14  H21 UNL     1      32.360  -4.323 -26.517  1.00  0.00     0.157 HD
BRANCH  11  15
HETATM   15  C7  UNL     1      30.423  -5.170 -23.977  1.00  0.00     0.075 C 
BRANCH  15  16
HETATM   16  C6  UNL     1      31.433  -6.071 -23.298  1.00  0.00     0.007 C 
BRANCH  16  17
HETATM   17  C5  UNL     1      30.857  -6.748 -22.092  1.00  0.00     0.002 C 
BRANCH  17  18
HETATM   18  C4  UNL     1      29.361  -6.930 -22.142  1.00  0.00     0.028 C 
BRANCH  18  19
HETATM   19  C3  UNL     1      28.991  -8.346 -21.784  1.00  0.00     0.237 C 
BRANCH  19  20
HETATM   20  N1  UNL     1      28.629  -9.126 -22.928  1.00  0.00    -0.067 N 
HETATM   21  C22 UNL     1      28.179  -8.216 -23.968  1.00  0.00     0.237 C 
HETATM   22  C23 UNL     1      26.668  -8.267 -23.941  1.00  0.00     0.029 C 
HETATM   23  C24 UNL     1      26.450  -9.753 -23.634  1.00  0.00     0.029 C 
HETATM   24  C25 UNL     1      27.532  -9.980 -22.593  1.00  0.00     0.237 C 
BRANCH  20  25
HETATM   25  C2  UNL     1      29.696  -9.917 -23.484  1.00  0.00     0.233 C 
HETATM   26  C1  UNL     1      30.192  -9.418 -24.803  1.00  0.00     0.035 C 
ENDBRANCH  20  25
ENDBRANCH  19  20
ENDBRANCH  18  19
ENDBRANCH  17  18
ENDBRANCH  16  17
ENDBRANCH  15  16
ENDBRANCH  11  15
ENDBRANCH   9  11
ENDBRANCH   1   9
BRANCH   8  27
HETATM   27  C21 UNL     1      27.329  -4.670 -27.797  1.00  0.00     0.237 C 
HETATM   28  N8  UNL     1      26.937  -3.941 -26.654  1.00  0.00    -0.062 NA
HETATM   29  O2  UNL     1      26.913  -4.171 -28.906  1.00  0.00    -0.276 OA
ENDBRANCH   8  27
BRANCH   4  30
HETATM   30  C12 UNL     1      29.099  -9.144 -30.572  1.00  0.00     0.103 C 
BRANCH  30  31
HETATM   31  C13 UNL     1      29.919 -10.230 -31.200  1.00  0.00     0.009 C 
BRANCH  31  32
HETATM   32  C14 UNL     1      30.147 -11.353 -30.237  1.00  0.00     0.002 C 
BRANCH  32  33
HETATM   33  C15 UNL     1      30.050 -12.723 -30.845  1.00  0.00     0.020 C 
BRANCH  33  34
HETATM   34  C16 UNL     1      29.319 -12.580 -32.170  1.00  0.00     0.122 C 
BRANCH  34  35
HETATM   35  N5  UNL     1      28.044 -13.250 -32.131  1.00  0.00    -0.367 N 
HETATM   36  C17 UNL     1      27.199 -13.307 -33.080  1.00  0.00     0.196 C 
HETATM   37  N6  UNL     1      25.988 -14.040 -32.797  1.00  0.00    -0.067 NA
HETATM   38  N7  UNL     1      27.355 -12.722 -34.348  1.00  0.00    -0.067 NA
ATOM     39  H5  UNL     1      27.796 -13.722 -31.261  1.00  0.00     0.161 HD
ENDBRANCH  34  35
ENDBRANCH  33  34
ENDBRANCH  32  33
ENDBRANCH  31  32
ENDBRANCH  30  31
ENDBRANCH   4  30
TORSDOF 16
ENDMDL
MODEL 4
REMARK VINA RESULT: -8.606349642      2.544      3.268
REMARK  16 active torsions:
REMARK  status: ('A' for Active; 'I' for Inactive)
REMARK    1  A    between atoms: C2_2  and  N1_3 
REMARK    2  A    between atoms: N1_3  and  C3_4 
REMARK    3  A    between atoms: C3_4  and  C4_5 
REMARK    4  A    between atoms: C4_5  and  C5_6 
REMARK    5  A    between atoms: C5_6  and  C6_7 
REMARK    6  A    between atoms: C6_7  and  C7_8 
REMARK    7  A    between atoms: C7_8  and  C8_9 
REMARK    8  A    between atoms: C8_9  and  N3_13 
REMARK    9  A    between atoms: N3_13  and  C9_15 
REMARK       I    between atoms: N4_17  and  C11_18 
REMARK   10  A    between atoms: C11_18  and  C12_20 
REMARK   11  A    between atoms: C12_20  and  C13_21 
REMARK   12  A    between atoms: C13_21  and  C14_22 
REMARK   13  A    between atoms: C14_22  and  C15_23 
REMARK   14  A    between atoms: C15_23  and  C16_24 
REMARK   15  A    between atoms: C16_24  and  N5_25 
REMARK   16  A    between atoms: C20_32  and  C21_33 
ROOT
HETATM    1  C9  UNL     1      29.512  -6.859 -25.584  1.00  0.00     0.113 C 
HETATM    2  C10 UNL     1      28.266  -7.592 -26.165  1.00  0.00     0.151 C 
HETATM    3  N4  UNL     1      27.517  -6.597 -26.884  1.00  0.00    -0.350 N 
HETATM    4  C11 UNL     1      26.820  -6.880 -28.089  1.00  0.00     0.219 C 
HETATM    5  O1  UNL     1      26.862  -8.053 -28.532  1.00  0.00    -0.273 OA
HETATM    6  C18 UNL     1      27.473  -5.237 -26.355  1.00  0.00     0.127 C 
HETATM    7  C19 UNL     1      28.877  -4.657 -26.274  1.00  0.00     0.035 C 
HETATM    8  C20 UNL     1      29.815  -5.828 -26.636  1.00  0.00     0.101 C 
ENDROOT
BRANCH   1   9
HETATM    9  N3  UNL     1      30.536  -7.827 -25.337  1.00  0.00    -0.373 N 
ATOM     10  H3  UNL     1      30.791  -8.475 -26.082  1.00  0.00     0.161 HD
BRANCH   9  11
HETATM   11  C8  UNL     1      31.203  -7.916 -24.100  1.00  0.00     0.070 C 
HETATM   12  N2  UNL     1      31.746  -9.041 -23.687  1.00  0.00    -0.389 N 
ATOM     13  H22 UNL     1      32.229  -9.105 -22.791  1.00  0.00     0.157 HD
ATOM     14  H21 UNL     1      31.644  -9.850 -24.300  1.00  0.00     0.157 HD
BRANCH  11  15
HETATM   15  C7  UNL     1      31.352  -6.743 -23.213  1.00  0.00     0.075 C 
BRANCH  15  16
HETATM   16  C6  UNL     1      30.665  -6.962 -21.881  1.00  0.00     0.007 C 
BRANCH  16  17
HETATM   17  C5  UNL     1      29.177  -7.054 -22.028  1.00  0.00     0.002 C 
BRANCH  17  18
HETATM   18  C4  UNL     1      28.615  -8.428 -21.766  1.00  0.00     0.028 C 
BRANCH  18  19
HETATM   19  C3  UNL     1      27.422  -8.686 -22.648  1.00  0.00     0.237 C 
BRANCH  19  20
HETATM   20  N1  UNL     1      27.152 -10.082 -22.817  1.00  0.00    -0.067 N 
HETATM   21  C22 UNL     1      28.418 -10.794 -22.753  1.00  0.00     0.237 C 
HETATM   22  C23 UNL     1      28.799 -11.094 -24.185  1.00  0.00     0.029 C 
HETATM   23  C24 UNL     1      27.418 -11.392 -24.779  1.00  0.00     0.029 C 
HETATM   24  C25 UNL     1      26.593 -10.305 -24.113  1.00  0.00     0.237 C 
BRANCH  20  25
HETATM   25  C2  UNL     1      26.288 -10.656 -21.819  1.00  0.00     0.233 C 
HETATM   26  C1  UNL     1      26.924 -11.758 -21.032  1.00  0.00     0.035 C 
ENDBRANCH  20  25
ENDBRANCH  19  20
ENDBRANCH  18  19
ENDBRANCH  17  18
ENDBRANCH  16  17
ENDBRANCH  15  16
ENDBRANCH  11  15
ENDBRANCH   9  11
ENDBRANCH   1   9
BRANCH   8  27
HETATM   27  C21 UNL     1      31.184  -5.373 -26.770  1.00  0.00     0.237 C 
HETATM   28  N8  UNL     1      31.998  -4.770 -25.787  1.00  0.00    -0.062 NA
HETATM   29  O2  UNL     1      31.761  -5.521 -27.909  1.00  0.00    -0.276 OA
ENDBRANCH   8  27
BRANCH   4  30
HETATM   30  C12 UNL     1      26.055  -5.872 -28.841  1.00  0.00     0.103 C 
BRANCH  30  31
HETATM   31  C13 UNL     1      26.924  -4.809 -29.443  1.00  0.00     0.009 C 
BRANCH  31  32
HETATM   32  C14 UNL     1      27.610  -5.313 -30.673  1.00  0.00     0.002 C 
BRANCH  32  33
HETATM   33  C15 UNL     1      29.095  -5.488 -30.531  1.00  0.00     0.020 C 
BRANCH  33  34
HETATM   34  C16 UNL     1      29.395  -6.970 -30.698  1.00  0.00     0.122 C 
BRANCH  34  35
HETATM   35  N5  UNL     1      30.020  -7.506 -29.516  1.00  0.00    -0.367 N 
HETATM   36  C17 UNL     1      30.695  -8.581 -29.448  1.00  0.00     0.196 C 
HETATM   37  N6  UNL     1      31.222  -8.909 -28.144  1.00  0.00    -0.067 NA
HETATM   38  N7  UNL     1      30.956  -9.450 -30.521  1.00  0.00    -0.067 NA
ATOM     39  H5  UNL     1      29.910  -6.973 -28.652  1.00  0.00     0.161 HD
ENDBRANCH  34  35
ENDBRANCH  33  34
ENDBRANCH  32  33
ENDBRANCH  31  32
ENDBRANCH  30  31
ENDBRANCH   4  30
TORSDOF 16
ENDMDL
MODEL 5
REMARK VINA RESULT: -8.605007948      2.192      3.102
REMARK  16 active torsions:
REMARK  status: ('A' for Active; 'I' for Inactive)
REMARK    1  A    between atoms: C2_2  and  N1_3 
REMARK    2  A    between atoms: N1_3  and  C3_4 
REMARK    3  A    between atoms: C3_4  and  C4_5 
REMARK    4  A    between atoms: C4_5  and  C5_6 
REMARK    5  A    between atoms: C5_6  and  C6_7 
REMARK    6  A    between atoms: C6_7  and  C7_8 
REMARK    7  A    between atoms: C7_8  and  C8_9 
REMARK    8  A    between atoms: C8_9  and  N3_13 
REMARK    9  A    between atoms: N3_13  and  C9_15 
REMARK       I    between atoms: N4_17  and  C11_18 
REMARK   10  A    between atoms: C11_18  and  C12_20 
REMARK   11  A    between atoms: C12_20  and  C13_21 
REMARK   12  A    between atoms: C13_21  and  C14_22 
REMARK   13  A    between atoms: C14_22  and  C15_23 
REMARK   14  A    between atoms: C15_23  and  C16_24 
REMARK   15  A    between atoms: C16_24  and  N5_25 
REMARK   16  A    between atoms: C20_32  and  C21_33 
ROOT
HETATM    1  C9  UNL     1      29.289  -5.150 -25.403  1.00  0.00     0.113 C 
HETATM    2  C10 UNL     1      29.436  -5.664 -26.867  1.00  0.00     0.151 C 
HETATM    3  N4  UNL     1      28.118  -5.620 -27.440  1.00  0.00    -0.350 N 
HETATM    4  C11 UNL     1      27.880  -5.278 -28.798  1.00  0.00     0.219 C 
HETATM    5  O1  UNL     1      28.869  -5.010 -29.521  1.00  0.00    -0.273 OA
HETATM    6  C18 UNL     1      26.975  -5.939 -26.589  1.00  0.00     0.127 C 
HETATM    7  C19 UNL     1      26.902  -4.970 -25.419  1.00  0.00     0.035 C 
HETATM    8  C20 UNL     1      28.192  -4.127 -25.517  1.00  0.00     0.101 C 
ENDROOT
BRANCH   1   9
HETATM    9  N3  UNL     1      30.559  -4.664 -24.961  1.00  0.00    -0.373 N 
ATOM     10  H3  UNL     1      30.886  -3.759 -25.300  1.00  0.00     0.161 HD
BRANCH   9  11
HETATM   11  C8  UNL     1      31.375  -5.393 -24.074  1.00  0.00     0.070 C 
HETATM   12  N2  UNL     1      32.342  -4.817 -23.394  1.00  0.00    -0.389 N 
ATOM     13  H22 UNL     1      32.933  -5.345 -22.752  1.00  0.00     0.157 HD
ATOM     14  H21 UNL     1      32.483  -3.819 -23.553  1.00  0.00     0.157 HD
BRANCH  11  15
HETATM   15  C7  UNL     1      31.171  -6.838 -23.843  1.00  0.00     0.075 C 
BRANCH  15  16
HETATM   16  C6  UNL     1      31.057  -7.155 -22.367  1.00  0.00     0.007 C 
BRANCH  16  17
HETATM   17  C5  UNL     1      29.726  -6.752 -21.809  1.00  0.00     0.002 C 
BRANCH  17  18
HETATM   18  C4  UNL     1      28.546  -7.302 -22.570  1.00  0.00     0.028 C 
BRANCH  18  19
HETATM   19  C3  UNL     1      28.276  -8.727 -22.163  1.00  0.00     0.237 C 
BRANCH  19  20
HETATM   20  N1  UNL     1      27.965  -9.568 -23.279  1.00  0.00    -0.067 N 
HETATM   21  C22 UNL     1      28.870 -10.705 -23.248  1.00  0.00     0.237 C 
HETATM   22  C23 UNL     1      29.945 -10.410 -24.269  1.00  0.00     0.029 C 
HETATM   23  C24 UNL     1      29.110  -9.720 -25.353  1.00  0.00     0.029 C 
HETATM   24  C25 UNL     1      28.205  -8.855 -24.494  1.00  0.00     0.237 C 
BRANCH  20  25
HETATM   25  C2  UNL     1      26.623 -10.090 -23.289  1.00  0.00     0.233 C 
HETATM   26  C1  UNL     1      26.152 -10.567 -21.952  1.00  0.00     0.035 C 
ENDBRANCH  20  25
ENDBRANCH  19  20
ENDBRANCH  18  19
ENDBRANCH  17  18
ENDBRANCH  16  17
ENDBRANCH  15  16
ENDBRANCH  11  15
ENDBRANCH   9  11
ENDBRANCH   1   9
BRANCH   8  27
HETATM   27  C21 UNL     1      28.174  -3.039 -24.560  1.00  0.00     0.237 C 
HETATM   28  N8  UNL     1      27.480  -2.974 -23.333  1.00  0.00    -0.062 NA
HETATM   29  O2  UNL     1      28.861  -1.987 -24.830  1.00  0.00    -0.276 OA
ENDBRANCH   8  27
BRANCH   4  30
HETATM   30  C12 UNL     1      26.537  -5.222 -29.397  1.00  0.00     0.103 C 
BRANCH  30  31
HETATM   31  C13 UNL     1      26.334  -6.245 -30.474  1.00  0.00     0.009 C 
BRANCH  31  32
HETATM   32  C14 UNL     1      26.992  -7.539 -30.113  1.00  0.00     0.002 C 
BRANCH  32  33
HETATM   33  C15 UNL     1      27.971  -8.046 -31.133  1.00  0.00     0.020 C 
BRANCH  33  34
HETATM   34  C16 UNL     1      29.169  -8.599 -30.376  1.00  0.00     0.122 C 
BRANCH  34  35
HETATM   35  N5  UNL     1      30.127  -7.559 -30.098  1.00  0.00    -0.367 N 
HETATM   36  C17 UNL     1      31.203  -7.692 -29.433  1.00  0.00     0.196 C 
HETATM   37  N6  UNL     1      32.002  -6.497 -29.290  1.00  0.00    -0.067 NA
HETATM   38  N7  UNL     1      31.657  -8.883 -28.843  1.00  0.00    -0.067 NA
ATOM     39  H5  UNL     1      29.923  -6.631 -30.469  1.00  0.00     0.161 HD
ENDBRANCH  34  35
ENDBRANCH  33  34
ENDBRANCH  32  33
ENDBRANCH  31  32
ENDBRANCH  30  31
ENDBRANCH   4  30
TORSDOF 16
ENDMDL
