MODEL 1
REMARK VINA RESULT: -9.076485999      0.000      0.000
REMARK  14 active torsions:
REMARK  status: ('A' for Active; 'I' for Inactive)
REMARK    1  A    between atoms: N1_2  and  C2_5 
REMARK    2  A    between atoms: C4_8  and  C5_9 
REMARK    3  A    between atoms: C5_9  and  C6_10 
REMARK    4  A    between atoms: C9_13  and  O2_14 
REMARK    5  A    between atoms: C11_22  and  C12_23 
REMARK    6  A    between atoms: C12_23  and  C13_24 
REMARK    7  A    between atoms: C13_24  and  C14_25 
REMARK    8  A    between atoms: C14_25  and  C15_26 
REMARK    9  A    between atoms: C15_26  and  C16_27 
REMARK   10  A    between atoms: C16_27  and  C17_28 
REMARK   11  A    between atoms: C21_35  and  C22_36 
REMARK   12  A    between atoms: C22_36  and  C23_37 
REMARK   13  A    between atoms: C27_44  and  C28_45 
REMARK   14  A    between atoms: C28_45  and  C29_46 
ROOT
HETATM    1  C2  UNL     1      30.479   7.376  23.393  1.00  0.00     0.209 C 
HETATM    2  C3  UNL     1      30.322   8.838  23.741  1.00  0.00     0.202 C 
HETATM    3  O1  UNL     1      29.041   9.184  23.315  1.00  0.00    -0.368 OA
HETATM    4  C4  UNL     1      28.137   8.866  24.333  1.00  0.00     0.150 C 
HETATM    5  C10 UNL     1      28.349   9.833  25.419  1.00  0.00     0.254 C 
HETATM    6  O3  UNL     1      28.889  10.931  24.993  1.00  0.00    -0.270 OA
HETATM    7  N3  UNL     1      28.083   9.790  26.775  1.00  0.00    -0.345 N 
ATOM      8  H3  UNL     1      27.354  10.439  27.073  1.00  0.00     0.163 HD
HETATM    9  C11 UNL     1      28.638   9.002  27.852  1.00  0.00     0.176 C 
HETATM   10  C20 UNL     1      27.487   8.482  28.635  1.00  0.00     0.241 C 
HETATM   11  O4  UNL     1      26.909   9.313  29.400  1.00  0.00    -0.271 OA
HETATM   12  N4  UNL     1      26.984   7.179  28.610  1.00  0.00    -0.346 N 
ATOM     13  H4  UNL     1      25.983   7.077  28.778  1.00  0.00     0.163 HD
HETATM   14  C21 UNL     1      27.719   5.962  28.373  1.00  0.00     0.177 C 
HETATM   15  C26 UNL     1      26.841   4.922  27.735  1.00  0.00     0.240 C 
HETATM   16  O5  UNL     1      26.451   3.969  28.452  1.00  0.00    -0.271 OA
HETATM   17  N5  UNL     1      26.428   4.942  26.396  1.00  0.00    -0.355 N 
ATOM     18  H5  UNL     1      25.450   4.708  26.221  1.00  0.00     0.162 HD
HETATM   19  C27 UNL     1      27.232   5.258  25.235  1.00  0.00     0.085 C 
HETATM   20  C33 UNL     1      26.995   6.707  24.872  1.00  0.00     0.033 C 
HETATM   21  C34 UNL     1      28.304   7.424  24.647  1.00  0.00     0.034 C 
HETATM   22  C35 UNL     1      29.083   6.750  23.525  1.00  0.00     0.043 C 
ENDROOT
BRANCH   4  23
HETATM   23  C5  UNL     1      26.768   9.177  23.745  1.00  0.00     0.105 C 
BRANCH  23  24
HETATM   24  C6  UNL     1      26.818  10.159  22.638  1.00  0.00     0.014 A 
HETATM   25  C7  UNL     1      26.199  10.014  21.397  1.00  0.00     0.029 A 
HETATM   26  C8  UNL     1      26.460  11.121  20.649  1.00  0.00     0.058 A 
HETATM   27  C9  UNL     1      27.232  11.942  21.419  1.00  0.00     0.140 A 
HETATM   28  N2  UNL     1      27.440  11.363  22.600  1.00  0.00    -0.341 N 
ATOM     29  H2  UNL     1      27.987  11.765  23.362  1.00  0.00     0.167 HD
BRANCH  27  30
HETATM   30  O2  UNL     1      27.735  13.195  21.049  1.00  0.00    -0.346 OA
ATOM     31  H2  UNL     1      28.651  13.431  20.964  1.00  0.00     0.219 HD
ENDBRANCH  27  30
ENDBRANCH  23  24
ENDBRANCH   4  23
BRANCH   1  32
HETATM   32  N1  UNL     1      30.814   7.306  21.984  1.00  0.00    -0.073 N 
HETATM   33  C1  UNL     1      29.840   6.627  21.187  1.00  0.00     0.267 C 
ATOM     34  H12 UNL     1      31.736   6.888  21.855  1.00  0.00     0.277 HD
ATOM     35  H11 UNL     1      30.994   8.238  21.612  1.00  0.00     0.277 HD
ENDBRANCH   1  32
BRANCH   9  36
HETATM   36  C12 UNL     1      29.359   9.989  28.771  1.00  0.00     0.035 C 
BRANCH  36  37
HETATM   37  C13 UNL     1      30.449   9.377  29.577  1.00  0.00     0.002 C 
BRANCH  37  38
HETATM   38  C14 UNL     1      30.456  10.187  30.908  1.00  0.00     0.000 C 
BRANCH  38  39
HETATM   39  C15 UNL     1      30.016  11.577  30.674  1.00  0.00     0.000 C 
BRANCH  39  40
HETATM   40  C16 UNL     1      31.118  12.532  30.480  1.00  0.00     0.004 C 
BRANCH  40  41
HETATM   41  C17 UNL     1      31.540  12.931  29.127  1.00  0.00    -0.023 C 
HETATM   42  C18 UNL     1      30.620  13.754  28.306  1.00  0.00     0.009 C 
HETATM   43  C19 UNL     1      32.911  13.597  29.107  1.00  0.00     0.009 C 
ENDBRANCH  40  41
ENDBRANCH  39  40
ENDBRANCH  38  39
ENDBRANCH  37  38
ENDBRANCH  36  37
ENDBRANCH   9  36
BRANCH  19  44
HETATM   44  C28 UNL     1      26.893   4.366  24.085  1.00  0.00     0.033 C 
BRANCH  44  45
HETATM   45  C29 UNL     1      27.774   3.222  23.802  1.00  0.00    -0.050 C 
HETATM   46  C30 UNL     1      29.172   3.348  24.350  1.00  0.00     0.014 C 
HETATM   47  C31 UNL     1      27.967   3.237  22.256  1.00  0.00     0.014 C 
HETATM   48  C32 UNL     1      27.132   1.890  24.075  1.00  0.00     0.014 C 
ENDBRANCH  44  45
ENDBRANCH  19  44
BRANCH  14  49
HETATM   49  C22 UNL     1      28.423   5.504  29.580  1.00  0.00     0.038 C 
BRANCH  49  50
HETATM   50  C23 UNL     1      29.837   5.854  29.811  1.00  0.00    -0.020 C 
HETATM   51  C24 UNL     1      30.742   5.814  28.608  1.00  0.00     0.009 C 
HETATM   52  C25 UNL     1      30.409   4.800  30.795  1.00  0.00     0.009 C 
ENDBRANCH  49  50
ENDBRANCH  14  49
TORSDOF 14
ENDMDL
MODEL 2
REMARK VINA RESULT: -8.491121240     10.993     17.096
REMARK  14 active torsions:
REMARK  status: ('A' for Active; 'I' for Inactive)
REMARK    1  A    between atoms: N1_2  and  C2_5 
REMARK    2  A    between atoms: C4_8  and  C5_9 
REMARK    3  A    between atoms: C5_9  and  C6_10 
REMARK    4  A    between atoms: C9_13  and  O2_14 
REMARK    5  A    between atoms: C11_22  and  C12_23 
REMARK    6  A    between atoms: C12_23  and  C13_24 
REMARK    7  A    between atoms: C13_24  and  C14_25 
REMARK    8  A    between atoms: C14_25  and  C15_26 
REMARK    9  A    between atoms: C15_26  and  C16_27 
REMARK   10  A    between atoms: C16_27  and  C17_28 
REMARK   11  A    between atoms: C21_35  and  C22_36 
REMARK   12  A    between atoms: C22_36  and  C23_37 
REMARK   13  A    between atoms: C27_44  and  C28_45 
REMARK   14  A    between atoms: C28_45  and  C29_46 
ROOT
HETATM    1  C2  UNL     1      28.143  -6.996  22.800  1.00  0.00     0.209 C 
HETATM    2  C3  UNL     1      27.240  -8.205  22.721  1.00  0.00     0.202 C 
HETATM    3  O1  UNL     1      26.286  -8.021  23.720  1.00  0.00    -0.368 OA
HETATM    4  C4  UNL     1      25.251  -7.239  23.202  1.00  0.00     0.150 C 
HETATM    5  C10 UNL     1      24.508  -8.076  22.249  1.00  0.00     0.254 C 
HETATM    6  O3  UNL     1      24.658  -9.340  22.495  1.00  0.00    -0.270 OA
HETATM    7  N3  UNL     1      23.700  -7.773  21.170  1.00  0.00    -0.345 N 
ATOM      8  H3  UNL     1      22.718  -8.014  21.311  1.00  0.00     0.163 HD
HETATM    9  C11 UNL     1      23.976  -7.180  19.882  1.00  0.00     0.176 C 
HETATM   10  C20 UNL     1      22.940  -6.137  19.664  1.00  0.00     0.241 C 
HETATM   11  O4  UNL     1      21.786  -6.553  19.341  1.00  0.00    -0.271 OA
HETATM   12  N4  UNL     1      23.112  -4.755  19.777  1.00  0.00    -0.346 N 
ATOM     13  H4  UNL     1      22.296  -4.220  20.077  1.00  0.00     0.163 HD
HETATM   14  C21 UNL     1      24.312  -3.999  19.520  1.00  0.00     0.177 C 
HETATM   15  C26 UNL     1      24.360  -2.764  20.375  1.00  0.00     0.240 C 
HETATM   16  O5  UNL     1      24.133  -1.662  19.819  1.00  0.00    -0.271 OA
HETATM   17  N5  UNL     1      24.640  -2.756  21.747  1.00  0.00    -0.355 N 
ATOM     18  H5  UNL     1      24.057  -2.151  22.326  1.00  0.00     0.162 HD
HETATM   19  C27 UNL     1      25.665  -3.510  22.437  1.00  0.00     0.085 C 
HETATM   20  C33 UNL     1      25.030  -4.754  23.020  1.00  0.00     0.033 C 
HETATM   21  C34 UNL     1      25.851  -5.978  22.695  1.00  0.00     0.034 C 
HETATM   22  C35 UNL     1      27.258  -5.827  23.257  1.00  0.00     0.043 C 
ENDROOT
BRANCH   4  23
HETATM   23  C5  UNL     1      24.318  -7.003  24.382  1.00  0.00     0.105 C 
BRANCH  23  24
HETATM   24  C6  UNL     1      25.003  -7.079  25.692  1.00  0.00     0.014 A 
HETATM   25  C7  UNL     1      25.354  -5.989  26.488  1.00  0.00     0.029 A 
HETATM   26  C8  UNL     1      25.956  -6.452  27.617  1.00  0.00     0.058 A 
HETATM   27  C9  UNL     1      25.978  -7.813  27.522  1.00  0.00     0.140 A 
HETATM   28  N2  UNL     1      25.409  -8.179  26.374  1.00  0.00    -0.341 N 
ATOM     29  H2  UNL     1      25.297  -9.141  26.056  1.00  0.00     0.167 HD
BRANCH  27  30
HETATM   30  O2  UNL     1      26.505  -8.704  28.464  1.00  0.00    -0.346 OA
ATOM     31  H2  UNL     1      26.071  -9.016  29.250  1.00  0.00     0.219 HD
ENDBRANCH  27  30
ENDBRANCH  23  24
ENDBRANCH   4  23
BRANCH   1  32
HETATM   32  N1  UNL     1      29.079  -7.233  23.882  1.00  0.00    -0.073 N 
HETATM   33  C1  UNL     1      29.942  -8.352  23.672  1.00  0.00     0.267 C 
ATOM     34  H12 UNL     1      28.584  -7.324  24.770  1.00  0.00     0.277 HD
ATOM     35  H11 UNL     1      29.624  -6.391  24.075  1.00  0.00     0.277 HD
ENDBRANCH   1  32
BRANCH   9  36
HETATM   36  C12 UNL     1      23.700  -8.269  18.845  1.00  0.00     0.035 C 
BRANCH  36  37
HETATM   37  C13 UNL     1      24.894  -9.081  18.490  1.00  0.00     0.002 C 
BRANCH  37  38
HETATM   38  C14 UNL     1      25.289  -8.598  17.062  1.00  0.00     0.000 C 
BRANCH  38  39
HETATM   39  C15 UNL     1      26.697  -8.154  17.034  1.00  0.00     0.000 C 
BRANCH  39  40
HETATM   40  C16 UNL     1      27.325  -8.063  18.360  1.00  0.00     0.004 C 
BRANCH  40  41
HETATM   41  C17 UNL     1      28.192  -6.925  18.708  1.00  0.00    -0.023 C 
HETATM   42  C18 UNL     1      27.618  -5.801  19.486  1.00  0.00     0.009 C 
HETATM   43  C19 UNL     1      29.488  -7.353  19.386  1.00  0.00     0.009 C 
ENDBRANCH  40  41
ENDBRANCH  39  40
ENDBRANCH  38  39
ENDBRANCH  37  38
ENDBRANCH  36  37
ENDBRANCH   9  36
BRANCH  19  44
HETATM   44  C28 UNL     1      26.305  -2.694  23.513  1.00  0.00     0.033 C 
BRANCH  44  45
HETATM   45  C29 UNL     1      27.644  -2.136  23.266  1.00  0.00    -0.050 C 
HETATM   46  C30 UNL     1      28.639  -2.364  24.373  1.00  0.00     0.014 C 
HETATM   47  C31 UNL     1      27.438  -0.591  23.248  1.00  0.00     0.014 C 
HETATM   48  C32 UNL     1      28.179  -2.446  21.895  1.00  0.00     0.014 C 
ENDBRANCH  44  45
ENDBRANCH  19  44
BRANCH  14  49
HETATM   49  C22 UNL     1      24.505  -3.751  18.084  1.00  0.00     0.038 C 
BRANCH  49  50
HETATM   50  C23 UNL     1      25.116  -4.773  17.213  1.00  0.00    -0.020 C 
HETATM   51  C24 UNL     1      26.251  -4.314  16.336  1.00  0.00     0.009 C 
HETATM   52  C25 UNL     1      24.010  -5.259  16.240  1.00  0.00     0.009 C 
ENDBRANCH  49  50
ENDBRANCH  14  49
TORSDOF 14
ENDMDL
MODEL 3
REMARK VINA RESULT: -8.399806271     10.874     17.055
REMARK  14 active torsions:
REMARK  status: ('A' for Active; 'I' for Inactive)
REMARK    1  A    between atoms: N1_2  and  C2_5 
REMARK    2  A    between atoms: C4_8  and  C5_9 
REMARK    3  A    between atoms: C5_9  and  C6_10 
REMARK    4  A    between atoms: C9_13  and  O2_14 
REMARK    5  A    between atoms: C11_22  and  C12_23 
REMARK    6  A    between atoms: C12_23  and  C13_24 
REMARK    7  A    between atoms: C13_24  and  C14_25 
REMARK    8  A    between atoms: C14_25  and  C15_26 
REMARK    9  A    between atoms: C15_26  and  C16_27 
REMARK   10  A    between atoms: C16_27  and  C17_28 
REMARK   11  A    between atoms: C21_35  and  C22_36 
REMARK   12  A    between atoms: C22_36  and  C23_37 
REMARK   13  A    between atoms: C27_44  and  C28_45 
REMARK   14  A    between atoms: C28_45  and  C29_46 
ROOT
HETATM    1  C2  UNL     1      28.208  -6.946  22.752  1.00  0.00     0.209 C 
HETATM    2  C3  UNL     1      27.329  -8.169  22.638  1.00  0.00     0.202 C 
HETATM    3  O1  UNL     1      26.370  -8.032  23.640  1.00  0.00    -0.368 OA
HETATM    4  C4  UNL     1      25.321  -7.256  23.141  1.00  0.00     0.150 C 
HETATM    5  C10 UNL     1      24.596  -8.080  22.164  1.00  0.00     0.254 C 
HETATM    6  O3  UNL     1      24.770  -9.347  22.375  1.00  0.00    -0.270 OA
HETATM    7  N3  UNL     1      23.783  -7.764  21.092  1.00  0.00    -0.345 N 
ATOM      8  H3  UNL     1      22.807  -8.027  21.224  1.00  0.00     0.163 HD
HETATM    9  C11 UNL     1      24.050  -7.130  19.821  1.00  0.00     0.176 C 
HETATM   10  C20 UNL     1      22.994  -6.102  19.629  1.00  0.00     0.241 C 
HETATM   11  O4  UNL     1      21.849  -6.532  19.293  1.00  0.00    -0.271 OA
HETATM   12  N4  UNL     1      23.140  -4.720  19.782  1.00  0.00    -0.346 N 
ATOM     13  H4  UNL     1      22.313  -4.210  20.094  1.00  0.00     0.163 HD
HETATM   14  C21 UNL     1      24.325  -3.935  19.548  1.00  0.00     0.177 C 
HETATM   15  C26 UNL     1      24.347  -2.723  20.436  1.00  0.00     0.240 C 
HETATM   16  O5  UNL     1      24.100  -1.610  19.910  1.00  0.00    -0.271 OA
HETATM   17  N5  UNL     1      24.626  -2.747  21.809  1.00  0.00    -0.355 N 
ATOM     18  H5  UNL     1      24.030  -2.170  22.402  1.00  0.00     0.162 HD
HETATM   19  C27 UNL     1      25.664  -3.500  22.480  1.00  0.00     0.085 C 
HETATM   20  C33 UNL     1      25.052  -4.771  23.027  1.00  0.00     0.033 C 
HETATM   21  C34 UNL     1      25.897  -5.970  22.670  1.00  0.00     0.034 C 
HETATM   22  C35 UNL     1      27.300  -5.808  23.239  1.00  0.00     0.043 C 
ENDROOT
BRANCH   4  23
HETATM   23  C5  UNL     1      24.381  -7.071  24.325  1.00  0.00     0.105 C 
BRANCH  23  24
HETATM   24  C6  UNL     1      25.068  -7.155  25.634  1.00  0.00     0.014 A 
HETATM   25  C7  UNL     1      25.387  -6.073  26.453  1.00  0.00     0.029 A 
HETATM   26  C8  UNL     1      26.003  -6.543  27.573  1.00  0.00     0.058 A 
HETATM   27  C9  UNL     1      26.063  -7.900  27.448  1.00  0.00     0.140 A 
HETATM   28  N2  UNL     1      25.506  -8.257  26.292  1.00  0.00    -0.341 N 
ATOM     29  H2  UNL     1      25.422  -9.215  25.953  1.00  0.00     0.167 HD
BRANCH  27  30
HETATM   30  O2  UNL     1      26.617  -8.795  28.372  1.00  0.00    -0.346 OA
ATOM     31  H2  UNL     1      27.499  -8.767  28.724  1.00  0.00     0.219 HD
ENDBRANCH  27  30
ENDBRANCH  23  24
ENDBRANCH   4  23
BRANCH   1  32
HETATM   32  N1  UNL     1      29.147  -7.194  23.830  1.00  0.00    -0.073 N 
HETATM   33  C1  UNL     1      29.970  -8.346  23.632  1.00  0.00     0.267 C 
ATOM     34  H12 UNL     1      28.659  -7.252  24.724  1.00  0.00     0.277 HD
ATOM     35  H11 UNL     1      29.722  -6.368  24.001  1.00  0.00     0.277 HD
ENDBRANCH   1  32
BRANCH   9  36
HETATM   36  C12 UNL     1      23.797  -8.196  18.755  1.00  0.00     0.035 C 
BRANCH  36  37
HETATM   37  C13 UNL     1      24.647  -8.052  17.543  1.00  0.00     0.002 C 
BRANCH  37  38
HETATM   38  C14 UNL     1      26.036  -7.603  18.088  1.00  0.00     0.000 C 
BRANCH  38  39
HETATM   39  C15 UNL     1      27.088  -7.820  17.074  1.00  0.00     0.000 C 
BRANCH  39  40
HETATM   40  C16 UNL     1      28.179  -6.835  17.120  1.00  0.00     0.004 C 
BRANCH  40  41
HETATM   41  C17 UNL     1      28.906  -6.457  15.897  1.00  0.00    -0.023 C 
HETATM   42  C18 UNL     1      29.157  -5.020  15.631  1.00  0.00     0.009 C 
HETATM   43  C19 UNL     1      30.227  -7.203  15.738  1.00  0.00     0.009 C 
ENDBRANCH  40  41
ENDBRANCH  39  40
ENDBRANCH  38  39
ENDBRANCH  37  38
ENDBRANCH  36  37
ENDBRANCH   9  36
BRANCH  19  44
HETATM   44  C28 UNL     1      26.286  -2.701  23.579  1.00  0.00     0.033 C 
BRANCH  44  45
HETATM   45  C29 UNL     1      27.539  -1.982  23.299  1.00  0.00    -0.050 C 
HETATM   46  C30 UNL     1      28.221  -2.374  22.014  1.00  0.00     0.014 C 
HETATM   47  C31 UNL     1      28.525  -2.446  24.413  1.00  0.00     0.014 C 
HETATM   48  C32 UNL     1      27.434  -0.496  23.502  1.00  0.00     0.014 C 
ENDBRANCH  44  45
ENDBRANCH  19  44
BRANCH  14  49
HETATM   49  C22 UNL     1      24.516  -3.644  18.119  1.00  0.00     0.038 C 
BRANCH  49  50
HETATM   50  C23 UNL     1      25.797  -3.937  17.450  1.00  0.00    -0.020 C 
HETATM   51  C24 UNL     1      26.685  -2.755  17.158  1.00  0.00     0.009 C 
HETATM   52  C25 UNL     1      25.457  -4.552  16.068  1.00  0.00     0.009 C 
ENDBRANCH  49  50
ENDBRANCH  14  49
TORSDOF 14
ENDMDL
MODEL 4
REMARK VINA RESULT: -8.362243847     10.619     17.281
REMARK  14 active torsions:
REMARK  status: ('A' for Active; 'I' for Inactive)
REMARK    1  A    between atoms: N1_2  and  C2_5 
REMARK    2  A    between atoms: C4_8  and  C5_9 
REMARK    3  A    between atoms: C5_9  and  C6_10 
REMARK    4  A    between atoms: C9_13  and  O2_14 
REMARK    5  A    between atoms: C11_22  and  C12_23 
REMARK    6  A    between atoms: C12_23  and  C13_24 
REMARK    7  A    between atoms: C13_24  and  C14_25 
REMARK    8  A    between atoms: C14_25  and  C15_26 
REMARK    9  A    between atoms: C15_26  and  C16_27 
REMARK   10  A    between atoms: C16_27  and  C17_28 
REMARK   11  A    between atoms: C21_35  and  C22_36 
REMARK   12  A    between atoms: C22_36  and  C23_37 
REMARK   13  A    between atoms: C27_44  and  C28_45 
REMARK   14  A    between atoms: C28_45  and  C29_46 
ROOT
HETATM    1  C2  UNL     1      28.379  -6.971  23.214  1.00  0.00     0.209 C 
HETATM    2  C3  UNL     1      27.468  -8.161  23.030  1.00  0.00     0.202 C 
HETATM    3  O1  UNL     1      26.451  -7.998  23.969  1.00  0.00    -0.368 OA
HETATM    4  C4  UNL     1      25.463  -7.181  23.411  1.00  0.00     0.150 C 
HETATM    5  C10 UNL     1      24.776  -7.972  22.380  1.00  0.00     0.254 C 
HETATM    6  O3  UNL     1      24.892  -9.246  22.589  1.00  0.00    -0.270 OA
HETATM    7  N3  UNL     1      24.047  -7.618  21.261  1.00  0.00    -0.345 N 
ATOM      8  H3  UNL     1      23.055  -7.848  21.326  1.00  0.00     0.163 HD
HETATM    9  C11 UNL     1      24.418  -6.984  20.017  1.00  0.00     0.176 C 
HETATM   10  C20 UNL     1      23.413  -5.917  19.768  1.00  0.00     0.241 C 
HETATM   11  O4  UNL     1      22.278  -6.303  19.353  1.00  0.00    -0.271 OA
HETATM   12  N4  UNL     1      23.596  -4.543  19.943  1.00  0.00    -0.346 N 
ATOM     13  H4  UNL     1      22.770  -4.006  20.207  1.00  0.00     0.163 HD
HETATM   14  C21 UNL     1      24.821  -3.798  19.796  1.00  0.00     0.177 C 
HETATM   15  C26 UNL     1      24.827  -2.595  20.697  1.00  0.00     0.240 C 
HETATM   16  O5  UNL     1      24.654  -1.470  20.168  1.00  0.00    -0.271 OA
HETATM   17  N5  UNL     1      25.014  -2.641  22.084  1.00  0.00    -0.355 N 
ATOM     18  H5  UNL     1      24.401  -2.047  22.643  1.00  0.00     0.162 HD
HETATM   19  C27 UNL     1      25.980  -3.435  22.814  1.00  0.00     0.085 C 
HETATM   20  C33 UNL     1      25.289  -4.688  23.306  1.00  0.00     0.033 C 
HETATM   21  C34 UNL     1      26.114  -5.913  22.992  1.00  0.00     0.034 C 
HETATM   22  C35 UNL     1      27.482  -5.805  23.653  1.00  0.00     0.043 C 
ENDROOT
BRANCH   4  23
HETATM   23  C5  UNL     1      24.456  -6.973  24.533  1.00  0.00     0.105 C 
BRANCH  23  24
HETATM   24  C6  UNL     1      25.056  -7.075  25.883  1.00  0.00     0.014 A 
HETATM   25  C7  UNL     1      25.343  -6.002  26.726  1.00  0.00     0.029 A 
HETATM   26  C8  UNL     1      25.876  -6.488  27.880  1.00  0.00     0.058 A 
HETATM   27  C9  UNL     1      25.917  -7.846  27.754  1.00  0.00     0.140 A 
HETATM   28  N2  UNL     1      25.428  -8.188  26.563  1.00  0.00    -0.341 N 
ATOM     29  H2  UNL     1      25.346  -9.143  26.215  1.00  0.00     0.167 HD
BRANCH  27  30
HETATM   30  O2  UNL     1      26.393  -8.755  28.707  1.00  0.00    -0.346 OA
ATOM     31  H2  UNL     1      26.947  -8.552  29.452  1.00  0.00     0.219 HD
ENDBRANCH  27  30
ENDBRANCH  23  24
ENDBRANCH   4  23
BRANCH   1  32
HETATM   32  N1  UNL     1      29.236  -7.261  24.348  1.00  0.00    -0.073 N 
HETATM   33  C1  UNL     1      29.938  -8.502  24.245  1.00  0.00     0.267 C 
ATOM     34  H12 UNL     1      28.705  -7.221  25.218  1.00  0.00     0.277 HD
ATOM     35  H11 UNL     1      29.888  -6.493  24.509  1.00  0.00     0.277 HD
ENDBRANCH   1  32
BRANCH   9  36
HETATM   36  C12 UNL     1      24.199  -8.031  18.925  1.00  0.00     0.035 C 
BRANCH  36  37
HETATM   37  C13 UNL     1      25.379  -8.900  18.676  1.00  0.00     0.002 C 
BRANCH  37  38
HETATM   38  C14 UNL     1      25.272  -9.289  17.171  1.00  0.00     0.000 C 
BRANCH  38  39
HETATM   39  C15 UNL     1      25.269  -8.081  16.320  1.00  0.00     0.000 C 
BRANCH  39  40
HETATM   40  C16 UNL     1      24.179  -8.044  15.333  1.00  0.00     0.004 C 
BRANCH  40  41
HETATM   41  C17 UNL     1      23.232  -6.918  15.297  1.00  0.00    -0.023 C 
HETATM   42  C18 UNL     1      21.872  -7.111  15.855  1.00  0.00     0.009 C 
HETATM   43  C19 UNL     1      23.809  -5.639  15.894  1.00  0.00     0.009 C 
ENDBRANCH  40  41
ENDBRANCH  39  40
ENDBRANCH  38  39
ENDBRANCH  37  38
ENDBRANCH  36  37
ENDBRANCH   9  36
BRANCH  19  44
HETATM   44  C28 UNL     1      26.556  -2.668  23.959  1.00  0.00     0.033 C 
BRANCH  44  45
HETATM   45  C29 UNL     1      27.751  -1.843  23.719  1.00  0.00    -0.050 C 
HETATM   46  C30 UNL     1      28.384  -2.024  22.364  1.00  0.00     0.014 C 
HETATM   47  C31 UNL     1      28.819  -2.385  24.716  1.00  0.00     0.014 C 
HETATM   48  C32 UNL     1      27.576  -0.405  24.120  1.00  0.00     0.014 C 
ENDBRANCH  44  45
ENDBRANCH  19  44
BRANCH  14  49
HETATM   49  C22 UNL     1      25.115  -3.502  18.386  1.00  0.00     0.038 C 
BRANCH  49  50
HETATM   50  C23 UNL     1      26.481  -3.649  17.849  1.00  0.00    -0.020 C 
HETATM   51  C24 UNL     1      26.651  -3.397  16.373  1.00  0.00     0.009 C 
HETATM   52  C25 UNL     1      26.897  -5.126  18.068  1.00  0.00     0.009 C 
ENDBRANCH  49  50
ENDBRANCH  14  49
TORSDOF 14
ENDMDL
MODEL 5
REMARK VINA RESULT: -8.242133610     10.006     16.361
REMARK  14 active torsions:
REMARK  status: ('A' for Active; 'I' for Inactive)
REMARK    1  A    between atoms: N1_2  and  C2_5 
REMARK    2  A    between atoms: C4_8  and  C5_9 
REMARK    3  A    between atoms: C5_9  and  C6_10 
REMARK    4  A    between atoms: C9_13  and  O2_14 
REMARK    5  A    between atoms: C11_22  and  C12_23 
REMARK    6  A    between atoms: C12_23  and  C13_24 
REMARK    7  A    between atoms: C13_24  and  C14_25 
REMARK    8  A    between atoms: C14_25  and  C15_26 
REMARK    9  A    between atoms: C15_26  and  C16_27 
REMARK   10  A    between atoms: C16_27  and  C17_28 
REMARK   11  A    between atoms: C21_35  and  C22_36 
REMARK   12  A    between atoms: C22_36  and  C23_37 
REMARK   13  A    between atoms: C27_44  and  C28_45 
REMARK   14  A    between atoms: C28_45  and  C29_46 
ROOT
HETATM    1  C2  UNL     1      25.351  -5.193  23.046  1.00  0.00     0.209 C 
HETATM    2  C3  UNL     1      25.056  -3.878  22.361  1.00  0.00     0.202 C 
HETATM    3  O1  UNL     1      26.224  -3.128  22.481  1.00  0.00    -0.368 OA
HETATM    4  C4  UNL     1      27.074  -3.464  21.424  1.00  0.00     0.150 C 
HETATM    5  C10 UNL     1      26.493  -2.894  20.201  1.00  0.00     0.254 C 
HETATM    6  O3  UNL     1      25.711  -1.892  20.456  1.00  0.00    -0.270 OA
HETATM    7  N3  UNL     1      26.623  -3.219  18.863  1.00  0.00    -0.345 N 
ATOM      8  H3  UNL     1      27.107  -2.509  18.313  1.00  0.00     0.163 HD
HETATM    9  C11 UNL     1      26.207  -4.370  18.095  1.00  0.00     0.176 C 
HETATM   10  C20 UNL     1      27.373  -4.773  17.268  1.00  0.00     0.241 C 
HETATM   11  O4  UNL     1      27.615  -4.051  16.252  1.00  0.00    -0.271 OA
HETATM   12  N4  UNL     1      28.222  -5.859  17.497  1.00  0.00    -0.346 N 
ATOM     13  H4  UNL     1      29.189  -5.750  17.192  1.00  0.00     0.163 HD
HETATM   14  C21 UNL     1      27.885  -7.116  18.116  1.00  0.00     0.177 C 
HETATM   15  C26 UNL     1      29.079  -7.705  18.815  1.00  0.00     0.240 C 
HETATM   16  O5  UNL     1      29.646  -8.684  18.273  1.00  0.00    -0.271 OA
HETATM   17  N5  UNL     1      29.601  -7.239  20.028  1.00  0.00    -0.355 N 
ATOM     18  H5  UNL     1      30.617  -7.171  20.087  1.00  0.00     0.162 HD
HETATM   19  C27 UNL     1      28.861  -6.843  21.208  1.00  0.00     0.085 C 
HETATM   20  C33 UNL     1      28.716  -5.337  21.195  1.00  0.00     0.033 C 
HETATM   21  C34 UNL     1      27.288  -4.934  21.469  1.00  0.00     0.034 C 
HETATM   22  C35 UNL     1      26.846  -5.466  22.826  1.00  0.00     0.043 C 
ENDROOT
BRANCH   4  23
HETATM   23  C5  UNL     1      28.353  -2.684  21.693  1.00  0.00     0.105 C 
BRANCH  23  24
HETATM   24  C6  UNL     1      28.240  -1.759  22.844  1.00  0.00     0.014 A 
HETATM   25  C7  UNL     1      28.795  -1.964  24.107  1.00  0.00     0.029 A 
HETATM   26  C8  UNL     1      28.489  -0.897  24.895  1.00  0.00     0.058 A 
HETATM   27  C9  UNL     1      27.753  -0.040  24.128  1.00  0.00     0.140 A 
HETATM   28  N2  UNL     1      27.609  -0.560  22.910  1.00  0.00    -0.341 N 
ATOM     29  H2  UNL     1      27.101  -0.122  22.142  1.00  0.00     0.167 HD
BRANCH  27  30
HETATM   30  O2  UNL     1      27.224   1.191  24.532  1.00  0.00    -0.346 OA
ATOM     31  H2  UNL     1      26.957   1.427  25.413  1.00  0.00     0.219 HD
ENDBRANCH  27  30
ENDBRANCH  23  24
ENDBRANCH   4  23
BRANCH   1  32
HETATM   32  N1  UNL     1      25.191  -4.978  24.471  1.00  0.00    -0.073 N 
HETATM   33  C1  UNL     1      26.389  -5.169  25.226  1.00  0.00     0.267 C 
ATOM     34  H12 UNL     1      24.439  -5.560  24.839  1.00  0.00     0.277 HD
ATOM     35  H11 UNL     1      24.798  -4.054  24.652  1.00  0.00     0.277 HD
ENDBRANCH   1  32
BRANCH   9  36
HETATM   36  C12 UNL     1      25.150  -3.864  17.113  1.00  0.00     0.035 C 
BRANCH  36  37
HETATM   37  C13 UNL     1      24.115  -4.874  16.767  1.00  0.00     0.002 C 
BRANCH  37  38
HETATM   38  C14 UNL     1      23.674  -5.471  18.137  1.00  0.00     0.000 C 
BRANCH  38  39
HETATM   39  C15 UNL     1      22.702  -6.565  17.939  1.00  0.00     0.000 C 
BRANCH  39  40
HETATM   40  C16 UNL     1      21.838  -6.819  19.103  1.00  0.00     0.004 C 
BRANCH  40  41
HETATM   41  C17 UNL     1      22.308  -7.645  20.226  1.00  0.00    -0.023 C 
HETATM   42  C18 UNL     1      22.133  -7.138  21.608  1.00  0.00     0.009 C 
HETATM   43  C19 UNL     1      21.774  -9.072  20.178  1.00  0.00     0.009 C 
ENDBRANCH  40  41
ENDBRANCH  39  40
ENDBRANCH  38  39
ENDBRANCH  37  38
ENDBRANCH  36  37
ENDBRANCH   9  36
BRANCH  19  44
HETATM   44  C28 UNL     1      29.549  -7.295  22.454  1.00  0.00     0.033 C 
BRANCH  44  45
HETATM   45  C29 UNL     1      29.091  -8.537  23.096  1.00  0.00    -0.050 C 
HETATM   46  C30 UNL     1      27.772  -9.062  22.592  1.00  0.00     0.014 C 
HETATM   47  C31 UNL     1      28.805  -8.142  24.576  1.00  0.00     0.014 C 
HETATM   48  C32 UNL     1      30.162  -9.587  23.202  1.00  0.00     0.014 C 
ENDBRANCH  44  45
ENDBRANCH  19  44
BRANCH  14  49
HETATM   49  C22 UNL     1      27.221  -8.029  17.175  1.00  0.00     0.038 C 
BRANCH  49  50
HETATM   50  C23 UNL     1      25.768  -8.271  17.250  1.00  0.00    -0.020 C 
HETATM   51  C24 UNL     1      25.308  -9.271  18.278  1.00  0.00     0.009 C 
HETATM   52  C25 UNL     1      25.334  -8.855  15.881  1.00  0.00     0.009 C 
ENDBRANCH  49  50
ENDBRANCH  14  49
TORSDOF 14
ENDMDL
