MODEL 1
REMARK VINA RESULT: -8.923764048      0.000      0.000
REMARK  16 active torsions:
REMARK  status: ('A' for Active; 'I' for Inactive)
REMARK    1  A    between atoms: C2_2  and  C3_3 
REMARK    2  A    between atoms: C3_3  and  C4_4 
REMARK    3  A    between atoms: C4_4  and  N1_5 
REMARK    4  A    between atoms: N1_5  and  C5_7 
REMARK    5  A    between atoms: C5_7  and  C6_8 
REMARK    6  A    between atoms: C6_8  and  C7_9 
REMARK    7  A    between atoms: C7_9  and  C8_10 
REMARK    8  A    between atoms: C8_10  and  N2_11 
REMARK    9  A    between atoms: N2_11  and  C9_14 
REMARK   10  A    between atoms: C9_14  and  C10_15 
REMARK   11  A    between atoms: C10_15  and  C11_16 
REMARK   12  A    between atoms: C11_16  and  N3_17 
REMARK       I    between atoms: N3_17  and  C12_19 
REMARK   13  A    between atoms: C12_19  and  C13_21 
REMARK   14  A    between atoms: C21_29  and  O2_30 
REMARK   15  A    between atoms: C32_42  and  O3_43 
REMARK   16  A    between atoms: C35_47  and  O4_48 
ROOT
HETATM    1  C13 UNL     1      27.943   0.153  23.088  1.00  0.00     0.214 C 
HETATM    2  C14 UNL     1      28.495  -0.992  23.932  1.00  0.00     0.053 C 
HETATM    3  C15 UNL     1      27.498  -2.108  23.571  1.00  0.00    -0.015 C 
HETATM    4  C16 UNL     1      26.404  -2.006  24.578  1.00  0.00     0.018 C 
HETATM    5  C17 UNL     1      28.112  -3.448  23.440  1.00  0.00     0.012 C 
HETATM    6  C18 UNL     1      28.312  -3.899  22.034  1.00  0.00     0.007 C 
HETATM    7  C19 UNL     1      27.128  -3.766  21.118  1.00  0.00     0.003 C 
HETATM    8  C20 UNL     1      26.338  -2.490  21.357  1.00  0.00     0.049 C 
HETATM    9  C21 UNL     1      24.933  -2.728  21.788  1.00  0.00     0.125 C 
HETATM   10  C22 UNL     1      24.247  -3.579  20.785  1.00  0.00     0.040 C 
HETATM   11  C23 UNL     1      25.049  -4.723  20.224  1.00  0.00     0.031 C 
HETATM   12  C24 UNL     1      26.326  -5.005  20.943  1.00  0.00    -0.033 C 
HETATM   13  C25 UNL     1      27.154  -5.919  20.015  1.00  0.00     0.016 C 
HETATM   14  C26 UNL     1      26.132  -5.823  22.197  1.00  0.00     0.010 C 
HETATM   15  C27 UNL     1      25.267  -7.016  21.965  1.00  0.00     0.009 C 
HETATM   16  C28 UNL     1      23.948  -6.648  21.384  1.00  0.00     0.031 C 
HETATM   17  C29 UNL     1      22.996  -7.775  21.238  1.00  0.00    -0.015 C 
HETATM   18  C30 UNL     1      21.561  -7.292  21.454  1.00  0.00     0.018 C 
HETATM   19  C31 UNL     1      23.265  -8.780  22.365  1.00  0.00     0.018 C 
HETATM   20  C32 UNL     1      23.087  -8.537  19.954  1.00  0.00     0.126 C 
HETATM   21  C33 UNL     1      23.142  -7.640  18.733  1.00  0.00     0.035 C 
HETATM   22  C34 UNL     1      24.416  -6.797  18.916  1.00  0.00     0.041 C 
HETATM   23  C35 UNL     1      24.123  -5.891  20.094  1.00  0.00     0.067 C 
HETATM   24  C36 UNL     1      27.163  -1.616  22.194  1.00  0.00     0.137 C 
HETATM   25  O5  UNL     1      26.786  -0.335  22.447  1.00  0.00    -0.370 OA
ENDROOT
BRANCH   1  26
HETATM   26  C12 UNL     1      27.675   1.358  23.905  1.00  0.00     0.246 C 
HETATM   27  N3  UNL     1      26.392   1.805  24.250  1.00  0.00    -0.359 N 
ATOM     28  H3  UNL     1      25.594   1.266  23.912  1.00  0.00     0.162 HD
HETATM   29  O1  UNL     1      28.686   1.992  24.292  1.00  0.00    -0.271 OA
BRANCH  27  30
HETATM   30  C11 UNL     1      26.126   2.965  25.044  1.00  0.00     0.124 C 
BRANCH  30  31
HETATM   31  C10 UNL     1      26.007   4.200  24.224  1.00  0.00     0.047 C 
BRANCH  31  32
HETATM   32  C9  UNL     1      27.002   5.263  24.645  1.00  0.00     0.234 C 
BRANCH  32  33
HETATM   33  N2  UNL     1      28.337   4.996  24.209  1.00  0.00    -0.075 N 
ATOM     34  H22 UNL     1      28.638   4.071  24.515  1.00  0.00     0.277 HD
ATOM     35  H21 UNL     1      29.006   5.570  24.721  1.00  0.00     0.277 HD
BRANCH  33  36
HETATM   36  C8  UNL     1      28.516   5.146  22.793  1.00  0.00     0.232 C 
BRANCH  36  37
HETATM   37  C7  UNL     1      28.314   6.603  22.421  1.00  0.00     0.029 C 
BRANCH  37  38
HETATM   38  C6  UNL     1      29.352   7.087  21.464  1.00  0.00     0.021 C 
BRANCH  38  39
HETATM   39  C5  UNL     1      29.492   8.598  21.511  1.00  0.00     0.118 C 
BRANCH  39  40
HETATM   40  N1  UNL     1      28.686   9.258  20.542  1.00  0.00    -0.402 N 
ATOM     41  H1  UNL     1      28.545   8.867  19.611  1.00  0.00     0.158 HD
BRANCH  40  42
HETATM   42  C4  UNL     1      28.093  10.474  20.924  1.00  0.00     0.059 C 
BRANCH  42  43
HETATM   43  C3  UNL     1      26.657  10.390  21.353  1.00  0.00     0.070 C 
BRANCH  43  44
HETATM   44  C2  UNL     1      26.436  10.341  22.787  1.00  0.00    -0.032 C 
HETATM   45  C1  UNL     1      27.309  10.757  23.668  1.00  0.00     0.007 C 
ENDBRANCH  43  44
ENDBRANCH  42  43
ENDBRANCH  40  42
ENDBRANCH  39  40
ENDBRANCH  38  39
ENDBRANCH  37  38
ENDBRANCH  36  37
ENDBRANCH  33  36
ENDBRANCH  32  33
ENDBRANCH  31  32
ENDBRANCH  30  31
ENDBRANCH  27  30
ENDBRANCH   1  26
BRANCH   9  46
HETATM   46  O2  UNL     1      24.299  -1.459  21.760  1.00  0.00    -0.395 OA
ATOM     47  H2  UNL     1      23.608  -1.528  21.111  1.00  0.00     0.210 HD
ENDBRANCH   9  46
BRANCH  23  48
HETATM   48  O4  UNL     1      22.838  -5.359  19.803  1.00  0.00    -0.389 OA
ATOM     49  H4  UNL     1      22.213  -6.053  19.973  1.00  0.00     0.210 HD
ENDBRANCH  23  48
BRANCH  20  50
HETATM   50  O3  UNL     1      24.183  -9.397  19.909  1.00  0.00    -0.395 OA
ATOM     51  H3  UNL     1      23.938 -10.301  19.749  1.00  0.00     0.210 HD
ENDBRANCH  20  50
TORSDOF 16
ENDMDL
MODEL 2
REMARK VINA RESULT: -8.904926739      1.069      1.895
REMARK  16 active torsions:
REMARK  status: ('A' for Active; 'I' for Inactive)
REMARK    1  A    between atoms: C2_2  and  C3_3 
REMARK    2  A    between atoms: C3_3  and  C4_4 
REMARK    3  A    between atoms: C4_4  and  N1_5 
REMARK    4  A    between atoms: N1_5  and  C5_7 
REMARK    5  A    between atoms: C5_7  and  C6_8 
REMARK    6  A    between atoms: C6_8  and  C7_9 
REMARK    7  A    between atoms: C7_9  and  C8_10 
REMARK    8  A    between atoms: C8_10  and  N2_11 
REMARK    9  A    between atoms: N2_11  and  C9_14 
REMARK   10  A    between atoms: C9_14  and  C10_15 
REMARK   11  A    between atoms: C10_15  and  C11_16 
REMARK   12  A    between atoms: C11_16  and  N3_17 
REMARK       I    between atoms: N3_17  and  C12_19 
REMARK   13  A    between atoms: C12_19  and  C13_21 
REMARK   14  A    between atoms: C21_29  and  O2_30 
REMARK   15  A    between atoms: C32_42  and  O3_43 
REMARK   16  A    between atoms: C35_47  and  O4_48 
ROOT
HETATM    1  C13 UNL     1      27.962   0.143  23.121  1.00  0.00     0.214 C 
HETATM    2  C14 UNL     1      28.499  -0.990  23.990  1.00  0.00     0.053 C 
HETATM    3  C15 UNL     1      27.503  -2.109  23.632  1.00  0.00    -0.015 C 
HETATM    4  C16 UNL     1      26.397  -1.987  24.624  1.00  0.00     0.018 C 
HETATM    5  C17 UNL     1      28.115  -3.452  23.531  1.00  0.00     0.012 C 
HETATM    6  C18 UNL     1      28.331  -3.926  22.135  1.00  0.00     0.007 C 
HETATM    7  C19 UNL     1      27.160  -3.804  21.201  1.00  0.00     0.003 C 
HETATM    8  C20 UNL     1      26.371  -2.522  21.410  1.00  0.00     0.049 C 
HETATM    9  C21 UNL     1      24.960  -2.749  21.827  1.00  0.00     0.125 C 
HETATM   10  C22 UNL     1      24.285  -3.614  20.828  1.00  0.00     0.040 C 
HETATM   11  C23 UNL     1      25.090  -4.769  20.296  1.00  0.00     0.031 C 
HETATM   12  C24 UNL     1      26.357  -5.043  21.036  1.00  0.00    -0.033 C 
HETATM   13  C25 UNL     1      27.194  -5.974  20.133  1.00  0.00     0.016 C 
HETATM   14  C26 UNL     1      26.143  -5.841  22.299  1.00  0.00     0.010 C 
HETATM   15  C27 UNL     1      25.278  -7.035  22.076  1.00  0.00     0.009 C 
HETATM   16  C28 UNL     1      23.968  -6.672  21.471  1.00  0.00     0.031 C 
HETATM   17  C29 UNL     1      23.014  -7.798  21.331  1.00  0.00    -0.015 C 
HETATM   18  C30 UNL     1      21.578  -7.308  21.520  1.00  0.00     0.018 C 
HETATM   19  C31 UNL     1      23.266  -8.786  22.477  1.00  0.00     0.018 C 
HETATM   20  C32 UNL     1      23.120  -8.581  20.060  1.00  0.00     0.126 C 
HETATM   21  C33 UNL     1      23.193  -7.703  18.825  1.00  0.00     0.035 C 
HETATM   22  C34 UNL     1      24.467  -6.861  19.012  1.00  0.00     0.041 C 
HETATM   23  C35 UNL     1      24.162  -5.935  20.172  1.00  0.00     0.067 C 
HETATM   24  C36 UNL     1      27.187  -1.638  22.244  1.00  0.00     0.137 C 
HETATM   25  O5  UNL     1      26.811  -0.352  22.473  1.00  0.00    -0.370 OA
ENDROOT
BRANCH   1  26
HETATM   26  C12 UNL     1      27.687   1.361  23.915  1.00  0.00     0.246 C 
HETATM   27  N3  UNL     1      26.400   1.830  24.216  1.00  0.00    -0.359 N 
ATOM     28  H3  UNL     1      25.605   1.298  23.861  1.00  0.00     0.162 HD
HETATM   29  O1  UNL     1      28.695   1.986  24.325  1.00  0.00    -0.271 OA
BRANCH  27  30
HETATM   30  C11 UNL     1      26.127   3.004  24.989  1.00  0.00     0.124 C 
BRANCH  30  31
HETATM   31  C10 UNL     1      26.077   4.234  24.155  1.00  0.00     0.047 C 
BRANCH  31  32
HETATM   32  C9  UNL     1      27.070   5.281  24.619  1.00  0.00     0.234 C 
BRANCH  32  33
HETATM   33  N2  UNL     1      28.385   5.089  24.092  1.00  0.00    -0.075 N 
ATOM     34  H22 UNL     1      28.730   4.155  24.312  1.00  0.00     0.277 HD
ATOM     35  H21 UNL     1      29.065   5.647  24.607  1.00  0.00     0.277 HD
BRANCH  33  36
HETATM   36  C8  UNL     1      28.478   5.348  22.683  1.00  0.00     0.232 C 
BRANCH  36  37
HETATM   37  C7  UNL     1      28.269   6.831  22.438  1.00  0.00     0.029 C 
BRANCH  37  38
HETATM   38  C6  UNL     1      29.143   7.347  21.344  1.00  0.00     0.021 C 
BRANCH  38  39
HETATM   39  C5  UNL     1      29.406   8.835  21.497  1.00  0.00     0.118 C 
BRANCH  39  40
HETATM   40  N1  UNL     1      30.186   9.144  22.645  1.00  0.00    -0.402 N 
ATOM     41  H1  UNL     1      29.796   9.673  23.426  1.00  0.00     0.158 HD
BRANCH  40  42
HETATM   42  C4  UNL     1      31.516   8.691  22.657  1.00  0.00     0.059 C 
BRANCH  42  43
HETATM   43  C3  UNL     1      32.003   8.141  23.966  1.00  0.00     0.070 C 
BRANCH  43  44
HETATM   44  C2  UNL     1      32.015   6.692  24.068  1.00  0.00    -0.032 C 
HETATM   45  C1  UNL     1      32.027   5.895  23.032  1.00  0.00     0.007 C 
ENDBRANCH  43  44
ENDBRANCH  42  43
ENDBRANCH  40  42
ENDBRANCH  39  40
ENDBRANCH  38  39
ENDBRANCH  37  38
ENDBRANCH  36  37
ENDBRANCH  33  36
ENDBRANCH  32  33
ENDBRANCH  31  32
ENDBRANCH  30  31
ENDBRANCH  27  30
ENDBRANCH   1  26
BRANCH   9  46
HETATM   46  O2  UNL     1      24.330  -1.479  21.771  1.00  0.00    -0.395 OA
ATOM     47  H2  UNL     1      23.396  -1.652  21.785  1.00  0.00     0.210 HD
ENDBRANCH   9  46
BRANCH  23  48
HETATM   48  O4  UNL     1      22.883  -5.405  19.856  1.00  0.00    -0.389 OA
ATOM     49  H4  UNL     1      22.279  -5.752  20.502  1.00  0.00     0.210 HD
ENDBRANCH  23  48
BRANCH  20  50
HETATM   50  O3  UNL     1      24.214  -9.445  20.043  1.00  0.00    -0.395 OA
ATOM     51  H3  UNL     1      24.211 -10.030  19.294  1.00  0.00     0.210 HD
ENDBRANCH  20  50
TORSDOF 16
ENDMDL
MODEL 3
REMARK VINA RESULT: -8.865422454      1.627      2.192
REMARK  16 active torsions:
REMARK  status: ('A' for Active; 'I' for Inactive)
REMARK    1  A    between atoms: C2_2  and  C3_3 
REMARK    2  A    between atoms: C3_3  and  C4_4 
REMARK    3  A    between atoms: C4_4  and  N1_5 
REMARK    4  A    between atoms: N1_5  and  C5_7 
REMARK    5  A    between atoms: C5_7  and  C6_8 
REMARK    6  A    between atoms: C6_8  and  C7_9 
REMARK    7  A    between atoms: C7_9  and  C8_10 
REMARK    8  A    between atoms: C8_10  and  N2_11 
REMARK    9  A    between atoms: N2_11  and  C9_14 
REMARK   10  A    between atoms: C9_14  and  C10_15 
REMARK   11  A    between atoms: C10_15  and  C11_16 
REMARK   12  A    between atoms: C11_16  and  N3_17 
REMARK       I    between atoms: N3_17  and  C12_19 
REMARK   13  A    between atoms: C12_19  and  C13_21 
REMARK   14  A    between atoms: C21_29  and  O2_30 
REMARK   15  A    between atoms: C32_42  and  O3_43 
REMARK   16  A    between atoms: C35_47  and  O4_48 
ROOT
HETATM    1  C13 UNL     1      28.007   0.127  23.131  1.00  0.00     0.214 C 
HETATM    2  C14 UNL     1      28.555  -1.017  23.980  1.00  0.00     0.053 C 
HETATM    3  C15 UNL     1      27.550  -2.129  23.626  1.00  0.00    -0.015 C 
HETATM    4  C16 UNL     1      26.459  -2.015  24.636  1.00  0.00     0.018 C 
HETATM    5  C17 UNL     1      28.156  -3.473  23.501  1.00  0.00     0.012 C 
HETATM    6  C18 UNL     1      28.349  -3.933  22.097  1.00  0.00     0.007 C 
HETATM    7  C19 UNL     1      27.164  -3.798  21.184  1.00  0.00     0.003 C 
HETATM    8  C20 UNL     1      26.382  -2.516  21.418  1.00  0.00     0.049 C 
HETATM    9  C21 UNL     1      24.977  -2.743  21.854  1.00  0.00     0.125 C 
HETATM   10  C22 UNL     1      24.284  -3.596  20.857  1.00  0.00     0.040 C 
HETATM   11  C23 UNL     1      25.077  -4.748  20.300  1.00  0.00     0.031 C 
HETATM   12  C24 UNL     1      26.354  -5.033  21.018  1.00  0.00    -0.033 C 
HETATM   13  C25 UNL     1      27.174  -5.957  20.092  1.00  0.00     0.016 C 
HETATM   14  C26 UNL     1      26.158  -5.843  22.276  1.00  0.00     0.010 C 
HETATM   15  C27 UNL     1      25.287  -7.032  22.053  1.00  0.00     0.009 C 
HETATM   16  C28 UNL     1      23.968  -6.660  21.473  1.00  0.00     0.031 C 
HETATM   17  C29 UNL     1      23.009  -7.782  21.336  1.00  0.00    -0.015 C 
HETATM   18  C30 UNL     1      21.577  -7.290  21.553  1.00  0.00     0.018 C 
HETATM   19  C31 UNL     1      23.276  -8.782  22.468  1.00  0.00     0.018 C 
HETATM   20  C32 UNL     1      23.093  -8.551  20.055  1.00  0.00     0.126 C 
HETATM   21  C33 UNL     1      23.149  -7.661  18.829  1.00  0.00     0.035 C 
HETATM   22  C34 UNL     1      24.428  -6.825  19.005  1.00  0.00     0.041 C 
HETATM   23  C35 UNL     1      24.144  -5.910  20.179  1.00  0.00     0.067 C 
HETATM   24  C36 UNL     1      27.214  -1.643  22.248  1.00  0.00     0.137 C 
HETATM   25  O5  UNL     1      26.845  -0.358  22.496  1.00  0.00    -0.370 OA
ENDROOT
BRANCH   1  26
HETATM   26  C12 UNL     1      27.748   1.337  23.942  1.00  0.00     0.246 C 
HETATM   27  N3  UNL     1      26.468   1.794  24.286  1.00  0.00    -0.359 N 
ATOM     28  H3  UNL     1      25.666   1.259  23.952  1.00  0.00     0.162 HD
HETATM   29  O1  UNL     1      28.764   1.967  24.325  1.00  0.00    -0.271 OA
BRANCH  27  30
HETATM   30  C11 UNL     1      26.211   2.961  25.075  1.00  0.00     0.124 C 
BRANCH  30  31
HETATM   31  C10 UNL     1      25.852   4.141  24.245  1.00  0.00     0.047 C 
BRANCH  31  32
HETATM   32  C9  UNL     1      27.010   5.108  24.095  1.00  0.00     0.234 C 
BRANCH  32  33
HETATM   33  N2  UNL     1      28.072   4.870  25.021  1.00  0.00    -0.075 N 
ATOM     34  H22 UNL     1      28.493   3.956  24.861  1.00  0.00     0.277 HD
ATOM     35  H21 UNL     1      27.704   4.725  25.962  1.00  0.00     0.277 HD
BRANCH  33  36
HETATM   36  C8  UNL     1      29.072   5.899  25.020  1.00  0.00     0.232 C 
BRANCH  36  37
HETATM   37  C7  UNL     1      28.485   7.159  24.413  1.00  0.00     0.029 C 
BRANCH  37  38
HETATM   38  C6  UNL     1      28.915   8.387  25.143  1.00  0.00     0.021 C 
BRANCH  38  39
HETATM   39  C5  UNL     1      30.298   8.221  25.746  1.00  0.00     0.118 C 
BRANCH  39  40
HETATM   40  N1  UNL     1      31.281   9.028  25.108  1.00  0.00    -0.402 N 
ATOM     41  H1  UNL     1      31.374  10.021  25.321  1.00  0.00     0.158 HD
BRANCH  40  42
HETATM   42  C4  UNL     1      32.117   8.397  24.170  1.00  0.00     0.059 C 
BRANCH  42  43
HETATM   43  C3  UNL     1      31.734   8.583  22.730  1.00  0.00     0.070 C 
BRANCH  43  44
HETATM   44  C2  UNL     1      31.408   7.365  22.009  1.00  0.00    -0.032 C 
HETATM   45  C1  UNL     1      31.713   6.168  22.438  1.00  0.00     0.007 C 
ENDBRANCH  43  44
ENDBRANCH  42  43
ENDBRANCH  40  42
ENDBRANCH  39  40
ENDBRANCH  38  39
ENDBRANCH  37  38
ENDBRANCH  36  37
ENDBRANCH  33  36
ENDBRANCH  32  33
ENDBRANCH  31  32
ENDBRANCH  30  31
ENDBRANCH  27  30
ENDBRANCH   1  26
BRANCH   9  46
HETATM   46  O2  UNL     1      24.350  -1.471  21.821  1.00  0.00    -0.395 OA
ATOM     47  H2  UNL     1      23.416  -1.642  21.808  1.00  0.00     0.210 HD
ENDBRANCH   9  46
BRANCH  23  48
HETATM   48  O4  UNL     1      22.862  -5.373  19.889  1.00  0.00    -0.389 OA
ATOM     49  H4  UNL     1      22.226  -5.980  20.247  1.00  0.00     0.210 HD
ENDBRANCH  23  48
BRANCH  20  50
HETATM   50  O3  UNL     1      24.183  -9.418  20.013  1.00  0.00    -0.395 OA
ATOM     51  H3  UNL     1      24.668  -9.363  19.197  1.00  0.00     0.210 HD
ENDBRANCH  20  50
TORSDOF 16
ENDMDL
MODEL 4
REMARK VINA RESULT: -8.811851583      1.315      1.776
REMARK  16 active torsions:
REMARK  status: ('A' for Active; 'I' for Inactive)
REMARK    1  A    between atoms: C2_2  and  C3_3 
REMARK    2  A    between atoms: C3_3  and  C4_4 
REMARK    3  A    between atoms: C4_4  and  N1_5 
REMARK    4  A    between atoms: N1_5  and  C5_7 
REMARK    5  A    between atoms: C5_7  and  C6_8 
REMARK    6  A    between atoms: C6_8  and  C7_9 
REMARK    7  A    between atoms: C7_9  and  C8_10 
REMARK    8  A    between atoms: C8_10  and  N2_11 
REMARK    9  A    between atoms: N2_11  and  C9_14 
REMARK   10  A    between atoms: C9_14  and  C10_15 
REMARK   11  A    between atoms: C10_15  and  C11_16 
REMARK   12  A    between atoms: C11_16  and  N3_17 
REMARK       I    between atoms: N3_17  and  C12_19 
REMARK   13  A    between atoms: C12_19  and  C13_21 
REMARK   14  A    between atoms: C21_29  and  O2_30 
REMARK   15  A    between atoms: C32_42  and  O3_43 
REMARK   16  A    between atoms: C35_47  and  O4_48 
ROOT
HETATM    1  C13 UNL     1      27.975   0.122  23.115  1.00  0.00     0.214 C 
HETATM    2  C14 UNL     1      28.513  -1.009  23.987  1.00  0.00     0.053 C 
HETATM    3  C15 UNL     1      27.514  -2.127  23.637  1.00  0.00    -0.015 C 
HETATM    4  C16 UNL     1      26.411  -2.000  24.631  1.00  0.00     0.018 C 
HETATM    5  C17 UNL     1      28.124  -3.472  23.539  1.00  0.00     0.012 C 
HETATM    6  C18 UNL     1      28.335  -3.951  22.144  1.00  0.00     0.007 C 
HETATM    7  C19 UNL     1      27.161  -3.831  21.214  1.00  0.00     0.003 C 
HETATM    8  C20 UNL     1      26.374  -2.547  21.420  1.00  0.00     0.049 C 
HETATM    9  C21 UNL     1      24.965  -2.770  21.841  1.00  0.00     0.125 C 
HETATM   10  C22 UNL     1      24.285  -3.638  20.848  1.00  0.00     0.040 C 
HETATM   11  C23 UNL     1      25.087  -4.797  20.318  1.00  0.00     0.031 C 
HETATM   12  C24 UNL     1      26.356  -5.069  21.056  1.00  0.00    -0.033 C 
HETATM   13  C25 UNL     1      27.189  -6.006  20.153  1.00  0.00     0.016 C 
HETATM   14  C26 UNL     1      26.145  -5.862  22.323  1.00  0.00     0.010 C 
HETATM   15  C27 UNL     1      25.278  -7.055  22.106  1.00  0.00     0.009 C 
HETATM   16  C28 UNL     1      23.966  -6.694  21.504  1.00  0.00     0.031 C 
HETATM   17  C29 UNL     1      23.010  -7.819  21.371  1.00  0.00    -0.015 C 
HETATM   18  C30 UNL     1      21.575  -7.326  21.563  1.00  0.00     0.018 C 
HETATM   19  C31 UNL     1      23.264  -8.802  22.520  1.00  0.00     0.018 C 
HETATM   20  C32 UNL     1      23.111  -8.606  20.103  1.00  0.00     0.126 C 
HETATM   21  C33 UNL     1      23.182  -7.734  18.865  1.00  0.00     0.035 C 
HETATM   22  C34 UNL     1      24.457  -6.893  19.044  1.00  0.00     0.041 C 
HETATM   23  C35 UNL     1      24.157  -5.962  20.201  1.00  0.00     0.067 C 
HETATM   24  C36 UNL     1      27.195  -1.661  22.248  1.00  0.00     0.137 C 
HETATM   25  O5  UNL     1      26.821  -0.374  22.472  1.00  0.00    -0.370 OA
ENDROOT
BRANCH   1  26
HETATM   26  C12 UNL     1      27.704   1.344  23.905  1.00  0.00     0.246 C 
HETATM   27  N3  UNL     1      26.419   1.819  24.204  1.00  0.00    -0.359 N 
ATOM     28  H3  UNL     1      25.622   1.290  23.850  1.00  0.00     0.162 HD
HETATM   29  O1  UNL     1      28.714   1.966  24.314  1.00  0.00    -0.271 OA
BRANCH  27  30
HETATM   30  C11 UNL     1      26.150   2.996  24.972  1.00  0.00     0.124 C 
BRANCH  30  31
HETATM   31  C10 UNL     1      26.086   4.221  24.132  1.00  0.00     0.047 C 
BRANCH  31  32
HETATM   32  C9  UNL     1      27.216   5.184  24.436  1.00  0.00     0.234 C 
BRANCH  32  33
HETATM   33  N2  UNL     1      28.357   5.004  23.594  1.00  0.00    -0.075 N 
ATOM     34  H22 UNL     1      28.194   5.410  22.673  1.00  0.00     0.277 HD
ATOM     35  H21 UNL     1      28.460   4.024  23.332  1.00  0.00     0.277 HD
BRANCH  33  36
HETATM   36  C8  UNL     1      29.573   5.509  24.165  1.00  0.00     0.232 C 
BRANCH  36  37
HETATM   37  C7  UNL     1      30.753   4.832  23.491  1.00  0.00     0.029 C 
BRANCH  37  38
HETATM   38  C6  UNL     1      31.846   5.796  23.173  1.00  0.00     0.021 C 
BRANCH  38  39
HETATM   39  C5  UNL     1      32.081   6.768  24.315  1.00  0.00     0.118 C 
BRANCH  39  40
HETATM   40  N1  UNL     1      32.087   8.127  23.893  1.00  0.00    -0.402 N 
ATOM     41  H1  UNL     1      32.429   8.872  24.501  1.00  0.00     0.158 HD
BRANCH  40  42
HETATM   42  C4  UNL     1      31.601   8.399  22.603  1.00  0.00     0.059 C 
BRANCH  42  43
HETATM   43  C3  UNL     1      30.272   9.093  22.541  1.00  0.00     0.070 C 
BRANCH  43  44
HETATM   44  C2  UNL     1      29.261   8.435  21.732  1.00  0.00    -0.032 C 
HETATM   45  C1  UNL     1      29.532   7.507  20.851  1.00  0.00     0.007 C 
ENDBRANCH  43  44
ENDBRANCH  42  43
ENDBRANCH  40  42
ENDBRANCH  39  40
ENDBRANCH  38  39
ENDBRANCH  37  38
ENDBRANCH  36  37
ENDBRANCH  33  36
ENDBRANCH  32  33
ENDBRANCH  31  32
ENDBRANCH  30  31
ENDBRANCH  27  30
ENDBRANCH   1  26
BRANCH   9  46
HETATM   46  O2  UNL     1      24.336  -1.500  21.782  1.00  0.00    -0.395 OA
ATOM     47  H2  UNL     1      24.267  -1.202  22.682  1.00  0.00     0.210 HD
ENDBRANCH   9  46
BRANCH  23  48
HETATM   48  O4  UNL     1      22.878  -5.431  19.888  1.00  0.00    -0.389 OA
ATOM     49  H4  UNL     1      22.652  -4.835  20.591  1.00  0.00     0.210 HD
ENDBRANCH  23  48
BRANCH  20  50
HETATM   50  O3  UNL     1      24.203  -9.472  20.086  1.00  0.00    -0.395 OA
ATOM     51  H3  UNL     1      24.823  -9.272  19.394  1.00  0.00     0.210 HD
ENDBRANCH  20  50
TORSDOF 16
ENDMDL
MODEL 5
REMARK VINA RESULT: -8.810987819      1.909      3.037
REMARK  16 active torsions:
REMARK  status: ('A' for Active; 'I' for Inactive)
REMARK    1  A    between atoms: C2_2  and  C3_3 
REMARK    2  A    between atoms: C3_3  and  C4_4 
REMARK    3  A    between atoms: C4_4  and  N1_5 
REMARK    4  A    between atoms: N1_5  and  C5_7 
REMARK    5  A    between atoms: C5_7  and  C6_8 
REMARK    6  A    between atoms: C6_8  and  C7_9 
REMARK    7  A    between atoms: C7_9  and  C8_10 
REMARK    8  A    between atoms: C8_10  and  N2_11 
REMARK    9  A    between atoms: N2_11  and  C9_14 
REMARK   10  A    between atoms: C9_14  and  C10_15 
REMARK   11  A    between atoms: C10_15  and  C11_16 
REMARK   12  A    between atoms: C11_16  and  N3_17 
REMARK       I    between atoms: N3_17  and  C12_19 
REMARK   13  A    between atoms: C12_19  and  C13_21 
REMARK   14  A    between atoms: C21_29  and  O2_30 
REMARK   15  A    between atoms: C32_42  and  O3_43 
REMARK   16  A    between atoms: C35_47  and  O4_48 
ROOT
HETATM    1  C13 UNL     1      27.693  -0.624  23.648  1.00  0.00     0.214 C 
HETATM    2  C14 UNL     1      26.479  -1.314  24.266  1.00  0.00     0.053 C 
HETATM    3  C15 UNL     1      25.967  -2.110  23.052  1.00  0.00    -0.015 C 
HETATM    4  C16 UNL     1      24.999  -1.209  22.365  1.00  0.00     0.018 C 
HETATM    5  C17 UNL     1      25.449  -3.455  23.387  1.00  0.00     0.012 C 
HETATM    6  C18 UNL     1      26.378  -4.572  23.058  1.00  0.00     0.007 C 
HETATM    7  C19 UNL     1      26.970  -4.561  21.677  1.00  0.00     0.003 C 
HETATM    8  C20 UNL     1      27.332  -3.163  21.202  1.00  0.00     0.049 C 
HETATM    9  C21 UNL     1      26.584  -2.730  19.990  1.00  0.00     0.125 C 
HETATM   10  C22 UNL     1      26.797  -3.716  18.902  1.00  0.00     0.040 C 
HETATM   11  C23 UNL     1      26.772  -5.167  19.304  1.00  0.00     0.031 C 
HETATM   12  C24 UNL     1      26.275  -5.424  20.688  1.00  0.00    -0.033 C 
HETATM   13  C25 UNL     1      26.680  -6.874  21.031  1.00  0.00     0.016 C 
HETATM   14  C26 UNL     1      24.768  -5.424  20.785  1.00  0.00     0.010 C 
HETATM   15  C27 UNL     1      24.133  -6.259  19.726  1.00  0.00     0.009 C 
HETATM   16  C28 UNL     1      24.558  -5.851  18.360  1.00  0.00     0.031 C 
HETATM   17  C29 UNL     1      23.872  -6.564  17.256  1.00  0.00    -0.015 C 
HETATM   18  C30 UNL     1      23.692  -5.637  16.053  1.00  0.00     0.018 C 
HETATM   19  C31 UNL     1      22.453  -6.917  17.720  1.00  0.00     0.018 C 
HETATM   20  C32 UNL     1      24.510  -7.845  16.819  1.00  0.00     0.126 C 
HETATM   21  C33 UNL     1      26.008  -7.723  16.612  1.00  0.00     0.035 C 
HETATM   22  C34 UNL     1      26.567  -7.320  17.987  1.00  0.00     0.041 C 
HETATM   23  C35 UNL     1      26.056  -5.913  18.224  1.00  0.00     0.067 C 
HETATM   24  C36 UNL     1      27.292  -2.281  22.371  1.00  0.00     0.137 C 
HETATM   25  O5  UNL     1      27.723  -0.995  22.288  1.00  0.00    -0.370 OA
ENDROOT
BRANCH   1  26
HETATM   26  C12 UNL     1      27.645   0.843  23.836  1.00  0.00     0.246 C 
HETATM   27  N3  UNL     1      26.522   1.635  23.561  1.00  0.00    -0.359 N 
ATOM     28  H3  UNL     1      25.686   1.170  23.206  1.00  0.00     0.162 HD
HETATM   29  O1  UNL     1      28.697   1.374  24.268  1.00  0.00    -0.271 OA
BRANCH  27  30
HETATM   30  C11 UNL     1      26.467   3.054  23.746  1.00  0.00     0.124 C 
BRANCH  30  31
HETATM   31  C10 UNL     1      25.971   3.433  25.095  1.00  0.00     0.047 C 
BRANCH  31  32
HETATM   32  C9  UNL     1      26.903   4.402  25.796  1.00  0.00     0.234 C 
BRANCH  32  33
HETATM   33  N2  UNL     1      28.185   4.508  25.173  1.00  0.00    -0.075 N 
ATOM     34  H22 UNL     1      28.186   4.039  24.267  1.00  0.00     0.277 HD
ATOM     35  H21 UNL     1      28.872   3.934  25.661  1.00  0.00     0.277 HD
BRANCH  33  36
HETATM   36  C8  UNL     1      28.648   5.860  25.046  1.00  0.00     0.232 C 
BRANCH  36  37
HETATM   37  C7  UNL     1      27.667   6.640  24.190  1.00  0.00     0.029 C 
BRANCH  37  38
HETATM   38  C6  UNL     1      27.920   6.448  22.732  1.00  0.00     0.021 C 
BRANCH  38  39
HETATM   39  C5  UNL     1      28.042   7.777  22.008  1.00  0.00     0.118 C 
BRANCH  39  40
HETATM   40  N1  UNL     1      29.105   7.797  21.063  1.00  0.00    -0.402 N 
ATOM     41  H1  UNL     1      29.243   8.589  20.434  1.00  0.00     0.158 HD
BRANCH  40  42
HETATM   42  C4  UNL     1      29.955   6.678  21.031  1.00  0.00     0.059 C 
BRANCH  42  43
HETATM   43  C3  UNL     1      31.361   6.918  21.500  1.00  0.00     0.070 C 
BRANCH  43  44
HETATM   44  C2  UNL     1      31.683   6.378  22.809  1.00  0.00    -0.032 C 
HETATM   45  C1  UNL     1      31.724   5.098  23.073  1.00  0.00     0.007 C 
ENDBRANCH  43  44
ENDBRANCH  42  43
ENDBRANCH  40  42
ENDBRANCH  39  40
ENDBRANCH  38  39
ENDBRANCH  37  38
ENDBRANCH  36  37
ENDBRANCH  33  36
ENDBRANCH  32  33
ENDBRANCH  31  32
ENDBRANCH  30  31
ENDBRANCH  27  30
ENDBRANCH   1  26
BRANCH   9  46
HETATM   46  O2  UNL     1      27.187  -1.516  19.575  1.00  0.00    -0.395 OA
ATOM     47  H2  UNL     1      27.789  -1.750  18.878  1.00  0.00     0.210 HD
ENDBRANCH   9  46
BRANCH  23  48
HETATM   48  O4  UNL     1      26.342  -5.239  17.007  1.00  0.00    -0.389 OA
ATOM     49  H4  UNL     1      26.866  -5.833  16.483  1.00  0.00     0.210 HD
ENDBRANCH  23  48
BRANCH  20  50
HETATM   50  O3  UNL     1      24.279  -8.897  17.703  1.00  0.00    -0.395 OA
ATOM     51  H3  UNL     1      25.060  -9.164  18.174  1.00  0.00     0.210 HD
ENDBRANCH  20  50
TORSDOF 16
ENDMDL
