MODEL 1
REMARK VINA RESULT: -8.928628963      0.000      0.000
REMARK  13 active torsions:
REMARK  status: ('A' for Active; 'I' for Inactive)
REMARK    1  A    between atoms: C2_2  and  C3_3 
REMARK    2  A    between atoms: C3_3  and  C4_4 
REMARK    3  A    between atoms: C4_4  and  C5_5 
REMARK    4  A    between atoms: C5_5  and  C6_6 
REMARK    5  A    between atoms: C6_6  and  C7_7 
REMARK    6  A    between atoms: C7_7  and  C8_8 
REMARK    7  A    between atoms: C8_8  and  N1_9 
REMARK       I    between atoms: N1_9  and  C9_11 
REMARK       I    between atoms: C9_11  and  N2_13 
REMARK    8  A    between atoms: N2_13  and  N3_15 
REMARK    9  A    between atoms: C14_21  and  C15_22 
REMARK   10  A    between atoms: C15_22  and  C16_23 
REMARK   11  A    between atoms: C16_23  and  C17_24 
REMARK   12  A    between atoms: C17_24  and  N4_25 
REMARK       I    between atoms: N4_25  and  C18_27 
REMARK   13  A    between atoms: C32_48  and  N8_49 
ROOT
HETATM    1  N3  UNL     1      25.744  -5.489  20.786  1.00  0.00    -0.304 N 
ATOM      2  H3  UNL     1      25.656  -6.133  21.572  1.00  0.00     0.186 HD
HETATM    3  C10 UNL     1      25.010  -5.691  19.778  1.00  0.00     0.018 C 
HETATM    4  C11 UNL     1      25.121  -4.761  18.610  1.00  0.00     0.065 C 
HETATM    5  C12 UNL     1      25.203  -5.535  17.332  1.00  0.00    -0.031 C 
HETATM    6  C13 UNL     1      24.082  -5.168  16.355  1.00  0.00     0.016 C 
HETATM    7  C14 UNL     1      26.487  -5.271  16.548  1.00  0.00    -0.006 C 
HETATM    8  C19 UNL     1      27.519  -5.909  17.400  1.00  0.00     0.006 C 
HETATM    9  C20 UNL     1      26.830  -7.216  17.810  1.00  0.00     0.006 C 
HETATM   10  C21 UNL     1      25.347  -7.009  17.533  1.00  0.00     0.000 C 
HETATM   11  C22 UNL     1      24.467  -7.659  18.542  1.00  0.00     0.016 C 
HETATM   12  C23 UNL     1      25.224  -8.934  18.950  1.00  0.00     0.086 C 
HETATM   13  C24 UNL     1      24.203  -9.897  19.364  1.00  0.00     0.139 C 
HETATM   14  O2  UNL     1      23.857 -10.698  18.537  1.00  0.00    -0.297 OA
HETATM   15  C25 UNL     1      23.549  -9.980  20.716  1.00  0.00     0.041 C 
HETATM   16  C26 UNL     1      22.040 -10.026  20.421  1.00  0.00     0.028 C 
HETATM   17  C27 UNL     1      23.916 -11.287  21.266  1.00  0.00     0.028 C 
HETATM   18  C28 UNL     1      23.808  -8.766  21.475  1.00  0.00    -0.033 C 
HETATM   19  C29 UNL     1      24.063  -9.158  22.747  1.00  0.00     0.033 C 
HETATM   20  C30 UNL     1      24.243  -8.411  23.909  1.00  0.00     0.007 C 
HETATM   21  C31 UNL     1      24.829  -9.168  25.015  1.00  0.00     0.068 C 
HETATM   22  N7  UNL     1      23.918  -7.117  24.035  1.00  0.00    -0.347 N 
ATOM     23  H7  UNL     1      24.025  -6.742  24.978  1.00  0.00     0.167 HD
HETATM   24  C32 UNL     1      23.475  -6.230  23.125  1.00  0.00     0.099 C 
HETATM   25  C33 UNL     1      23.481  -6.359  21.753  1.00  0.00     0.057 C 
HETATM   26  C34 UNL     1      23.791  -7.468  20.965  1.00  0.00    -0.033 C 
HETATM   27  C35 UNL     1      24.024  -6.829  19.680  1.00  0.00     0.028 C 
HETATM   28  C36 UNL     1      22.685  -6.194  19.272  1.00  0.00     0.027 C 
ENDROOT
BRANCH   1  29
HETATM   29  N2  UNL     1      26.653  -4.469  20.899  1.00  0.00    -0.252 N 
HETATM   30  C9  UNL     1      26.588  -3.395  21.802  1.00  0.00     0.334 C 
HETATM   31  N1  UNL     1      27.588  -2.385  21.848  1.00  0.00    -0.342 N 
HETATM   32  O1  UNL     1      25.625  -3.303  22.604  1.00  0.00    -0.246 OA
ATOM     33  H1  UNL     1      28.375  -2.448  21.202  1.00  0.00     0.164 HD
ATOM     34  H2  UNL     1      27.454  -4.491  20.267  1.00  0.00     0.191 HD
BRANCH  31  35
HETATM   35  C8  UNL     1      27.536  -1.274  22.770  1.00  0.00     0.124 C 
BRANCH  35  36
HETATM   36  C7  UNL     1      28.788  -1.269  23.641  1.00  0.00     0.020 C 
BRANCH  36  37
HETATM   37  C6  UNL     1      28.671  -2.394  24.659  1.00  0.00     0.002 C 
BRANCH  37  38
HETATM   38  C5  UNL     1      27.399  -2.217  25.451  1.00  0.00     0.000 C 
BRANCH  38  39
HETATM   39  C4  UNL     1      26.847  -3.563  25.826  1.00  0.00     0.004 C 
BRANCH  39  40
HETATM   40  C3  UNL     1      27.792  -4.674  25.421  1.00  0.00     0.026 C 
BRANCH  40  41
HETATM   41  C2  UNL     1      27.067  -5.778  24.722  1.00  0.00    -0.037 C 
HETATM   42  C1  UNL     1      27.629  -6.484  23.750  1.00  0.00     0.007 C 
ENDBRANCH  40  41
ENDBRANCH  39  40
ENDBRANCH  38  39
ENDBRANCH  37  38
ENDBRANCH  36  37
ENDBRANCH  35  36
ENDBRANCH  31  35
ENDBRANCH   1  29
BRANCH   7  43
HETATM   43  C15 UNL     1      26.718  -3.855  16.191  1.00  0.00     0.007 C 
BRANCH  43  44
HETATM   44  C16 UNL     1      27.976  -3.829  15.311  1.00  0.00     0.020 C 
BRANCH  44  45
HETATM   45  C17 UNL     1      27.627  -4.236  13.891  1.00  0.00     0.122 C 
BRANCH  45  46
HETATM   46  N4  UNL     1      28.605  -5.173  13.375  1.00  0.00    -0.365 N 
HETATM   47  C18 UNL     1      29.012  -6.318  14.112  1.00  0.00     0.181 C 
HETATM   48  N5  UNL     1      28.378  -7.436  14.018  1.00  0.00    -0.374 N 
HETATM   49  N6  UNL     1      30.136  -6.271  14.980  1.00  0.00    -0.064 NA
ATOM     50  H52 UNL     1      27.571  -7.471  13.395  1.00  0.00     0.158 HD
ATOM     51  H51 UNL     1      28.671  -8.258  14.547  1.00  0.00     0.158 HD
ATOM     52  H4  UNL     1      29.013  -5.006  12.455  1.00  0.00     0.162 HD
ENDBRANCH  45  46
ENDBRANCH  44  45
ENDBRANCH  43  44
ENDBRANCH   7  43
BRANCH  24  53
HETATM   53  N8  UNL     1      22.998  -5.153  23.636  1.00  0.00    -0.385 N 
ATOM     54  H82 UNL     1      23.471  -4.747  24.443  1.00  0.00     0.157 HD
ATOM     55  H81 UNL     1      22.166  -4.803  23.161  1.00  0.00     0.157 HD
ENDBRANCH  24  53
TORSDOF 13
ENDMDL
MODEL 2
REMARK VINA RESULT: -8.762684041      2.768      6.885
REMARK  13 active torsions:
REMARK  status: ('A' for Active; 'I' for Inactive)
REMARK    1  A    between atoms: C2_2  and  C3_3 
REMARK    2  A    between atoms: C3_3  and  C4_4 
REMARK    3  A    between atoms: C4_4  and  C5_5 
REMARK    4  A    between atoms: C5_5  and  C6_6 
REMARK    5  A    between atoms: C6_6  and  C7_7 
REMARK    6  A    between atoms: C7_7  and  C8_8 
REMARK    7  A    between atoms: C8_8  and  N1_9 
REMARK       I    between atoms: N1_9  and  C9_11 
REMARK       I    between atoms: C9_11  and  N2_13 
REMARK    8  A    between atoms: N2_13  and  N3_15 
REMARK    9  A    between atoms: C14_21  and  C15_22 
REMARK   10  A    between atoms: C15_22  and  C16_23 
REMARK   11  A    between atoms: C16_23  and  C17_24 
REMARK   12  A    between atoms: C17_24  and  N4_25 
REMARK       I    between atoms: N4_25  and  C18_27 
REMARK   13  A    between atoms: C32_48  and  N8_49 
ROOT
HETATM    1  N3  UNL     1      27.651  -5.887  19.274  1.00  0.00    -0.304 N 
ATOM      2  H3  UNL     1      28.556  -6.330  19.121  1.00  0.00     0.186 HD
HETATM    3  C10 UNL     1      26.819  -5.907  18.323  1.00  0.00     0.018 C 
HETATM    4  C11 UNL     1      25.483  -5.262  18.521  1.00  0.00     0.065 C 
HETATM    5  C12 UNL     1      25.140  -4.400  17.349  1.00  0.00    -0.031 C 
HETATM    6  C13 UNL     1      23.824  -4.815  16.684  1.00  0.00     0.016 C 
HETATM    7  C14 UNL     1      24.926  -2.933  17.720  1.00  0.00    -0.006 C 
HETATM    8  C19 UNL     1      26.295  -2.491  18.079  1.00  0.00     0.006 C 
HETATM    9  C20 UNL     1      27.140  -3.149  16.981  1.00  0.00     0.006 C 
HETATM   10  C21 UNL     1      26.262  -4.237  16.376  1.00  0.00     0.000 C 
HETATM   11  C22 UNL     1      27.024  -5.456  15.989  1.00  0.00     0.016 C 
HETATM   12  C23 UNL     1      28.393  -4.925  15.528  1.00  0.00     0.086 C 
HETATM   13  C24 UNL     1      28.897  -5.894  14.555  1.00  0.00     0.139 C 
HETATM   14  O2  UNL     1      28.714  -5.631  13.396  1.00  0.00    -0.297 OA
HETATM   15  C25 UNL     1      29.617  -7.178  14.863  1.00  0.00     0.041 C 
HETATM   16  C26 UNL     1      28.878  -8.250  14.045  1.00  0.00     0.028 C 
HETATM   17  C27 UNL     1      30.954  -7.044  14.281  1.00  0.00     0.028 C 
HETATM   18  C28 UNL     1      29.460  -7.517  16.269  1.00  0.00    -0.033 C 
HETATM   19  C29 UNL     1      30.665  -7.976  16.688  1.00  0.00     0.033 C 
HETATM   20  C30 UNL     1      31.045  -8.556  17.896  1.00  0.00     0.007 C 
HETATM   21  C31 UNL     1      32.493  -8.610  18.097  1.00  0.00     0.068 C 
HETATM   22  N7  UNL     1      30.189  -9.031  18.812  1.00  0.00    -0.347 N 
ATOM     23  H7  UNL     1      30.629  -9.509  19.598  1.00  0.00     0.167 HD
HETATM   24  C32 UNL     1      28.846  -8.981  18.866  1.00  0.00     0.099 C 
HETATM   25  C33 UNL     1      28.001  -8.197  18.109  1.00  0.00     0.057 C 
HETATM   26  C34 UNL     1      28.287  -7.384  17.012  1.00  0.00    -0.033 C 
HETATM   27  C35 UNL     1      27.102  -6.542  16.984  1.00  0.00     0.028 C 
HETATM   28  C36 UNL     1      25.919  -7.484  16.705  1.00  0.00     0.027 C 
ENDROOT
BRANCH   1  29
HETATM   29  N2  UNL     1      27.424  -5.310  20.498  1.00  0.00    -0.252 N 
HETATM   30  C9  UNL     1      26.986  -5.970  21.658  1.00  0.00     0.334 C 
HETATM   31  N1  UNL     1      26.787  -5.283  22.887  1.00  0.00    -0.342 N 
HETATM   32  O1  UNL     1      26.758  -7.206  21.634  1.00  0.00    -0.246 OA
ATOM     33  H1  UNL     1      26.968  -4.280  22.920  1.00  0.00     0.164 HD
ATOM     34  H2  UNL     1      27.589  -4.307  20.573  1.00  0.00     0.191 HD
BRANCH  31  35
HETATM   35  C8  UNL     1      26.337  -5.946  24.089  1.00  0.00     0.124 C 
BRANCH  35  36
HETATM   36  C7  UNL     1      24.874  -5.602  24.350  1.00  0.00     0.020 C 
BRANCH  36  37
HETATM   37  C6  UNL     1      24.028  -6.828  24.046  1.00  0.00     0.002 C 
BRANCH  37  38
HETATM   38  C5  UNL     1      23.109  -6.524  22.888  1.00  0.00     0.000 C 
BRANCH  38  39
HETATM   39  C4  UNL     1      22.758  -7.798  22.175  1.00  0.00     0.004 C 
BRANCH  39  40
HETATM   40  C3  UNL     1      21.635  -7.579  21.183  1.00  0.00     0.026 C 
BRANCH  40  41
HETATM   41  C2  UNL     1      22.068  -6.700  20.055  1.00  0.00    -0.037 C 
HETATM   42  C1  UNL     1      22.013  -7.099  18.792  1.00  0.00     0.007 C 
ENDBRANCH  40  41
ENDBRANCH  39  40
ENDBRANCH  38  39
ENDBRANCH  37  38
ENDBRANCH  36  37
ENDBRANCH  35  36
ENDBRANCH  31  35
ENDBRANCH   1  29
BRANCH   7  43
HETATM   43  C15 UNL     1      23.876  -2.694  18.733  1.00  0.00     0.007 C 
BRANCH  43  44
HETATM   44  C16 UNL     1      24.575  -2.730  20.099  1.00  0.00     0.020 C 
BRANCH  44  45
HETATM   45  C17 UNL     1      24.188  -1.509  20.914  1.00  0.00     0.122 C 
BRANCH  45  46
HETATM   46  N4  UNL     1      25.150  -1.278  21.973  1.00  0.00    -0.365 N 
HETATM   47  C18 UNL     1      25.542   0.033  22.360  1.00  0.00     0.181 C 
HETATM   48  N5  UNL     1      24.891   0.689  23.257  1.00  0.00    -0.374 N 
HETATM   49  N6  UNL     1      26.669   0.666  21.770  1.00  0.00    -0.064 NA
ATOM     50  H52 UNL     1      24.081   0.235  23.681  1.00  0.00     0.158 HD
ATOM     51  H51 UNL     1      25.172   1.630  23.535  1.00  0.00     0.158 HD
ATOM     52  H4  UNL     1      25.558  -2.079  22.455  1.00  0.00     0.162 HD
ENDBRANCH  45  46
ENDBRANCH  44  45
ENDBRANCH  43  44
ENDBRANCH   7  43
BRANCH  24  53
HETATM   53  N8  UNL     1      28.329  -9.773  19.734  1.00  0.00    -0.385 N 
ATOM     54  H82 UNL     1      28.769  -9.840  20.653  1.00  0.00     0.157 HD
ATOM     55  H81 UNL     1      27.502 -10.269  19.402  1.00  0.00     0.157 HD
ENDBRANCH  24  53
TORSDOF 13
ENDMDL
MODEL 3
REMARK VINA RESULT: -8.713428714      1.040      1.947
REMARK  13 active torsions:
REMARK  status: ('A' for Active; 'I' for Inactive)
REMARK    1  A    between atoms: C2_2  and  C3_3 
REMARK    2  A    between atoms: C3_3  and  C4_4 
REMARK    3  A    between atoms: C4_4  and  C5_5 
REMARK    4  A    between atoms: C5_5  and  C6_6 
REMARK    5  A    between atoms: C6_6  and  C7_7 
REMARK    6  A    between atoms: C7_7  and  C8_8 
REMARK    7  A    between atoms: C8_8  and  N1_9 
REMARK       I    between atoms: N1_9  and  C9_11 
REMARK       I    between atoms: C9_11  and  N2_13 
REMARK    8  A    between atoms: N2_13  and  N3_15 
REMARK    9  A    between atoms: C14_21  and  C15_22 
REMARK   10  A    between atoms: C15_22  and  C16_23 
REMARK   11  A    between atoms: C16_23  and  C17_24 
REMARK   12  A    between atoms: C17_24  and  N4_25 
REMARK       I    between atoms: N4_25  and  C18_27 
REMARK   13  A    between atoms: C32_48  and  N8_49 
ROOT
HETATM    1  N3  UNL     1      25.986  -5.522  21.027  1.00  0.00    -0.304 N 
ATOM      2  H3  UNL     1      25.820  -6.201  21.769  1.00  0.00     0.186 HD
HETATM    3  C10 UNL     1      25.310  -5.636  19.966  1.00  0.00     0.018 C 
HETATM    4  C11 UNL     1      25.534  -4.652  18.861  1.00  0.00     0.065 C 
HETATM    5  C12 UNL     1      25.666  -5.360  17.549  1.00  0.00    -0.031 C 
HETATM    6  C13 UNL     1      24.626  -4.893  16.527  1.00  0.00     0.016 C 
HETATM    7  C14 UNL     1      27.008  -5.112  16.862  1.00  0.00    -0.006 C 
HETATM    8  C19 UNL     1      27.956  -5.840  17.739  1.00  0.00     0.006 C 
HETATM    9  C20 UNL     1      27.188  -7.135  18.033  1.00  0.00     0.006 C 
HETATM   10  C21 UNL     1      25.736  -6.848  17.676  1.00  0.00     0.000 C 
HETATM   11  C22 UNL     1      24.767  -7.510  18.591  1.00  0.00     0.016 C 
HETATM   12  C23 UNL     1      25.443  -8.838  18.974  1.00  0.00     0.086 C 
HETATM   13  C24 UNL     1      24.359  -9.775  19.269  1.00  0.00     0.139 C 
HETATM   14  O2  UNL     1      24.035 -10.515  18.379  1.00  0.00    -0.297 OA
HETATM   15  C25 UNL     1      23.617  -9.901  20.572  1.00  0.00     0.041 C 
HETATM   16  C26 UNL     1      22.129  -9.863  20.182  1.00  0.00     0.028 C 
HETATM   17  C27 UNL     1      23.893 -11.249  21.069  1.00  0.00     0.028 C 
HETATM   18  C28 UNL     1      23.876  -8.741  21.412  1.00  0.00    -0.033 C 
HETATM   19  C29 UNL     1      24.032  -9.211  22.673  1.00  0.00     0.033 C 
HETATM   20  C30 UNL     1      24.168  -8.536  23.883  1.00  0.00     0.007 C 
HETATM   21  C31 UNL     1      24.651  -9.375  24.980  1.00  0.00     0.068 C 
HETATM   22  N7  UNL     1      23.889  -7.236  24.061  1.00  0.00    -0.347 N 
ATOM     23  H7  UNL     1      23.950  -6.917  25.029  1.00  0.00     0.167 HD
HETATM   24  C32 UNL     1      23.543  -6.284  23.176  1.00  0.00     0.099 C 
HETATM   25  C33 UNL     1      23.631  -6.340  21.802  1.00  0.00     0.057 C 
HETATM   26  C34 UNL     1      23.945  -7.418  20.974  1.00  0.00    -0.033 C 
HETATM   27  C35 UNL     1      24.287  -6.723  19.744  1.00  0.00     0.028 C 
HETATM   28  C36 UNL     1      23.004  -6.009  19.290  1.00  0.00     0.027 C 
ENDROOT
BRANCH   1  29
HETATM   29  N2  UNL     1      26.927  -4.550  21.253  1.00  0.00    -0.252 N 
HETATM   30  C9  UNL     1      27.324  -4.054  22.506  1.00  0.00     0.334 C 
HETATM   31  N1  UNL     1      28.318  -3.046  22.638  1.00  0.00    -0.342 N 
HETATM   32  O1  UNL     1      26.799  -4.500  23.557  1.00  0.00    -0.246 OA
ATOM     33  H1  UNL     1      28.752  -2.675  21.793  1.00  0.00     0.164 HD
ATOM     34  H2  UNL     1      27.382  -4.149  20.434  1.00  0.00     0.191 HD
BRANCH  31  35
HETATM   35  C8  UNL     1      28.738  -2.525  23.918  1.00  0.00     0.124 C 
BRANCH  35  36
HETATM   36  C7  UNL     1      28.533  -1.014  23.951  1.00  0.00     0.020 C 
BRANCH  36  37
HETATM   37  C6  UNL     1      27.040  -0.731  24.005  1.00  0.00     0.002 C 
BRANCH  37  38
HETATM   38  C5  UNL     1      26.701   0.348  23.005  1.00  0.00     0.000 C 
BRANCH  38  39
HETATM   39  C4  UNL     1      25.291   0.165  22.524  1.00  0.00     0.004 C 
BRANCH  39  40
HETATM   40  C3  UNL     1      24.978  -1.298  22.288  1.00  0.00     0.026 C 
BRANCH  40  41
HETATM   41  C2  UNL     1      24.973  -1.625  20.830  1.00  0.00    -0.037 C 
HETATM   42  C1  UNL     1      23.873  -2.013  20.199  1.00  0.00     0.007 C 
ENDBRANCH  40  41
ENDBRANCH  39  40
ENDBRANCH  38  39
ENDBRANCH  37  38
ENDBRANCH  36  37
ENDBRANCH  35  36
ENDBRANCH  31  35
ENDBRANCH   1  29
BRANCH   7  43
HETATM   43  C15 UNL     1      27.319  -3.691  16.599  1.00  0.00     0.007 C 
BRANCH  43  44
HETATM   44  C16 UNL     1      28.303  -3.673  15.421  1.00  0.00     0.020 C 
BRANCH  44  45
HETATM   45  C17 UNL     1      27.669  -4.320  14.203  1.00  0.00     0.122 C 
BRANCH  45  46
HETATM   46  N4  UNL     1      28.599  -5.233  13.569  1.00  0.00    -0.365 N 
HETATM   47  C18 UNL     1      29.045  -6.420  14.212  1.00  0.00     0.181 C 
HETATM   48  N5  UNL     1      28.395  -7.527  14.101  1.00  0.00    -0.374 N 
HETATM   49  N6  UNL     1      30.227  -6.428  15.000  1.00  0.00    -0.064 NA
ATOM     50  H52 UNL     1      27.546  -7.522  13.535  1.00  0.00     0.158 HD
ATOM     51  H51 UNL     1      28.715  -8.379  14.562  1.00  0.00     0.158 HD
ATOM     52  H4  UNL     1      28.944  -5.018  12.634  1.00  0.00     0.162 HD
ENDBRANCH  45  46
ENDBRANCH  44  45
ENDBRANCH  43  44
ENDBRANCH   7  43
BRANCH  24  53
HETATM   53  N8  UNL     1      23.078  -5.215  23.716  1.00  0.00    -0.385 N 
ATOM     54  H82 UNL     1      23.699  -4.659  24.305  1.00  0.00     0.157 HD
ATOM     55  H81 UNL     1      22.102  -5.027  23.488  1.00  0.00     0.157 HD
ENDBRANCH  24  53
TORSDOF 13
ENDMDL
MODEL 4
REMARK VINA RESULT: -8.642378012      1.594      2.232
REMARK  13 active torsions:
REMARK  status: ('A' for Active; 'I' for Inactive)
REMARK    1  A    between atoms: C2_2  and  C3_3 
REMARK    2  A    between atoms: C3_3  and  C4_4 
REMARK    3  A    between atoms: C4_4  and  C5_5 
REMARK    4  A    between atoms: C5_5  and  C6_6 
REMARK    5  A    between atoms: C6_6  and  C7_7 
REMARK    6  A    between atoms: C7_7  and  C8_8 
REMARK    7  A    between atoms: C8_8  and  N1_9 
REMARK       I    between atoms: N1_9  and  C9_11 
REMARK       I    between atoms: C9_11  and  N2_13 
REMARK    8  A    between atoms: N2_13  and  N3_15 
REMARK    9  A    between atoms: C14_21  and  C15_22 
REMARK   10  A    between atoms: C15_22  and  C16_23 
REMARK   11  A    between atoms: C16_23  and  C17_24 
REMARK   12  A    between atoms: C17_24  and  N4_25 
REMARK       I    between atoms: N4_25  and  C18_27 
REMARK   13  A    between atoms: C32_48  and  N8_49 
ROOT
HETATM    1  N3  UNL     1      25.041  -5.494  20.914  1.00  0.00    -0.304 N 
ATOM      2  H3  UNL     1      25.315  -5.864  21.824  1.00  0.00     0.186 HD
HETATM    3  C10 UNL     1      24.134  -6.104  20.281  1.00  0.00     0.018 C 
HETATM    4  C11 UNL     1      23.715  -5.581  18.943  1.00  0.00     0.065 C 
HETATM    5  C12 UNL     1      23.633  -6.696  17.948  1.00  0.00    -0.031 C 
HETATM    6  C13 UNL     1      22.241  -6.819  17.323  1.00  0.00     0.016 C 
HETATM    7  C14 UNL     1      24.567  -6.509  16.754  1.00  0.00    -0.006 C 
HETATM    8  C19 UNL     1      25.906  -6.692  17.363  1.00  0.00     0.006 C 
HETATM    9  C20 UNL     1      25.672  -7.890  18.292  1.00  0.00     0.006 C 
HETATM   10  C21 UNL     1      24.162  -7.996  18.461  1.00  0.00     0.000 C 
HETATM   11  C22 UNL     1      23.755  -8.417  19.830  1.00  0.00     0.016 C 
HETATM   12  C23 UNL     1      24.867  -9.377  20.285  1.00  0.00     0.086 C 
HETATM   13  C24 UNL     1      24.243 -10.298  21.235  1.00  0.00     0.139 C 
HETATM   14  O2  UNL     1      23.887 -11.359  20.796  1.00  0.00    -0.297 OA
HETATM   15  C25 UNL     1      24.007 -10.048  22.699  1.00  0.00     0.041 C 
HETATM   16  C26 UNL     1      22.527 -10.400  22.925  1.00  0.00     0.028 C 
HETATM   17  C27 UNL     1      24.798 -11.049  23.416  1.00  0.00     0.028 C 
HETATM   18  C28 UNL     1      24.169  -8.633  22.999  1.00  0.00    -0.033 C 
HETATM   19  C29 UNL     1      24.834  -8.566  24.178  1.00  0.00     0.033 C 
HETATM   20  C30 UNL     1      25.136  -7.476  24.989  1.00  0.00     0.007 C 
HETATM   21  C31 UNL     1      26.153  -7.755  26.004  1.00  0.00     0.068 C 
HETATM   22  N7  UNL     1      24.566  -6.267  24.878  1.00  0.00    -0.347 N 
ATOM     23  H7  UNL     1      24.828  -5.605  25.609  1.00  0.00     0.167 HD
HETATM   24  C32 UNL     1      23.706  -5.784  23.964  1.00  0.00     0.099 C 
HETATM   25  C33 UNL     1      23.379  -6.334  22.743  1.00  0.00     0.057 C 
HETATM   26  C34 UNL     1      23.718  -7.577  22.208  1.00  0.00    -0.033 C 
HETATM   27  C35 UNL     1      23.449  -7.346  20.798  1.00  0.00     0.028 C 
HETATM   28  C36 UNL     1      21.941  -7.070  20.693  1.00  0.00     0.027 C 
ENDROOT
BRANCH   1  29
HETATM   29  N2  UNL     1      25.686  -4.369  20.465  1.00  0.00    -0.252 N 
HETATM   30  C9  UNL     1      25.591  -3.082  21.018  1.00  0.00     0.334 C 
HETATM   31  N1  UNL     1      26.307  -1.976  20.484  1.00  0.00    -0.342 N 
HETATM   32  O1  UNL     1      24.856  -2.876  22.017  1.00  0.00    -0.246 OA
ATOM     33  H1  UNL     1      26.907  -2.129  19.674  1.00  0.00     0.164 HD
ATOM     34  H2  UNL     1      26.293  -4.478  19.653  1.00  0.00     0.191 HD
BRANCH  31  35
HETATM   35  C8  UNL     1      26.221  -0.645  21.040  1.00  0.00     0.124 C 
BRANCH  35  36
HETATM   36  C7  UNL     1      27.562  -0.256  21.654  1.00  0.00     0.020 C 
BRANCH  36  37
HETATM   37  C6  UNL     1      27.930  -1.291  22.705  1.00  0.00     0.002 C 
BRANCH  37  38
HETATM   38  C5  UNL     1      27.211  -0.969  23.992  1.00  0.00     0.000 C 
BRANCH  38  39
HETATM   39  C4  UNL     1      27.411  -2.087  24.975  1.00  0.00     0.004 C 
BRANCH  39  40
HETATM   40  C3  UNL     1      28.247  -3.199  24.378  1.00  0.00     0.026 C 
BRANCH  40  41
HETATM   41  C2  UNL     1      27.446  -4.448  24.203  1.00  0.00    -0.037 C 
HETATM   42  C1  UNL     1      27.784  -5.382  23.324  1.00  0.00     0.007 C 
ENDBRANCH  40  41
ENDBRANCH  39  40
ENDBRANCH  38  39
ENDBRANCH  37  38
ENDBRANCH  36  37
ENDBRANCH  35  36
ENDBRANCH  31  35
ENDBRANCH   1  29
BRANCH   7  43
HETATM   43  C15 UNL     1      24.361  -5.258  15.993  1.00  0.00     0.007 C 
BRANCH  43  44
HETATM   44  C16 UNL     1      25.737  -4.588  15.879  1.00  0.00     0.020 C 
BRANCH  44  45
HETATM   45  C17 UNL     1      25.805  -3.379  16.795  1.00  0.00     0.122 C 
BRANCH  45  46
HETATM   46  N4  UNL     1      27.143  -3.219  17.329  1.00  0.00    -0.365 N 
HETATM   47  C18 UNL     1      28.275  -3.050  16.485  1.00  0.00     0.181 C 
HETATM   48  N5  UNL     1      28.648  -1.882  16.091  1.00  0.00    -0.374 N 
HETATM   49  N6  UNL     1      29.037  -4.167  16.048  1.00  0.00    -0.064 NA
ATOM     50  H52 UNL     1      28.101  -1.080  16.404  1.00  0.00     0.158 HD
ATOM     51  H51 UNL     1      29.460  -1.761  15.485  1.00  0.00     0.158 HD
ATOM     52  H4  UNL     1      27.276  -3.227  18.340  1.00  0.00     0.162 HD
ENDBRANCH  45  46
ENDBRANCH  44  45
ENDBRANCH  43  44
ENDBRANCH   7  43
BRANCH  24  53
HETATM   53  N8  UNL     1      23.144  -4.681  24.308  1.00  0.00    -0.385 N 
ATOM     54  H82 UNL     1      22.319  -4.723  24.905  1.00  0.00     0.157 HD
ATOM     55  H81 UNL     1      23.601  -3.850  23.934  1.00  0.00     0.157 HD
ENDBRANCH  24  53
TORSDOF 13
ENDMDL
MODEL 5
REMARK VINA RESULT: -8.595590526      2.667      6.914
REMARK  13 active torsions:
REMARK  status: ('A' for Active; 'I' for Inactive)
REMARK    1  A    between atoms: C2_2  and  C3_3 
REMARK    2  A    between atoms: C3_3  and  C4_4 
REMARK    3  A    between atoms: C4_4  and  C5_5 
REMARK    4  A    between atoms: C5_5  and  C6_6 
REMARK    5  A    between atoms: C6_6  and  C7_7 
REMARK    6  A    between atoms: C7_7  and  C8_8 
REMARK    7  A    between atoms: C8_8  and  N1_9 
REMARK       I    between atoms: N1_9  and  C9_11 
REMARK       I    between atoms: C9_11  and  N2_13 
REMARK    8  A    between atoms: N2_13  and  N3_15 
REMARK    9  A    between atoms: C14_21  and  C15_22 
REMARK   10  A    between atoms: C15_22  and  C16_23 
REMARK   11  A    between atoms: C16_23  and  C17_24 
REMARK   12  A    between atoms: C17_24  and  N4_25 
REMARK       I    between atoms: N4_25  and  C18_27 
REMARK   13  A    between atoms: C32_48  and  N8_49 
ROOT
HETATM    1  N3  UNL     1      24.468  -6.287  19.741  1.00  0.00    -0.304 N 
ATOM      2  H3  UNL     1      24.617  -6.971  19.000  1.00  0.00     0.186 HD
HETATM    3  C10 UNL     1      24.803  -5.091  19.511  1.00  0.00     0.018 C 
HETATM    4  C11 UNL     1      24.595  -4.067  20.583  1.00  0.00     0.065 C 
HETATM    5  C12 UNL     1      25.820  -3.223  20.744  1.00  0.00    -0.031 C 
HETATM    6  C13 UNL     1      25.533  -1.734  20.532  1.00  0.00     0.016 C 
HETATM    7  C14 UNL     1      26.422  -3.294  22.146  1.00  0.00    -0.006 C 
HETATM    8  C19 UNL     1      26.953  -4.678  22.197  1.00  0.00     0.006 C 
HETATM    9  C20 UNL     1      27.589  -4.825  20.808  1.00  0.00     0.006 C 
HETATM   10  C21 UNL     1      26.992  -3.712  19.957  1.00  0.00     0.000 C 
HETATM   11  C22 UNL     1      26.756  -4.119  18.545  1.00  0.00     0.016 C 
HETATM   12  C23 UNL     1      27.902  -5.095  18.228  1.00  0.00     0.086 C 
HETATM   13  C24 UNL     1      28.132  -4.996  16.786  1.00  0.00     0.139 C 
HETATM   14  O2  UNL     1      29.023  -4.270  16.436  1.00  0.00    -0.297 OA
HETATM   15  C25 UNL     1      27.365  -5.712  15.708  1.00  0.00     0.041 C 
HETATM   16  C26 UNL     1      26.974  -4.612  14.707  1.00  0.00     0.028 C 
HETATM   17  C27 UNL     1      28.330  -6.581  15.032  1.00  0.00     0.028 C 
HETATM   18  C28 UNL     1      26.134  -6.266  16.250  1.00  0.00    -0.033 C 
HETATM   19  C29 UNL     1      25.991  -7.494  15.697  1.00  0.00     0.033 C 
HETATM   20  C30 UNL     1      24.936  -8.402  15.759  1.00  0.00     0.007 C 
HETATM   21  C31 UNL     1      25.288  -9.751  15.316  1.00  0.00     0.068 C 
HETATM   22  N7  UNL     1      23.700  -8.099  16.182  1.00  0.00    -0.347 N 
ATOM     23  H7  UNL     1      23.019  -8.851  16.077  1.00  0.00     0.167 HD
HETATM   24  C32 UNL     1      23.210  -6.968  16.721  1.00  0.00     0.099 C 
HETATM   25  C33 UNL     1      23.919  -5.896  17.219  1.00  0.00     0.057 C 
HETATM   26  C34 UNL     1      25.288  -5.631  17.160  1.00  0.00    -0.033 C 
HETATM   27  C35 UNL     1      25.415  -4.633  18.210  1.00  0.00     0.028 C 
HETATM   28  C36 UNL     1      24.578  -3.428  17.752  1.00  0.00     0.027 C 
ENDROOT
BRANCH   1  29
HETATM   29  N2  UNL     1      23.918  -6.733  20.916  1.00  0.00    -0.252 N 
HETATM   30  C9  UNL     1      24.522  -7.603  21.838  1.00  0.00     0.334 C 
HETATM   31  N1  UNL     1      23.872  -8.002  23.037  1.00  0.00    -0.342 N 
HETATM   32  O1  UNL     1      25.674  -8.055  21.618  1.00  0.00    -0.246 OA
ATOM     33  H1  UNL     1      22.936  -7.643  23.228  1.00  0.00     0.164 HD
ATOM     34  H2  UNL     1      22.981  -6.400  21.143  1.00  0.00     0.191 HD
BRANCH  31  35
HETATM   35  C8  UNL     1      24.479  -8.897  23.996  1.00  0.00     0.124 C 
BRANCH  35  36
HETATM   36  C7  UNL     1      24.919  -8.110  25.227  1.00  0.00     0.020 C 
BRANCH  36  37
HETATM   37  C6  UNL     1      26.332  -7.600  24.992  1.00  0.00     0.002 C 
BRANCH  37  38
HETATM   38  C5  UNL     1      26.461  -6.212  25.569  1.00  0.00     0.000 C 
BRANCH  38  39
HETATM   39  C4  UNL     1      25.104  -5.697  25.954  1.00  0.00     0.004 C 
BRANCH  39  40
HETATM   40  C3  UNL     1      25.122  -5.087  27.339  1.00  0.00     0.026 C 
BRANCH  40  41
HETATM   41  C2  UNL     1      25.121  -6.140  28.399  1.00  0.00    -0.037 C 
HETATM   42  C1  UNL     1      24.465  -5.987  29.542  1.00  0.00     0.007 C 
ENDBRANCH  40  41
ENDBRANCH  39  40
ENDBRANCH  38  39
ENDBRANCH  37  38
ENDBRANCH  36  37
ENDBRANCH  35  36
ENDBRANCH  31  35
ENDBRANCH   1  29
BRANCH   7  43
HETATM   43  C15 UNL     1      25.504  -2.906  23.238  1.00  0.00     0.007 C 
BRANCH  43  44
HETATM   44  C16 UNL     1      26.378  -2.296  24.343  1.00  0.00     0.020 C 
BRANCH  44  45
HETATM   45  C17 UNL     1      27.328  -1.271  23.750  1.00  0.00     0.122 C 
BRANCH  45  46
HETATM   46  N4  UNL     1      26.895   0.073  24.076  1.00  0.00    -0.365 N 
HETATM   47  C18 UNL     1      26.268   0.915  23.118  1.00  0.00     0.181 C 
HETATM   48  N5  UNL     1      24.991   0.899  22.946  1.00  0.00    -0.374 N 
HETATM   49  N6  UNL     1      27.029   1.806  22.315  1.00  0.00    -0.064 NA
ATOM     50  H52 UNL     1      24.444   0.260  23.522  1.00  0.00     0.158 HD
ATOM     51  H51 UNL     1      24.541   1.504  22.258  1.00  0.00     0.158 HD
ATOM     52  H4  UNL     1      27.045   0.425  25.022  1.00  0.00     0.162 HD
ENDBRANCH  45  46
ENDBRANCH  44  45
ENDBRANCH  43  44
ENDBRANCH   7  43
BRANCH  24  53
HETATM   53  N8  UNL     1      21.927  -6.920  16.755  1.00  0.00    -0.385 N 
ATOM     54  H82 UNL     1      21.402  -7.544  16.142  1.00  0.00     0.157 HD
ATOM     55  H81 UNL     1      21.555  -6.239  17.416  1.00  0.00     0.157 HD
ENDBRANCH  24  53
TORSDOF 13
ENDMDL
