MODEL 1
REMARK VINA RESULT: -8.031023164      0.000      0.000
REMARK  3 active torsions:
REMARK  status: ('A' for Active; 'I' for Inactive)
REMARK    1  A    between atoms: C7_8  and  N1_9 
REMARK    2  A    between atoms: N1_9  and  N2_11 
REMARK    3  A    between atoms: N2_11  and  C8_13 
ROOT
HETATM    1  N1  UNL     1      -1.660  35.925  -0.120  1.00  0.00    -0.326 N 
ATOM      2  H1  UNL     1      -2.234  36.769  -0.115  1.00  0.00     0.181 HD
ENDROOT
BRANCH   1   3
HETATM    3  C7  UNL     1      -0.256  36.038  -0.213  1.00  0.00     0.134 C 
HETATM    4  C4  UNL     1       0.163  36.589  -1.579  1.00  0.00    -0.014 A 
HETATM    5  C3  UNL     1       1.361  37.211  -1.386  1.00  0.00    -0.008 A 
HETATM    6  C5  UNL     1      -0.335  36.592  -2.841  1.00  0.00    -0.040 A 
HETATM    7  S1  UNL     1       1.763  37.779  -2.944  1.00  0.00    -0.099 SA
HETATM    8  C16 UNL     1       1.775  37.124   0.074  1.00  0.00     0.049 C 
HETATM    9  C2  UNL     1       0.407  37.218  -3.801  1.00  0.00    -0.014 A 
HETATM   10  C1  UNL     1       0.102  37.374  -5.269  1.00  0.00     0.057 C 
HETATM   11  C15 UNL     1       0.365  37.065   0.698  1.00  0.00     0.036 C 
HETATM   12  C6  UNL     1      -1.656  35.943  -3.238  1.00  0.00     0.050 C 
ENDBRANCH   1   3
BRANCH   1  13
HETATM   13  N2  UNL     1      -2.251  34.718  -0.040  1.00  0.00    -0.293 N 
ATOM     14  H2  UNL     1      -3.178  34.658  -0.462  1.00  0.00     0.188 HD
BRANCH  13  15
HETATM   15  C8  UNL     1      -1.771  33.507   0.549  1.00  0.00     0.095 C 
HETATM   16  N3  UNL     1      -2.597  33.294   1.568  1.00  0.00    -0.358 N 
HETATM   17  C9  UNL     1      -2.604  32.224   2.523  1.00  0.00     0.062 C 
ATOM     18  H3  UNL     1      -3.332  33.992   1.687  1.00  0.00     0.166 HD
HETATM   19  C10 UNL     1      -1.591  32.090   3.583  1.00  0.00     0.044 C 
HETATM   20  C11 UNL     1      -0.198  31.554   3.111  1.00  0.00     0.005 C 
HETATM   21  C12 UNL     1      -0.092  32.067   1.807  1.00  0.00     0.001 C 
HETATM   22  C13 UNL     1       0.498  32.310   0.559  1.00  0.00     0.007 C 
HETATM   23  C14 UNL     1      -0.620  33.075  -0.219  1.00  0.00     0.078 C 
ENDBRANCH  13  15
ENDBRANCH   1  13
TORSDOF 3
ENDMDL
MODEL 2
REMARK VINA RESULT: -7.933705619      1.062      2.562
REMARK  3 active torsions:
REMARK  status: ('A' for Active; 'I' for Inactive)
REMARK    1  A    between atoms: C7_8  and  N1_9 
REMARK    2  A    between atoms: N1_9  and  N2_11 
REMARK    3  A    between atoms: N2_11  and  C8_13 
ROOT
HETATM    1  N1  UNL     1      -1.348  36.058  -0.111  1.00  0.00    -0.326 N 
ATOM      2  H1  UNL     1      -0.929  36.454   0.731  1.00  0.00     0.181 HD
ENDROOT
BRANCH   1   3
HETATM    3  C7  UNL     1      -1.236  36.746  -1.337  1.00  0.00     0.134 C 
HETATM    4  C4  UNL     1       0.048  37.582  -1.383  1.00  0.00    -0.014 A 
HETATM    5  C3  UNL     1       0.377  37.699  -2.701  1.00  0.00    -0.008 A 
HETATM    6  C5  UNL     1       0.863  38.196  -0.488  1.00  0.00    -0.040 A 
HETATM    7  S1  UNL     1       1.795  38.648  -2.667  1.00  0.00    -0.099 SA
HETATM    8  C16 UNL     1      -0.627  36.956  -3.567  1.00  0.00     0.049 C 
HETATM    9  C2  UNL     1       1.938  38.873  -0.989  1.00  0.00    -0.014 A 
HETATM   10  C1  UNL     1       2.997  39.637  -0.237  1.00  0.00     0.057 C 
HETATM   11  C15 UNL     1      -1.035  35.872  -2.548  1.00  0.00     0.036 C 
HETATM   12  C6  UNL     1       0.644  38.172   1.020  1.00  0.00     0.050 C 
ENDBRANCH   1   3
BRANCH   1  13
HETATM   13  N2  UNL     1      -2.003  34.883  -0.037  1.00  0.00    -0.293 N 
ATOM     14  H2  UNL     1      -2.925  34.870  -0.472  1.00  0.00     0.188 HD
BRANCH  13  15
HETATM   15  C8  UNL     1      -1.595  33.650   0.561  1.00  0.00     0.095 C 
HETATM   16  N3  UNL     1      -2.581  33.357   1.401  1.00  0.00    -0.358 N 
HETATM   17  C9  UNL     1      -2.722  32.231   2.279  1.00  0.00     0.062 C 
ATOM     18  H3  UNL     1      -3.348  34.029   1.425  1.00  0.00     0.166 HD
HETATM   19  C10 UNL     1      -1.909  32.057   3.494  1.00  0.00     0.044 C 
HETATM   20  C11 UNL     1      -0.438  31.583   3.251  1.00  0.00     0.005 C 
HETATM   21  C12 UNL     1      -0.119  32.176   2.018  1.00  0.00     0.001 C 
HETATM   22  C13 UNL     1       0.675  32.507   0.912  1.00  0.00     0.007 C 
HETATM   23  C14 UNL     1      -0.312  33.291  -0.011  1.00  0.00     0.078 C 
ENDBRANCH  13  15
ENDBRANCH   1  13
TORSDOF 3
ENDMDL
MODEL 3
REMARK VINA RESULT: -7.899160070      1.758      3.244
REMARK  3 active torsions:
REMARK  status: ('A' for Active; 'I' for Inactive)
REMARK    1  A    between atoms: C7_8  and  N1_9 
REMARK    2  A    between atoms: N1_9  and  N2_11 
REMARK    3  A    between atoms: N2_11  and  C8_13 
ROOT
HETATM    1  N1  UNL     1      -0.068  35.371  -1.040  1.00  0.00    -0.326 N 
ATOM      2  H1  UNL     1       0.875  35.289  -1.419  1.00  0.00     0.181 HD
ENDROOT
BRANCH   1   3
HETATM    3  C7  UNL     1      -0.547  36.633  -0.627  1.00  0.00     0.134 C 
HETATM    4  C4  UNL     1       0.548  37.429   0.092  1.00  0.00    -0.014 A 
HETATM    5  C3  UNL     1       0.240  38.745  -0.087  1.00  0.00    -0.008 A 
HETATM    6  C5  UNL     1       1.660  37.150   0.819  1.00  0.00    -0.040 A 
HETATM    7  S1  UNL     1       1.488  39.555   0.748  1.00  0.00    -0.099 SA
HETATM    8  C16 UNL     1      -1.021  38.886  -0.923  1.00  0.00     0.049 C 
HETATM    9  C2  UNL     1       2.368  38.212   1.303  1.00  0.00    -0.014 A 
HETATM   10  C1  UNL     1       3.627  38.199   2.131  1.00  0.00     0.057 C 
HETATM   11  C15 UNL     1      -0.887  37.586  -1.743  1.00  0.00     0.036 C 
HETATM   12  C6  UNL     1       2.149  35.738   1.121  1.00  0.00     0.050 C 
ENDBRANCH   1   3
BRANCH   1  13
HETATM   13  N2  UNL     1      -0.842  34.274  -0.939  1.00  0.00    -0.293 N 
ATOM     14  H2  UNL     1      -1.565  34.183  -1.653  1.00  0.00     0.188 HD
BRANCH  13  15
HETATM   15  C8  UNL     1      -0.800  33.216   0.022  1.00  0.00     0.095 C 
HETATM   16  N3  UNL     1      -2.025  33.199   0.536  1.00  0.00    -0.358 N 
HETATM   17  C9  UNL     1      -2.572  32.344   1.550  1.00  0.00     0.062 C 
ATOM     18  H3  UNL     1      -2.669  33.892   0.155  1.00  0.00     0.166 HD
HETATM   19  C10 UNL     1      -2.199  32.445   2.971  1.00  0.00     0.044 C 
HETATM   20  C11 UNL     1      -0.798  31.851   3.337  1.00  0.00     0.005 C 
HETATM   21  C12 UNL     1      -0.044  32.091   2.176  1.00  0.00     0.001 C 
HETATM   22  C13 UNL     1       1.086  32.088   1.346  1.00  0.00     0.007 C 
HETATM   23  C14 UNL     1       0.538  32.659  -0.001  1.00  0.00     0.078 C 
ENDBRANCH  13  15
ENDBRANCH   1  13
TORSDOF 3
ENDMDL
MODEL 4
REMARK VINA RESULT: -7.855084374      4.436      6.884
REMARK  3 active torsions:
REMARK  status: ('A' for Active; 'I' for Inactive)
REMARK    1  A    between atoms: C7_8  and  N1_9 
REMARK    2  A    between atoms: N1_9  and  N2_11 
REMARK    3  A    between atoms: N2_11  and  C8_13 
ROOT
HETATM    1  N1  UNL     1       2.847  37.073   1.878  1.00  0.00    -0.326 N 
ATOM      2  H1  UNL     1       2.931  36.203   2.405  1.00  0.00     0.181 HD
ENDROOT
BRANCH   1   3
HETATM    3  C7  UNL     1       1.869  37.185   0.868  1.00  0.00     0.134 C 
HETATM    4  C4  UNL     1       1.205  35.832   0.592  1.00  0.00    -0.014 A 
HETATM    5  C3  UNL     1      -0.041  36.112   0.114  1.00  0.00    -0.008 A 
HETATM    6  C5  UNL     1       1.546  34.522   0.694  1.00  0.00    -0.040 A 
HETATM    7  S1  UNL     1      -0.703  34.566  -0.180  1.00  0.00    -0.099 SA
HETATM    8  C16 UNL     1      -0.267  37.614   0.068  1.00  0.00     0.049 C 
HETATM    9  C2  UNL     1       0.611  33.605   0.309  1.00  0.00    -0.014 A 
HETATM   10  C1  UNL     1       0.715  32.101   0.315  1.00  0.00     0.057 C 
HETATM   11  C15 UNL     1       0.662  38.011   1.233  1.00  0.00     0.036 C 
HETATM   12  C6  UNL     1       2.895  34.030   1.203  1.00  0.00     0.050 C 
ENDBRANCH   1   3
BRANCH   1  13
HETATM   13  N2  UNL     1       3.673  38.100   2.156  1.00  0.00    -0.293 N 
ATOM     14  H2  UNL     1       4.426  38.247   1.483  1.00  0.00     0.188 HD
BRANCH  13  15
HETATM   15  C8  UNL     1       3.650  39.015   3.254  1.00  0.00     0.095 C 
HETATM   16  N3  UNL     1       3.717  38.234   4.326  1.00  0.00    -0.358 N 
HETATM   17  C9  UNL     1       3.730  38.596   5.714  1.00  0.00     0.062 C 
ATOM     18  H3  UNL     1       3.766  37.233   4.135  1.00  0.00     0.166 HD
HETATM   19  C10 UNL     1       2.544  39.114   6.417  1.00  0.00     0.044 C 
HETATM   20  C11 UNL     1       2.186  40.607   6.113  1.00  0.00     0.005 C 
HETATM   21  C12 UNL     1       2.593  40.759   4.776  1.00  0.00     0.001 C 
HETATM   22  C13 UNL     1       2.793  41.414   3.554  1.00  0.00     0.007 C 
HETATM   23  C14 UNL     1       3.564  40.354   2.704  1.00  0.00     0.078 C 
ENDBRANCH  13  15
ENDBRANCH   1  13
TORSDOF 3
ENDMDL
MODEL 5
REMARK VINA RESULT: -7.797586539      2.031      2.719
REMARK  3 active torsions:
REMARK  status: ('A' for Active; 'I' for Inactive)
REMARK    1  A    between atoms: C7_8  and  N1_9 
REMARK    2  A    between atoms: N1_9  and  N2_11 
REMARK    3  A    between atoms: N2_11  and  C8_13 
ROOT
HETATM    1  N1  UNL     1       1.688  35.715  -1.089  1.00  0.00    -0.326 N 
ATOM      2  H1  UNL     1       1.420  35.574  -2.064  1.00  0.00     0.181 HD
ENDROOT
BRANCH   1   3
HETATM    3  C7  UNL     1       2.037  37.007  -0.642  1.00  0.00     0.134 C 
HETATM    4  C4  UNL     1       0.998  38.043  -1.085  1.00  0.00    -0.014 A 
HETATM    5  C3  UNL     1       1.055  39.053  -0.171  1.00  0.00    -0.008 A 
HETATM    6  C5  UNL     1       0.112  38.183  -2.103  1.00  0.00    -0.040 A 
HETATM    7  S1  UNL     1      -0.111  40.162  -0.741  1.00  0.00    -0.099 SA
HETATM    8  C16 UNL     1       2.087  38.741   0.901  1.00  0.00     0.049 C 
HETATM    9  C2  UNL     1      -0.642  39.322  -2.119  1.00  0.00    -0.014 A 
HETATM   10  C1  UNL     1      -1.692  39.737  -3.117  1.00  0.00     0.057 C 
HETATM   11  C15 UNL     1       1.994  37.202   0.852  1.00  0.00     0.036 C 
HETATM   12  C6  UNL     1      -0.082  37.156  -3.213  1.00  0.00     0.050 C 
ENDBRANCH   1   3
BRANCH   1  13
HETATM   13  N2  UNL     1       1.704  34.666  -0.245  1.00  0.00    -0.293 N 
ATOM     14  H2  UNL     1       2.584  34.517   0.249  1.00  0.00     0.188 HD
BRANCH  13  15
HETATM   15  C8  UNL     1       0.668  33.729   0.061  1.00  0.00     0.095 C 
HETATM   16  N3  UNL     1      -0.413  34.244  -0.513  1.00  0.00    -0.358 N 
HETATM   17  C9  UNL     1      -1.755  33.739  -0.539  1.00  0.00     0.062 C 
ATOM     18  H3  UNL     1      -0.268  35.126  -1.005  1.00  0.00     0.166 HD
HETATM   19  C10 UNL     1      -2.634  33.737   0.643  1.00  0.00     0.044 C 
HETATM   20  C11 UNL     1      -2.322  32.629   1.704  1.00  0.00     0.005 C 
HETATM   21  C12 UNL     1      -0.928  32.484   1.603  1.00  0.00     0.001 C 
HETATM   22  C13 UNL     1       0.343  31.976   1.906  1.00  0.00     0.007 C 
HETATM   23  C14 UNL     1       1.262  32.665   0.847  1.00  0.00     0.078 C 
ENDBRANCH  13  15
ENDBRANCH   1  13
TORSDOF 3
ENDMDL
