MODEL 1
REMARK VINA RESULT: -8.858236232      0.000      0.000
REMARK  7 active torsions:
REMARK  status: ('A' for Active; 'I' for Inactive)
REMARK    1  A    between atoms: N1_2  and  C3_4 
REMARK    2  A    between atoms: C3_4  and  C4_5 
REMARK    3  A    between atoms: C4_5  and  N2_6 
REMARK    4  A    between atoms: N2_6  and  C5_8 
REMARK    5  A    between atoms: C6_11  and  N4_12 
REMARK    6  A    between atoms: C9_17  and  C10_18 
REMARK    7  A    between atoms: N7_26  and  C15_28 
ROOT
HETATM    1  C5  UNL     1      12.597  64.316   2.052  1.00  0.00     0.694 A 
HETATM    2  N3  UNL     1      12.681  64.652   0.753  1.00  0.00    -0.022 N 
ATOM      3  H3  UNL     1      13.597  64.660   0.303  1.00  0.00     0.203 HD
HETATM    4  C6  UNL     1      11.598  64.977   0.030  1.00  0.00     0.695 A 
HETATM    5  N5  UNL     1      10.425  64.957   0.647  1.00  0.00    -0.175 N 
ATOM      6  H5  UNL     1       9.600  65.205   0.101  1.00  0.00     0.186 HD
HETATM    7  C9  UNL     1      10.236  64.628   1.970  1.00  0.00     0.150 A 
HETATM    8  N8  UNL     1      11.347  64.319   2.617  1.00  0.00    -0.175 N 
ATOM      9  H8  UNL     1      11.271  64.067   3.602  1.00  0.00     0.186 HD
ENDROOT
BRANCH   7  10
HETATM   10  C10 UNL     1       8.879  64.642   2.499  1.00  0.00     0.054 A 
HETATM   11  C11 UNL     1       8.418  65.845   3.077  1.00  0.00     0.039 A 
HETATM   12  C12 UNL     1       7.157  65.905   3.570  1.00  0.00     0.027 A 
HETATM   13 BR1  UNL     1       6.536  67.539   4.354  1.00  0.00    -0.050 Br
HETATM   14  C13 UNL     1       6.301  64.828   3.526  1.00  0.00     0.108 A 
HETATM   15  N6  UNL     1       6.717  63.688   2.986  1.00  0.00    -0.350 N 
HETATM   16  C14 UNL     1       7.997  63.605   2.479  1.00  0.00     0.119 A 
ATOM     17  H6  UNL     1       6.094  62.881   2.947  1.00  0.00     0.166 HD
HETATM   18  N7  UNL     1       8.360  62.477   1.972  1.00  0.00    -0.342 N 
ATOM     19  H7  UNL     1       9.304  62.389   1.595  1.00  0.00     0.167 HD
BRANCH  18  20
HETATM   20  C15 UNL     1       7.501  61.359   1.917  1.00  0.00     0.034 A 
HETATM   21  C16 UNL     1       6.417  61.272   1.046  1.00  0.00     0.029 A 
HETATM   22  C17 UNL     1       5.586  60.172   1.002  1.00  0.00     0.004 A 
HETATM   23  C18 UNL     1       5.826  59.101   1.854  1.00  0.00     0.019 A 
HETATM   24  C19 UNL     1       6.893  59.155   2.729  1.00  0.00     0.013 A 
HETATM   25 BR2  UNL     1       7.182  57.644   3.882  1.00  0.00    -0.051 Br
HETATM   26  C20 UNL     1       7.696  60.253   2.750  1.00  0.00     0.048 A 
ENDBRANCH  18  20
ENDBRANCH   7  10
BRANCH   4  27
HETATM   27  N4  UNL     1      11.726  65.323  -1.338  1.00  0.00    -0.226 N 
HETATM   28  C7  UNL     1      10.677  65.084  -2.307  1.00  0.00     0.168 C 
HETATM   29  C8  UNL     1      12.948  65.940  -1.810  1.00  0.00     0.168 C 
ENDBRANCH   4  27
BRANCH   1  30
HETATM   30  N2  UNL     1      13.640  64.001   2.742  1.00  0.00    -0.224 N 
ATOM     31  H2  UNL     1      14.086  63.094   2.607  1.00  0.00     0.177 HD
BRANCH  30  32
HETATM   32  C4  UNL     1      14.164  64.920   3.692  1.00  0.00     0.168 C 
BRANCH  32  33
HETATM   33  C3  UNL     1      14.945  64.372   4.823  1.00  0.00     0.291 C 
BRANCH  33  34
HETATM   34  N1  UNL     1      14.890  65.073   6.060  1.00  0.00     0.081 N 
HETATM   35  C1  UNL     1      14.960  64.065   7.140  1.00  0.00     0.309 C 
HETATM   36  C2  UNL     1      13.541  65.628   6.208  1.00  0.00     0.309 C 
ENDBRANCH  33  34
ENDBRANCH  32  33
ENDBRANCH  30  32
ENDBRANCH   1  30
TORSDOF 7
ENDMDL
MODEL 2
REMARK VINA RESULT: -8.732032726      0.966      1.291
REMARK  7 active torsions:
REMARK  status: ('A' for Active; 'I' for Inactive)
REMARK    1  A    between atoms: N1_2  and  C3_4 
REMARK    2  A    between atoms: C3_4  and  C4_5 
REMARK    3  A    between atoms: C4_5  and  N2_6 
REMARK    4  A    between atoms: N2_6  and  C5_8 
REMARK    5  A    between atoms: C6_11  and  N4_12 
REMARK    6  A    between atoms: C9_17  and  C10_18 
REMARK    7  A    between atoms: N7_26  and  C15_28 
ROOT
HETATM    1  C5  UNL     1      12.587  64.288   2.056  1.00  0.00     0.694 A 
HETATM    2  N3  UNL     1      12.631  64.584   0.746  1.00  0.00    -0.022 N 
ATOM      3  H3  UNL     1      13.533  64.580   0.268  1.00  0.00     0.203 HD
HETATM    4  C6  UNL     1      11.526  64.886   0.046  1.00  0.00     0.695 A 
HETATM    5  N5  UNL     1      10.372  64.883   0.699  1.00  0.00    -0.175 N 
ATOM      6  H5  UNL     1       9.530  65.113   0.171  1.00  0.00     0.186 HD
HETATM    7  C9  UNL     1      10.224  64.595   2.037  1.00  0.00     0.150 A 
HETATM    8  N8  UNL     1      11.356  64.308   2.658  1.00  0.00    -0.175 N 
ATOM      9  H8  UNL     1      11.309  64.086   3.652  1.00  0.00     0.186 HD
ENDROOT
BRANCH   7  10
HETATM   10  C10 UNL     1       8.884  64.623   2.606  1.00  0.00     0.054 A 
HETATM   11  C11 UNL     1       8.404  65.864   3.081  1.00  0.00     0.039 A 
HETATM   12  C12 UNL     1       7.158  65.938   3.607  1.00  0.00     0.027 A 
HETATM   13 BR1  UNL     1       6.511  67.623   4.250  1.00  0.00    -0.050 Br
HETATM   14  C13 UNL     1       6.334  64.839   3.695  1.00  0.00     0.108 A 
HETATM   15  N6  UNL     1       6.767  63.663   3.254  1.00  0.00    -0.350 N 
HETATM   16  C14 UNL     1       8.033  63.566   2.716  1.00  0.00     0.119 A 
ATOM     17  H6  UNL     1       6.168  62.840   3.313  1.00  0.00     0.166 HD
HETATM   18  N7  UNL     1       8.415  62.405   2.307  1.00  0.00    -0.342 N 
ATOM     19  H7  UNL     1       9.350  62.306   1.910  1.00  0.00     0.167 HD
BRANCH  18  20
HETATM   20  C15 UNL     1       7.589  61.264   2.389  1.00  0.00     0.034 A 
HETATM   21  C16 UNL     1       7.655  60.347   3.436  1.00  0.00     0.029 A 
HETATM   22  C17 UNL     1       6.840  59.237   3.505  1.00  0.00     0.004 A 
HETATM   23  C18 UNL     1       5.912  59.009   2.496  1.00  0.00     0.019 A 
HETATM   24  C19 UNL     1       5.819  59.898   1.444  1.00  0.00     0.013 A 
HETATM   25 BR2  UNL     1       4.516  59.538   0.078  1.00  0.00    -0.051 Br
HETATM   26  C20 UNL     1       6.637  60.985   1.403  1.00  0.00     0.048 A 
ENDBRANCH  18  20
ENDBRANCH   7  10
BRANCH   4  27
HETATM   27  N4  UNL     1      11.611  65.190  -1.335  1.00  0.00    -0.226 N 
HETATM   28  C7  UNL     1      10.572  64.836  -2.280  1.00  0.00     0.168 C 
HETATM   29  C8  UNL     1      12.777  65.879  -1.846  1.00  0.00     0.168 C 
ENDBRANCH   4  27
BRANCH   1  30
HETATM   30  N2  UNL     1      13.651  63.996   2.723  1.00  0.00    -0.224 N 
ATOM     31  H2  UNL     1      14.129  63.110   2.560  1.00  0.00     0.177 HD
BRANCH  30  32
HETATM   32  C4  UNL     1      14.156  64.911   3.688  1.00  0.00     0.168 C 
BRANCH  32  33
HETATM   33  C3  UNL     1      14.921  64.360   4.828  1.00  0.00     0.291 C 
BRANCH  33  34
HETATM   34  N1  UNL     1      14.879  65.077   6.056  1.00  0.00     0.081 N 
HETATM   35  C1  UNL     1      14.949  64.082   7.148  1.00  0.00     0.309 C 
HETATM   36  C2  UNL     1      13.534  65.642   6.206  1.00  0.00     0.309 C 
ENDBRANCH  33  34
ENDBRANCH  32  33
ENDBRANCH  30  32
ENDBRANCH   1  30
TORSDOF 7
ENDMDL
MODEL 3
REMARK VINA RESULT: -8.602975294      1.742      2.289
REMARK  7 active torsions:
REMARK  status: ('A' for Active; 'I' for Inactive)
REMARK    1  A    between atoms: N1_2  and  C3_4 
REMARK    2  A    between atoms: C3_4  and  C4_5 
REMARK    3  A    between atoms: C4_5  and  N2_6 
REMARK    4  A    between atoms: N2_6  and  C5_8 
REMARK    5  A    between atoms: C6_11  and  N4_12 
REMARK    6  A    between atoms: C9_17  and  C10_18 
REMARK    7  A    between atoms: N7_26  and  C15_28 
ROOT
HETATM    1  C5  UNL     1      11.279  63.711   1.366  1.00  0.00     0.694 A 
HETATM    2  N3  UNL     1      10.945  63.886   0.076  1.00  0.00    -0.022 N 
ATOM      3  H3  UNL     1      11.685  64.040  -0.610  1.00  0.00     0.203 HD
HETATM    4  C6  UNL     1       9.668  63.863  -0.338  1.00  0.00     0.695 A 
HETATM    5  N5  UNL     1       8.733  63.661   0.580  1.00  0.00    -0.175 N 
ATOM      6  H5  UNL     1       7.762  63.644   0.268  1.00  0.00     0.186 HD
HETATM    7  C9  UNL     1       8.974  63.473   1.922  1.00  0.00     0.150 A 
HETATM    8  N8  UNL     1      10.254  63.508   2.254  1.00  0.00    -0.175 N 
ATOM      9  H8  UNL     1      10.495  63.375   3.235  1.00  0.00     0.186 HD
ENDROOT
BRANCH   7  10
HETATM   10  C10 UNL     1       7.837  63.251   2.803  1.00  0.00     0.054 A 
HETATM   11  C11 UNL     1       7.290  64.378   3.457  1.00  0.00     0.039 A 
HETATM   12  C12 UNL     1       6.223  64.218   4.277  1.00  0.00     0.027 A 
HETATM   13 BR1  UNL     1       5.485  65.749   5.162  1.00  0.00    -0.050 Br
HETATM   14  C13 UNL     1       5.647  62.988   4.497  1.00  0.00     0.108 A 
HETATM   15  N6  UNL     1       6.146  61.917   3.892  1.00  0.00    -0.350 N 
HETATM   16  C14 UNL     1       7.233  62.057   3.054  1.00  0.00     0.119 A 
ATOM     17  H6  UNL     1       5.730  60.998   4.046  1.00  0.00     0.166 HD
HETATM   18  N7  UNL     1       7.690  60.990   2.493  1.00  0.00    -0.342 N 
ATOM     19  H7  UNL     1       8.496  61.067   1.873  1.00  0.00     0.167 HD
BRANCH  18  20
HETATM   20  C15 UNL     1       7.116  59.718   2.705  1.00  0.00     0.034 A 
HETATM   21  C16 UNL     1       7.727  58.723   3.465  1.00  0.00     0.029 A 
HETATM   22  C17 UNL     1       7.155  57.484   3.666  1.00  0.00     0.004 A 
HETATM   23  C18 UNL     1       5.920  57.202   3.093  1.00  0.00     0.019 A 
HETATM   24  C19 UNL     1       5.287  58.167   2.335  1.00  0.00     0.013 A 
HETATM   25 BR2  UNL     1       3.579  57.727   1.570  1.00  0.00    -0.051 Br
HETATM   26  C20 UNL     1       5.876  59.380   2.154  1.00  0.00     0.048 A 
ENDBRANCH  18  20
ENDBRANCH   7  10
BRANCH   4  27
HETATM   27  N4  UNL     1       9.355  64.048  -1.708  1.00  0.00    -0.226 N 
HETATM   28  C7  UNL     1       7.997  64.199  -2.186  1.00  0.00     0.168 C 
HETATM   29  C8  UNL     1      10.420  64.089  -2.687  1.00  0.00     0.168 C 
ENDBRANCH   4  27
BRANCH   1  30
HETATM   30  N2  UNL     1      12.507  63.730   1.759  1.00  0.00    -0.224 N 
ATOM     31  H2  UNL     1      13.173  63.053   1.387  1.00  0.00     0.177 HD
BRANCH  30  32
HETATM   32  C4  UNL     1      12.930  64.696   2.713  1.00  0.00     0.168 C 
BRANCH  32  33
HETATM   33  C3  UNL     1      14.174  64.423   3.467  1.00  0.00     0.291 C 
BRANCH  33  34
HETATM   34  N1  UNL     1      14.400  65.171   4.656  1.00  0.00     0.081 N 
HETATM   35  C1  UNL     1      14.937  64.236   5.668  1.00  0.00     0.309 C 
HETATM   36  C2  UNL     1      13.095  65.548   5.210  1.00  0.00     0.309 C 
ENDBRANCH  33  34
ENDBRANCH  32  33
ENDBRANCH  30  32
ENDBRANCH   1  30
TORSDOF 7
ENDMDL
MODEL 4
REMARK VINA RESULT: -8.447882845      1.167      4.496
REMARK  7 active torsions:
REMARK  status: ('A' for Active; 'I' for Inactive)
REMARK    1  A    between atoms: N1_2  and  C3_4 
REMARK    2  A    between atoms: C3_4  and  C4_5 
REMARK    3  A    between atoms: C4_5  and  N2_6 
REMARK    4  A    between atoms: N2_6  and  C5_8 
REMARK    5  A    between atoms: C6_11  and  N4_12 
REMARK    6  A    between atoms: C9_17  and  C10_18 
REMARK    7  A    between atoms: N7_26  and  C15_28 
ROOT
HETATM    1  C5  UNL     1      12.163  65.664   1.021  1.00  0.00     0.694 A 
HETATM    2  N3  UNL     1      13.008  65.484   2.051  1.00  0.00    -0.022 N 
ATOM      3  H3  UNL     1      14.013  65.504   1.875  1.00  0.00     0.203 HD
HETATM    4  C6  UNL     1      12.569  65.280   3.303  1.00  0.00     0.695 A 
HETATM    5  N5  UNL     1      11.257  65.260   3.494  1.00  0.00    -0.175 N 
ATOM      6  H5  UNL     1      10.922  65.104   4.445  1.00  0.00     0.186 HD
HETATM    7  C9  UNL     1      10.315  65.432   2.507  1.00  0.00     0.150 A 
HETATM    8  N8  UNL     1      10.822  65.629   1.301  1.00  0.00    -0.175 N 
ATOM      9  H8  UNL     1      10.171  65.763   0.527  1.00  0.00     0.186 HD
ENDROOT
BRANCH   7  10
HETATM   10  C10 UNL     1       8.908  65.395   2.880  1.00  0.00     0.054 A 
HETATM   11  C11 UNL     1       8.360  66.554   3.472  1.00  0.00     0.039 A 
HETATM   12  C12 UNL     1       7.051  66.566   3.823  1.00  0.00     0.027 A 
HETATM   13 BR1  UNL     1       6.312  68.140   4.627  1.00  0.00    -0.050 Br
HETATM   14  C13 UNL     1       6.229  65.481   3.621  1.00  0.00     0.108 A 
HETATM   15  N6  UNL     1       6.725  64.382   3.066  1.00  0.00    -0.350 N 
HETATM   16  C14 UNL     1       8.056  64.348   2.701  1.00  0.00     0.119 A 
ATOM     17  H6  UNL     1       6.128  63.569   2.910  1.00  0.00     0.166 HD
HETATM   18  N7  UNL     1       8.497  63.259   2.173  1.00  0.00    -0.342 N 
ATOM     19  H7  UNL     1       9.478  63.207   1.900  1.00  0.00     0.167 HD
BRANCH  18  20
HETATM   20  C15 UNL     1       7.673  62.134   1.957  1.00  0.00     0.034 A 
HETATM   21  C16 UNL     1       6.719  62.070   0.944  1.00  0.00     0.029 A 
HETATM   22  C17 UNL     1       5.921  60.963   0.743  1.00  0.00     0.004 A 
HETATM   23  C18 UNL     1       6.062  59.860   1.576  1.00  0.00     0.019 A 
HETATM   24  C19 UNL     1       6.999  59.890   2.591  1.00  0.00     0.013 A 
HETATM   25 BR2  UNL     1       7.156  58.336   3.712  1.00  0.00    -0.051 Br
HETATM   26  C20 UNL     1       7.772  60.996   2.765  1.00  0.00     0.048 A 
ENDBRANCH  18  20
ENDBRANCH   7  10
BRANCH   4  27
HETATM   27  N4  UNL     1      13.490  65.098   4.365  1.00  0.00    -0.226 N 
HETATM   28  C7  UNL     1      13.266  65.625   5.695  1.00  0.00     0.168 C 
HETATM   29  C8  UNL     1      14.713  64.358   4.133  1.00  0.00     0.168 C 
ENDBRANCH   4  27
BRANCH   1  30
HETATM   30  N2  UNL     1      12.588  65.864  -0.180  1.00  0.00    -0.224 N 
ATOM     31  H2  UNL     1      13.147  66.690  -0.394  1.00  0.00     0.177 HD
BRANCH  30  32
HETATM   32  C4  UNL     1      12.276  64.930  -1.206  1.00  0.00     0.168 C 
BRANCH  32  33
HETATM   33  C3  UNL     1      11.034  65.146  -1.981  1.00  0.00     0.291 C 
BRANCH  33  34
HETATM   34  N1  UNL     1      10.203  64.016  -2.220  1.00  0.00     0.081 N 
HETATM   35  C1  UNL     1       9.714  64.116  -3.612  1.00  0.00     0.309 C 
HETATM   36  C2  UNL     1       8.981  64.174  -1.424  1.00  0.00     0.309 C 
ENDBRANCH  33  34
ENDBRANCH  32  33
ENDBRANCH  30  32
ENDBRANCH   1  30
TORSDOF 7
ENDMDL
MODEL 5
REMARK VINA RESULT: -8.220271624      2.081      5.049
REMARK  7 active torsions:
REMARK  status: ('A' for Active; 'I' for Inactive)
REMARK    1  A    between atoms: N1_2  and  C3_4 
REMARK    2  A    between atoms: C3_4  and  C4_5 
REMARK    3  A    between atoms: C4_5  and  N2_6 
REMARK    4  A    between atoms: N2_6  and  C5_8 
REMARK    5  A    between atoms: C6_11  and  N4_12 
REMARK    6  A    between atoms: C9_17  and  C10_18 
REMARK    7  A    between atoms: N7_26  and  C15_28 
ROOT
HETATM    1  C5  UNL     1      10.535  63.379   0.540  1.00  0.00     0.694 A 
HETATM    2  N3  UNL     1      11.465  63.969   1.310  1.00  0.00    -0.022 N 
ATOM      3  H3  UNL     1      12.384  64.164   0.913  1.00  0.00     0.203 HD
HETATM    4  C6  UNL     1      11.221  64.310   2.585  1.00  0.00     0.695 A 
HETATM    5  N5  UNL     1      10.016  64.040   3.068  1.00  0.00    -0.175 N 
ATOM      6  H5  UNL     1       9.828  64.297   4.038  1.00  0.00     0.186 HD
HETATM    7  C9  UNL     1       9.000  63.439   2.361  1.00  0.00     0.150 A 
HETATM    8  N8  UNL     1       9.314  63.133   1.113  1.00  0.00    -0.175 N 
ATOM      9  H8  UNL     1       8.601  62.685   0.539  1.00  0.00     0.186 HD
ENDROOT
BRANCH   7  10
HETATM   10  C10 UNL     1       7.726  63.221   3.032  1.00  0.00     0.054 A 
HETATM   11  C11 UNL     1       7.083  64.348   3.591  1.00  0.00     0.039 A 
HETATM   12  C12 UNL     1       5.890  64.191   4.213  1.00  0.00     0.027 A 
HETATM   13 BR1  UNL     1       5.022  65.722   4.971  1.00  0.00    -0.050 Br
HETATM   14  C13 UNL     1       5.275  62.965   4.321  1.00  0.00     0.108 A 
HETATM   15  N6  UNL     1       5.863  61.894   3.801  1.00  0.00    -0.350 N 
HETATM   16  C14 UNL     1       7.079  62.030   3.164  1.00  0.00     0.119 A 
ATOM     17  H6  UNL     1       5.420  60.978   3.873  1.00  0.00     0.166 HD
HETATM   18  N7  UNL     1       7.618  60.963   2.682  1.00  0.00    -0.342 N 
ATOM     19  H7  UNL     1       8.520  61.038   2.211  1.00  0.00     0.167 HD
BRANCH  18  20
HETATM   20  C15 UNL     1       7.007  59.695   2.781  1.00  0.00     0.034 A 
HETATM   21  C16 UNL     1       7.556  58.639   3.505  1.00  0.00     0.029 A 
HETATM   22  C17 UNL     1       6.947  57.404   3.595  1.00  0.00     0.004 A 
HETATM   23  C18 UNL     1       5.739  57.190   2.943  1.00  0.00     0.019 A 
HETATM   24  C19 UNL     1       5.167  58.217   2.217  1.00  0.00     0.013 A 
HETATM   25 BR2  UNL     1       3.494  57.868   1.338  1.00  0.00    -0.051 Br
HETATM   26  C20 UNL     1       5.791  59.424   2.146  1.00  0.00     0.048 A 
ENDBRANCH  18  20
ENDBRANCH   7  10
BRANCH   4  27
HETATM   27  N4  UNL     1      12.226  64.934   3.366  1.00  0.00    -0.226 N 
HETATM   28  C7  UNL     1      11.926  65.918   4.385  1.00  0.00     0.168 C 
HETATM   29  C8  UNL     1      13.615  64.590   3.152  1.00  0.00     0.168 C 
ENDBRANCH   4  27
BRANCH   1  30
HETATM   30  N2  UNL     1      10.772  63.056  -0.686  1.00  0.00    -0.224 N 
ATOM     31  H2  UNL     1      10.965  62.085  -0.931  1.00  0.00     0.177 HD
BRANCH  30  32
HETATM   32  C4  UNL     1      10.765  64.058  -1.696  1.00  0.00     0.168 C 
BRANCH  32  33
HETATM   33  C3  UNL     1       9.476  64.713  -2.009  1.00  0.00     0.291 C 
BRANCH  33  34
HETATM   34  N1  UNL     1       9.167  64.934  -3.380  1.00  0.00     0.081 N 
HETATM   35  C1  UNL     1       9.697  63.782  -4.142  1.00  0.00     0.309 C 
HETATM   36  C2  UNL     1       9.987  66.053  -3.856  1.00  0.00     0.309 C 
ENDBRANCH  33  34
ENDBRANCH  32  33
ENDBRANCH  30  32
ENDBRANCH   1  30
TORSDOF 7
ENDMDL
