MODEL 1
REMARK VINA RESULT: -6.046997489      0.000      0.000
REMARK  8 active torsions:
REMARK  status: ('A' for Active; 'I' for Inactive)
REMARK    1  A    between atoms: C2_2  and  C3_3 
REMARK    2  A    between atoms: C2_2  and  N1_10 
REMARK    3  A    between atoms: C3_3  and  O1_4 
REMARK    4  A    between atoms: C3_3  and  C4_6 
REMARK    5  A    between atoms: C9_14  and  C10_15 
REMARK       I    between atoms: C10_15  and  N2_17 
REMARK    6  A    between atoms: N2_17  and  C11_19 
REMARK    7  A    between atoms: C11_19  and  C12_20 
REMARK    8  A    between atoms: C12_20  and  O3_21 
ROOT
HETATM    1  N1  UNL     1      -1.377  10.957  22.649  1.00  0.00    -0.393 N 
HETATM    2  C6  UNL     1      -1.498   9.652  23.235  1.00  0.00     0.118 C 
HETATM    3  C7  UNL     1      -1.245   9.836  24.742  1.00  0.00     0.022 C 
HETATM    4  C8  UNL     1      -0.466  11.106  24.763  1.00  0.00     0.036 C 
HETATM    5  C9  UNL     1      -1.174  11.906  23.641  1.00  0.00     0.172 C 
ENDROOT
BRANCH   5   6
HETATM    6  C10 UNL     1      -2.393  12.437  24.338  1.00  0.00     0.241 C 
HETATM    7  O2  UNL     1      -2.450  12.243  25.539  1.00  0.00    -0.271 OA
HETATM    8  N2  UNL     1      -3.329  13.094  23.547  1.00  0.00    -0.345 N 
ATOM      9  H2  UNL     1      -3.053  13.124  22.565  1.00  0.00     0.163 HD
BRANCH   8  10
HETATM   10  C11 UNL     1      -4.574  13.730  23.776  1.00  0.00     0.091 A 
HETATM   11  C13 UNL     1      -5.052  14.769  22.782  1.00  0.00     0.012 A 
HETATM   12  C14 UNL     1      -6.531  14.767  22.373  1.00  0.00     0.020 C 
HETATM   13  C15 UNL     1      -4.142  15.328  21.728  1.00  0.00     0.020 C 
HETATM   14  C16 UNL     1      -4.864  15.083  24.238  1.00  0.00     0.113 A 
HETATM   15 BR1  UNL     1      -3.621  16.472  24.604  1.00  0.00    -0.069 Br
HETATM   16 BR2  UNL     1      -6.488  15.228  25.357  1.00  0.00    -0.069 Br
BRANCH  10  17
HETATM   17  C12 UNL     1      -5.754  12.712  24.003  1.00  0.00     0.198 C 
BRANCH  17  18
HETATM   18  O3  UNL     1      -5.381  11.704  24.845  1.00  0.00    -0.398 OA
ATOM     19  H3  UNL     1      -5.434  10.859  24.415  1.00  0.00     0.209 HD
ENDBRANCH  17  18
ENDBRANCH  10  17
ENDBRANCH   8  10
ENDBRANCH   5   6
BRANCH   1  20
HETATM   20  C2  UNL     1      -2.298  11.228  21.570  1.00  0.00     0.107 C 
HETATM   21  C1  UNL     1      -1.525  11.227  20.282  1.00  0.00     0.034 C 
BRANCH  20  22
HETATM   22  C3  UNL     1      -3.300  10.093  21.539  1.00  0.00     0.178 C 
BRANCH  22  23
HETATM   23  O1  UNL     1      -3.987  10.046  22.790  1.00  0.00    -0.390 OA
ATOM     24  H1  UNL     1      -4.596   9.316  22.781  1.00  0.00     0.210 HD
ENDBRANCH  22  23
BRANCH  22  25
HETATM   25  C4  UNL     1      -4.391  10.185  20.541  1.00  0.00     0.137 C 
HETATM   26  C5  UNL     1      -4.179   9.639  19.173  1.00  0.00     0.053 C 
HETATM   27 CL1  UNL     1      -5.779   9.223  21.205  1.00  0.00    -0.099 Cl
HETATM   28 CL2  UNL     1      -5.041  11.856  20.428  1.00  0.00    -0.099 Cl
ENDBRANCH  22  25
ENDBRANCH  20  22
ENDBRANCH   1  20
TORSDOF 8
ENDMDL
MODEL 2
REMARK VINA RESULT: -5.578039246      4.168      6.386
REMARK  8 active torsions:
REMARK  status: ('A' for Active; 'I' for Inactive)
REMARK    1  A    between atoms: C2_2  and  C3_3 
REMARK    2  A    between atoms: C2_2  and  N1_10 
REMARK    3  A    between atoms: C3_3  and  O1_4 
REMARK    4  A    between atoms: C3_3  and  C4_6 
REMARK    5  A    between atoms: C9_14  and  C10_15 
REMARK       I    between atoms: C10_15  and  N2_17 
REMARK    6  A    between atoms: N2_17  and  C11_19 
REMARK    7  A    between atoms: C11_19  and  C12_20 
REMARK    8  A    between atoms: C12_20  and  O3_21 
ROOT
HETATM    1  N1  UNL     1      -2.719  10.903  22.580  1.00  0.00    -0.393 N 
HETATM    2  C6  UNL     1      -1.841  11.791  21.871  1.00  0.00     0.118 C 
HETATM    3  C7  UNL     1      -1.648  11.173  20.474  1.00  0.00     0.022 C 
HETATM    4  C8  UNL     1      -1.977   9.743  20.731  1.00  0.00     0.036 C 
HETATM    5  C9  UNL     1      -3.143   9.883  21.741  1.00  0.00     0.172 C 
ENDROOT
BRANCH   5   6
HETATM    6  C10 UNL     1      -4.315  10.175  20.849  1.00  0.00     0.241 C 
HETATM    7  O2  UNL     1      -4.998  11.135  21.159  1.00  0.00    -0.271 OA
HETATM    8  N2  UNL     1      -4.500   9.325  19.764  1.00  0.00    -0.345 N 
ATOM      9  H2  UNL     1      -3.793   8.591  19.722  1.00  0.00     0.163 HD
BRANCH   8  10
HETATM   10  C11 UNL     1      -5.436   9.234  18.704  1.00  0.00     0.091 A 
HETATM   11  C13 UNL     1      -6.871   8.873  19.032  1.00  0.00     0.012 A 
HETATM   12  C14 UNL     1      -7.998   9.627  18.314  1.00  0.00     0.020 C 
HETATM   13  C15 UNL     1      -7.263   8.357  20.385  1.00  0.00     0.020 C 
HETATM   14  C16 UNL     1      -6.038   8.059  18.085  1.00  0.00     0.113 A 
HETATM   15 BR1  UNL     1      -5.806   6.241  18.584  1.00  0.00    -0.069 Br
HETATM   16 BR2  UNL     1      -6.400   8.255  16.150  1.00  0.00    -0.069 Br
BRANCH  10  17
HETATM   17  C12 UNL     1      -5.465  10.519  17.795  1.00  0.00     0.198 C 
BRANCH  17  18
HETATM   18  O3  UNL     1      -4.205  10.891  17.425  1.00  0.00    -0.398 OA
ATOM     19  H3  UNL     1      -4.213  11.357  16.597  1.00  0.00     0.209 HD
ENDBRANCH  17  18
ENDBRANCH  10  17
ENDBRANCH   8  10
ENDBRANCH   5   6
BRANCH   1  20
HETATM   20  C2  UNL     1      -3.664  11.554  23.457  1.00  0.00     0.107 C 
HETATM   21  C1  UNL     1      -3.385  11.108  24.864  1.00  0.00     0.034 C 
BRANCH  20  22
HETATM   22  C3  UNL     1      -3.414  13.045  23.360  1.00  0.00     0.178 C 
BRANCH  22  23
HETATM   23  O1  UNL     1      -3.719  13.482  22.035  1.00  0.00    -0.390 OA
ATOM     24  H1  UNL     1      -4.447  14.092  22.070  1.00  0.00     0.210 HD
ENDBRANCH  22  23
BRANCH  22  25
HETATM   25  C4  UNL     1      -4.241  13.924  24.219  1.00  0.00     0.137 C 
HETATM   26  C5  UNL     1      -3.748  14.295  25.574  1.00  0.00     0.053 C 
HETATM   27 CL1  UNL     1      -4.395  15.505  23.342  1.00  0.00    -0.099 Cl
HETATM   28 CL2  UNL     1      -5.932  13.330  24.335  1.00  0.00    -0.099 Cl
ENDBRANCH  22  25
ENDBRANCH  20  22
ENDBRANCH   1  20
TORSDOF 8
ENDMDL
MODEL 3
REMARK VINA RESULT: -5.472712849      2.408      3.461
REMARK  8 active torsions:
REMARK  status: ('A' for Active; 'I' for Inactive)
REMARK    1  A    between atoms: C2_2  and  C3_3 
REMARK    2  A    between atoms: C2_2  and  N1_10 
REMARK    3  A    between atoms: C3_3  and  O1_4 
REMARK    4  A    between atoms: C3_3  and  C4_6 
REMARK    5  A    between atoms: C9_14  and  C10_15 
REMARK       I    between atoms: C10_15  and  N2_17 
REMARK    6  A    between atoms: N2_17  and  C11_19 
REMARK    7  A    between atoms: C11_19  and  C12_20 
REMARK    8  A    between atoms: C12_20  and  O3_21 
ROOT
HETATM    1  N1  UNL     1      -3.779  10.625  20.689  1.00  0.00    -0.393 N 
HETATM    2  C6  UNL     1      -3.690   9.983  21.970  1.00  0.00     0.118 C 
HETATM    3  C7  UNL     1      -2.994  10.991  22.903  1.00  0.00     0.022 C 
HETATM    4  C8  UNL     1      -2.271  11.854  21.927  1.00  0.00     0.036 C 
HETATM    5  C9  UNL     1      -3.303  11.925  20.774  1.00  0.00     0.172 C 
ENDROOT
BRANCH   5   6
HETATM    6  C10 UNL     1      -4.263  12.974  21.258  1.00  0.00     0.241 C 
HETATM    7  O2  UNL     1      -5.402  12.893  20.835  1.00  0.00    -0.271 OA
HETATM    8  N2  UNL     1      -3.757  13.924  22.137  1.00  0.00    -0.345 N 
ATOM      9  H2  UNL     1      -2.767  13.779  22.338  1.00  0.00     0.163 HD
BRANCH   8  10
HETATM   10  C11 UNL     1      -4.285  15.048  22.819  1.00  0.00     0.091 A 
HETATM   11  C13 UNL     1      -4.163  15.103  24.330  1.00  0.00     0.012 A 
HETATM   12  C14 UNL     1      -3.783  16.437  24.986  1.00  0.00     0.020 C 
HETATM   13  C15 UNL     1      -3.750  13.904  25.130  1.00  0.00     0.020 C 
HETATM   14  C16 UNL     1      -5.491  15.170  23.631  1.00  0.00     0.113 A 
HETATM   15 BR1  UNL     1      -6.713  13.794  24.102  1.00  0.00    -0.069 Br
HETATM   16 BR2  UNL     1      -6.373  16.936  23.515  1.00  0.00    -0.069 Br
BRANCH  10  17
HETATM   17  C12 UNL     1      -3.758  16.419  22.251  1.00  0.00     0.198 C 
BRANCH  17  18
HETATM   18  O3  UNL     1      -2.915  16.223  21.194  1.00  0.00    -0.398 OA
ATOM     19  H3  UNL     1      -2.476  15.383  21.256  1.00  0.00     0.209 HD
ENDBRANCH  17  18
ENDBRANCH  10  17
ENDBRANCH   8  10
ENDBRANCH   5   6
BRANCH   1  20
HETATM   20  C2  UNL     1      -4.990  10.347  19.952  1.00  0.00     0.107 C 
HETATM   21  C1  UNL     1      -4.631   9.518  18.753  1.00  0.00     0.034 C 
BRANCH  20  22
HETATM   22  C3  UNL     1      -5.890   9.532  20.858  1.00  0.00     0.178 C 
BRANCH  22  23
HETATM   23  O1  UNL     1      -6.418  10.383  21.876  1.00  0.00    -0.390 OA
ATOM     24  H1  UNL     1      -6.223  10.006  22.726  1.00  0.00     0.210 HD
ENDBRANCH  22  23
BRANCH  22  25
HETATM   25  C4  UNL     1      -7.095   8.928  20.243  1.00  0.00     0.137 C 
HETATM   26  C5  UNL     1      -7.028   7.539  19.715  1.00  0.00     0.053 C 
HETATM   27 CL1  UNL     1      -8.358   8.860  21.544  1.00  0.00    -0.099 Cl
HETATM   28 CL2  UNL     1      -7.813  10.010  19.002  1.00  0.00    -0.099 Cl
ENDBRANCH  22  25
ENDBRANCH  20  22
ENDBRANCH   1  20
TORSDOF 8
ENDMDL
MODEL 4
REMARK VINA RESULT: -5.455774352      1.959      2.742
REMARK  8 active torsions:
REMARK  status: ('A' for Active; 'I' for Inactive)
REMARK    1  A    between atoms: C2_2  and  C3_3 
REMARK    2  A    between atoms: C2_2  and  N1_10 
REMARK    3  A    between atoms: C3_3  and  O1_4 
REMARK    4  A    between atoms: C3_3  and  C4_6 
REMARK    5  A    between atoms: C9_14  and  C10_15 
REMARK       I    between atoms: C10_15  and  N2_17 
REMARK    6  A    between atoms: N2_17  and  C11_19 
REMARK    7  A    between atoms: C11_19  and  C12_20 
REMARK    8  A    between atoms: C12_20  and  O3_21 
ROOT
HETATM    1  N1  UNL     1      -3.646  10.711  20.249  1.00  0.00    -0.393 N 
HETATM    2  C6  UNL     1      -2.977   9.692  21.007  1.00  0.00     0.118 C 
HETATM    3  C7  UNL     1      -2.199  10.426  22.114  1.00  0.00     0.022 C 
HETATM    4  C8  UNL     1      -2.060  11.789  21.530  1.00  0.00     0.036 C 
HETATM    5  C9  UNL     1      -3.432  11.953  20.830  1.00  0.00     0.172 C 
ENDROOT
BRANCH   5   6
HETATM    6  C10 UNL     1      -4.334  12.340  21.966  1.00  0.00     0.241 C 
HETATM    7  O2  UNL     1      -5.422  11.792  21.998  1.00  0.00    -0.271 OA
HETATM    8  N2  UNL     1      -3.840  13.280  22.863  1.00  0.00    -0.345 N 
ATOM      9  H2  UNL     1      -2.900  13.593  22.618  1.00  0.00     0.163 HD
BRANCH   8  10
HETATM   10  C11 UNL     1      -4.327  13.909  24.036  1.00  0.00     0.091 A 
HETATM   11  C13 UNL     1      -5.589  14.744  23.940  1.00  0.00     0.012 A 
HETATM   12  C14 UNL     1      -6.632  14.625  25.059  1.00  0.00     0.020 C 
HETATM   13  C15 UNL     1      -6.174  15.137  22.617  1.00  0.00     0.020 C 
HETATM   14  C16 UNL     1      -4.289  15.312  24.432  1.00  0.00     0.113 A 
HETATM   15 BR1  UNL     1      -3.626  16.780  23.426  1.00  0.00    -0.069 Br
HETATM   16 BR2  UNL     1      -4.098  15.601  26.379  1.00  0.00    -0.069 Br
BRANCH  10  17
HETATM   17  C12 UNL     1      -4.509  12.910  25.240  1.00  0.00     0.198 C 
BRANCH  17  18
HETATM   18  O3  UNL     1      -4.591  11.620  24.803  1.00  0.00    -0.398 OA
ATOM     19  H3  UNL     1      -4.826  11.032  25.510  1.00  0.00     0.209 HD
ENDBRANCH  17  18
ENDBRANCH  10  17
ENDBRANCH   8  10
ENDBRANCH   5   6
BRANCH   1  20
HETATM   20  C2  UNL     1      -4.963  10.354  19.778  1.00  0.00     0.107 C 
HETATM   21  C1  UNL     1      -4.925  10.290  18.278  1.00  0.00     0.034 C 
BRANCH  20  22
HETATM   22  C3  UNL     1      -5.275   8.973  20.317  1.00  0.00     0.178 C 
BRANCH  22  23
HETATM   23  O1  UNL     1      -5.353   9.037  21.742  1.00  0.00    -0.390 OA
ATOM     24  H1  UNL     1      -4.899   8.289  22.111  1.00  0.00     0.210 HD
ENDBRANCH  22  23
BRANCH  22  25
HETATM   25  C4  UNL     1      -6.568   8.370  19.920  1.00  0.00     0.137 C 
HETATM   26  C5  UNL     1      -6.575   7.098  19.148  1.00  0.00     0.053 C 
HETATM   27 CL1  UNL     1      -7.447   7.975  21.457  1.00  0.00    -0.099 Cl
HETATM   28 CL2  UNL     1      -7.633   9.570  19.112  1.00  0.00    -0.099 Cl
ENDBRANCH  22  25
ENDBRANCH  20  22
ENDBRANCH   1  20
TORSDOF 8
ENDMDL
MODEL 5
REMARK VINA RESULT: -5.435908898      3.616      5.850
REMARK  8 active torsions:
REMARK  status: ('A' for Active; 'I' for Inactive)
REMARK    1  A    between atoms: C2_2  and  C3_3 
REMARK    2  A    between atoms: C2_2  and  N1_10 
REMARK    3  A    between atoms: C3_3  and  O1_4 
REMARK    4  A    between atoms: C3_3  and  C4_6 
REMARK    5  A    between atoms: C9_14  and  C10_15 
REMARK       I    between atoms: C10_15  and  N2_17 
REMARK    6  A    between atoms: N2_17  and  C11_19 
REMARK    7  A    between atoms: C11_19  and  C12_20 
REMARK    8  A    between atoms: C12_20  and  O3_21 
ROOT
HETATM    1  N1  UNL     1      -2.629  11.215  23.268  1.00  0.00    -0.393 N 
HETATM    2  C6  UNL     1      -1.702  12.058  22.566  1.00  0.00     0.118 C 
HETATM    3  C7  UNL     1      -1.407  11.348  21.233  1.00  0.00     0.022 C 
HETATM    4  C8  UNL     1      -1.753   9.936  21.561  1.00  0.00     0.036 C 
HETATM    5  C9  UNL     1      -2.990  10.138  22.472  1.00  0.00     0.172 C 
ENDROOT
BRANCH   5   6
HETATM    6  C10 UNL     1      -4.093  10.362  21.479  1.00  0.00     0.241 C 
HETATM    7  O2  UNL     1      -4.122  11.459  20.948  1.00  0.00    -0.271 OA
HETATM    8  N2  UNL     1      -4.966   9.302  21.266  1.00  0.00    -0.345 N 
ATOM      9  H2  UNL     1      -4.733   8.488  21.835  1.00  0.00     0.163 HD
BRANCH   8  10
HETATM   10  C11 UNL     1      -6.102   9.080  20.448  1.00  0.00     0.091 A 
HETATM   11  C13 UNL     1      -6.046   7.974  19.412  1.00  0.00     0.012 A 
HETATM   12  C14 UNL     1      -7.277   7.077  19.231  1.00  0.00     0.020 C 
HETATM   13  C15 UNL     1      -4.756   7.300  19.050  1.00  0.00     0.020 C 
HETATM   14  C16 UNL     1      -6.323   9.403  19.043  1.00  0.00     0.113 A 
HETATM   15 BR1  UNL     1      -5.085  10.169  17.824  1.00  0.00    -0.069 Br
HETATM   16 BR2  UNL     1      -8.190   9.886  18.605  1.00  0.00    -0.069 Br
BRANCH  10  17
HETATM   17  C12 UNL     1      -7.428   8.888  21.275  1.00  0.00     0.198 C 
BRANCH  17  18
HETATM   18  O3  UNL     1      -7.615   9.916  22.154  1.00  0.00    -0.398 OA
ATOM     19  H3  UNL     1      -7.593   9.609  23.052  1.00  0.00     0.209 HD
ENDBRANCH  17  18
ENDBRANCH  10  17
ENDBRANCH   8  10
ENDBRANCH   5   6
BRANCH   1  20
HETATM   20  C2  UNL     1      -3.636  11.919  24.028  1.00  0.00     0.107 C 
HETATM   21  C1  UNL     1      -3.419  11.623  25.484  1.00  0.00     0.034 C 
BRANCH  20  22
HETATM   22  C3  UNL     1      -3.422  13.400  23.794  1.00  0.00     0.178 C 
BRANCH  22  23
HETATM   23  O1  UNL     1      -3.720  13.703  22.431  1.00  0.00    -0.390 OA
ATOM     24  H1  UNL     1      -3.704  14.646  22.313  1.00  0.00     0.210 HD
ENDBRANCH  22  23
BRANCH  22  25
HETATM   25  C4  UNL     1      -4.282  14.334  24.559  1.00  0.00     0.137 C 
HETATM   26  C5  UNL     1      -3.846  14.793  25.905  1.00  0.00     0.053 C 
HETATM   27 CL1  UNL     1      -4.395  15.854  23.574  1.00  0.00    -0.099 Cl
HETATM   28 CL2  UNL     1      -5.978  13.748  24.642  1.00  0.00    -0.099 Cl
ENDBRANCH  22  25
ENDBRANCH  20  22
ENDBRANCH   1  20
TORSDOF 8
ENDMDL
