MODEL 1
REMARK VINA RESULT: -8.198033192      0.000      0.000
REMARK  9 active torsions:
REMARK  status: ('A' for Active; 'I' for Inactive)
REMARK    1  A    between atoms: C5_5  and  C6_6 
REMARK    2  A    between atoms: C6_6  and  O1_7 
REMARK    3  A    between atoms: C6_6  and  N1_9 
REMARK    4  A    between atoms: N1_9  and  C7_11 
REMARK    5  A    between atoms: C7_11  and  C8_12 
REMARK    6  A    between atoms: C7_11  and  C15_21 
REMARK    7  A    between atoms: C8_12  and  C9_13 
REMARK    8  A    between atoms: C15_21  and  O2_22 
REMARK    9  A    between atoms: C15_21  and  C16_24 
ROOT
HETATM    1  C7  UNL     1      -5.281   9.631  18.410  1.00  0.00     0.114 C 
ENDROOT
BRANCH   1   2
HETATM    2  N1  UNL     1      -6.492  10.258  18.204  1.00  0.00    -0.389 N 
ATOM      3  H1  UNL     1      -6.768  10.367  17.228  1.00  0.00     0.156 HD
BRANCH   2   4
HETATM    4  C6  UNL     1      -7.376  10.754  19.123  1.00  0.00     0.218 C 
BRANCH   4   5
HETATM    5  C5  UNL     1      -8.372   9.873  19.791  1.00  0.00     0.037 C 
HETATM    6  C2  UNL     1      -7.992   9.553  21.255  1.00  0.00    -0.010 C 
HETATM    7  C1  UNL     1      -7.562   8.115  21.472  1.00  0.00     0.010 C 
HETATM    8  C3  UNL     1      -9.418   9.839  21.621  1.00  0.00     0.005 C 
HETATM    9  C4  UNL     1      -9.531  10.674  20.374  1.00  0.00     0.010 C 
ENDBRANCH   4   5
BRANCH   4  10
HETATM   10  O1  UNL     1      -8.167  11.808  18.551  1.00  0.00    -0.377 OA
ATOM     11  H1  UNL     1      -7.608  12.574  18.606  1.00  0.00     0.212 HD
ENDBRANCH   4  10
ENDBRANCH   2   4
ENDBRANCH   1   2
BRANCH   1  12
HETATM   12  C8  UNL     1      -5.109   8.257  18.909  1.00  0.00     0.066 C 
BRANCH  12  13
HETATM   13  C9  UNL     1      -5.750   7.180  18.103  1.00  0.00    -0.050 A 
HETATM   14  C10 UNL     1      -6.328   7.436  16.902  1.00  0.00     0.049 A 
HETATM   15  C11 UNL     1      -6.921   6.416  16.146  1.00  0.00     0.119 A 
HETATM   16  F1  UNL     1      -7.497   6.679  14.946  1.00  0.00    -0.206 F 
HETATM   17  C12 UNL     1      -6.912   5.136  16.641  1.00  0.00     0.084 A 
HETATM   18  C13 UNL     1      -6.317   4.867  17.880  1.00  0.00     0.119 A 
HETATM   19  F2  UNL     1      -6.347   3.571  18.308  1.00  0.00    -0.206 F 
HETATM   20  C14 UNL     1      -5.745   5.867  18.602  1.00  0.00     0.049 A 
ENDBRANCH  12  13
ENDBRANCH   1  12
BRANCH   1  21
HETATM   21  C15 UNL     1      -4.324  10.532  19.225  1.00  0.00     0.170 C 
BRANCH  21  22
HETATM   22  O2  UNL     1      -3.501  11.241  18.310  1.00  0.00    -0.391 OA
ATOM     23  H2  UNL     1      -3.277  10.652  17.598  1.00  0.00     0.210 HD
ENDBRANCH  21  22
BRANCH  21  24
HETATM   24  C16 UNL     1      -3.423   9.788  20.124  1.00  0.00     0.165 C 
HETATM   25  C17 UNL     1      -3.801  10.046  21.594  1.00  0.00     0.079 C 
HETATM   26  C18 UNL     1      -2.835  11.093  22.066  1.00  0.00     0.165 C 
HETATM   27 BR1  UNL     1      -1.447  10.310  23.201  1.00  0.00    -0.062 Br
HETATM   28 BR2  UNL     1      -3.704  12.567  22.943  1.00  0.00    -0.062 Br
HETATM   29  C19 UNL     1      -2.121  11.518  20.816  1.00  0.00     0.290 C 
HETATM   30  O3  UNL     1      -1.649  12.673  20.549  1.00  0.00    -0.262 OA
HETATM   31  O4  UNL     1      -2.109  10.363  20.049  1.00  0.00    -0.311 OA
ENDBRANCH  21  24
ENDBRANCH   1  21
TORSDOF 9
ENDMDL
MODEL 2
REMARK VINA RESULT: -8.164369039      0.049      1.553
REMARK  9 active torsions:
REMARK  status: ('A' for Active; 'I' for Inactive)
REMARK    1  A    between atoms: C5_5  and  C6_6 
REMARK    2  A    between atoms: C6_6  and  O1_7 
REMARK    3  A    between atoms: C6_6  and  N1_9 
REMARK    4  A    between atoms: N1_9  and  C7_11 
REMARK    5  A    between atoms: C7_11  and  C8_12 
REMARK    6  A    between atoms: C7_11  and  C15_21 
REMARK    7  A    between atoms: C8_12  and  C9_13 
REMARK    8  A    between atoms: C15_21  and  O2_22 
REMARK    9  A    between atoms: C15_21  and  C16_24 
ROOT
HETATM    1  C7  UNL     1      -5.291   9.570  18.419  1.00  0.00     0.114 C 
ENDROOT
BRANCH   1   2
HETATM    2  N1  UNL     1      -6.501  10.190  18.186  1.00  0.00    -0.389 N 
ATOM      3  H1  UNL     1      -6.772  10.267  17.205  1.00  0.00     0.156 HD
BRANCH   2   4
HETATM    4  C6  UNL     1      -7.389  10.717  19.083  1.00  0.00     0.218 C 
BRANCH   4   5
HETATM    5  C5  UNL     1      -8.389   9.859  19.775  1.00  0.00     0.037 C 
HETATM    6  C2  UNL     1      -7.996   9.556  21.239  1.00  0.00    -0.010 C 
HETATM    7  C1  UNL     1      -7.581   8.116  21.473  1.00  0.00     0.010 C 
HETATM    8  C3  UNL     1      -9.414   9.865  21.617  1.00  0.00     0.005 C 
HETATM    9  C4  UNL     1      -9.531  10.683  20.360  1.00  0.00     0.010 C 
ENDBRANCH   4   5
BRANCH   4  10
HETATM   10  O1  UNL     1      -8.178  11.751  18.471  1.00  0.00    -0.377 OA
ATOM     11  H1  UNL     1      -7.923  11.727  17.557  1.00  0.00     0.212 HD
ENDBRANCH   4  10
ENDBRANCH   2   4
ENDBRANCH   1   2
BRANCH   1  12
HETATM   12  C8  UNL     1      -5.123   8.207  18.947  1.00  0.00     0.066 C 
BRANCH  12  13
HETATM   13  C9  UNL     1      -5.736   7.111  18.145  1.00  0.00    -0.050 A 
HETATM   14  C10 UNL     1      -5.762   5.830  18.590  1.00  0.00     0.049 A 
HETATM   15  C11 UNL     1      -6.347   4.805  17.834  1.00  0.00     0.119 A 
HETATM   16  F1  UNL     1      -6.369   3.527  18.286  1.00  0.00    -0.206 F 
HETATM   17  C12 UNL     1      -6.903   5.117  16.618  1.00  0.00     0.084 A 
HETATM   18  C13 UNL     1      -6.878   6.439  16.154  1.00  0.00     0.119 A 
HETATM   19  F2  UNL     1      -7.450   6.672  14.936  1.00  0.00    -0.206 F 
HETATM   20  C14 UNL     1      -6.307   7.422  16.899  1.00  0.00     0.049 A 
ENDBRANCH  12  13
ENDBRANCH   1  12
BRANCH   1  21
HETATM   21  C15 UNL     1      -4.346  10.490  19.227  1.00  0.00     0.170 C 
BRANCH  21  22
HETATM   22  O2  UNL     1      -3.537  11.207  18.307  1.00  0.00    -0.391 OA
ATOM     23  H2  UNL     1      -3.138  10.581  17.714  1.00  0.00     0.210 HD
ENDBRANCH  21  22
BRANCH  21  24
HETATM   24  C16 UNL     1      -3.431   9.763  20.126  1.00  0.00     0.165 C 
HETATM   25  C17 UNL     1      -3.810  10.019  21.596  1.00  0.00     0.079 C 
HETATM   26  C18 UNL     1      -2.860  11.083  22.064  1.00  0.00     0.165 C 
HETATM   27 BR1  UNL     1      -1.457  10.327  23.197  1.00  0.00    -0.062 Br
HETATM   28 BR2  UNL     1      -3.752  12.545  22.938  1.00  0.00    -0.062 Br
HETATM   29  C19 UNL     1      -2.157  11.516  20.810  1.00  0.00     0.290 C 
HETATM   30  O3  UNL     1      -1.705  12.679  20.539  1.00  0.00    -0.262 OA
HETATM   31  O4  UNL     1      -2.127  10.360  20.047  1.00  0.00    -0.311 OA
ENDBRANCH  21  24
ENDBRANCH   1  21
TORSDOF 9
ENDMDL
MODEL 3
REMARK VINA RESULT: -8.084207646      5.457      7.973
REMARK  9 active torsions:
REMARK  status: ('A' for Active; 'I' for Inactive)
REMARK    1  A    between atoms: C5_5  and  C6_6 
REMARK    2  A    between atoms: C6_6  and  O1_7 
REMARK    3  A    between atoms: C6_6  and  N1_9 
REMARK    4  A    between atoms: N1_9  and  C7_11 
REMARK    5  A    between atoms: C7_11  and  C8_12 
REMARK    6  A    between atoms: C7_11  and  C15_21 
REMARK    7  A    between atoms: C8_12  and  C9_13 
REMARK    8  A    between atoms: C15_21  and  O2_22 
REMARK    9  A    between atoms: C15_21  and  C16_24 
ROOT
HETATM    1  C7  UNL     1      -1.795  11.406  24.182  1.00  0.00     0.114 C 
ENDROOT
BRANCH   1   2
HETATM    2  N1  UNL     1      -2.320  12.648  24.473  1.00  0.00    -0.389 N 
ATOM      3  H1  UNL     1      -1.635  13.393  24.603  1.00  0.00     0.156 HD
BRANCH   2   4
HETATM    4  C6  UNL     1      -3.629  13.022  24.612  1.00  0.00     0.218 C 
BRANCH   4   5
HETATM    5  C5  UNL     1      -4.012  14.196  25.441  1.00  0.00     0.037 C 
HETATM    6  C2  UNL     1      -4.503  15.388  24.588  1.00  0.00    -0.010 C 
HETATM    7  C1  UNL     1      -3.538  16.558  24.564  1.00  0.00     0.010 C 
HETATM    8  C3  UNL     1      -5.636  15.536  25.560  1.00  0.00     0.005 C 
HETATM    9  C4  UNL     1      -5.451  14.090  25.937  1.00  0.00     0.010 C 
ENDBRANCH   4   5
BRANCH   4  10
HETATM   10  O1  UNL     1      -4.412  11.943  25.147  1.00  0.00    -0.377 OA
ATOM     11  H1  UNL     1      -4.125  11.182  24.657  1.00  0.00     0.212 HD
ENDBRANCH   4  10
ENDBRANCH   2   4
ENDBRANCH   1   2
BRANCH   1  12
HETATM   12  C8  UNL     1      -0.688  10.761  24.904  1.00  0.00     0.066 C 
BRANCH  12  13
HETATM   13  C9  UNL     1      -1.061   9.654  25.829  1.00  0.00    -0.050 A 
HETATM   14  C10 UNL     1      -2.090   9.774  26.706  1.00  0.00     0.049 A 
HETATM   15  C11 UNL     1      -2.441   8.726  27.567  1.00  0.00     0.119 A 
HETATM   16  F1  UNL     1      -3.470   8.853  28.441  1.00  0.00    -0.206 F 
HETATM   17  C12 UNL     1      -1.721   7.559  27.514  1.00  0.00     0.084 A 
HETATM   18  C13 UNL     1      -0.658   7.430  26.610  1.00  0.00     0.119 A 
HETATM   19  F2  UNL     1       0.011   6.240  26.615  1.00  0.00    -0.206 F 
HETATM   20  C14 UNL     1      -0.330   8.455  25.780  1.00  0.00     0.049 A 
ENDBRANCH  12  13
ENDBRANCH   1  12
BRANCH   1  21
HETATM   21  C15 UNL     1      -1.490  11.275  22.671  1.00  0.00     0.170 C 
BRANCH  21  22
HETATM   22  O2  UNL     1      -2.130  12.348  21.998  1.00  0.00    -0.391 OA
ATOM     23  H2  UNL     1      -1.797  12.379  21.108  1.00  0.00     0.210 HD
ENDBRANCH  21  22
BRANCH  21  24
HETATM   24  C16 UNL     1      -1.993  10.028  22.066  1.00  0.00     0.165 C 
HETATM   25  C17 UNL     1      -2.146  10.196  20.543  1.00  0.00     0.079 C 
HETATM   26  C18 UNL     1      -3.604  10.476  20.327  1.00  0.00     0.165 C 
HETATM   27 BR1  UNL     1      -4.528   8.900  19.628  1.00  0.00    -0.062 Br
HETATM   28 BR2  UNL     1      -3.911  12.015  19.215  1.00  0.00    -0.062 Br
HETATM   29  C19 UNL     1      -4.147  10.662  21.714  1.00  0.00     0.290 C 
HETATM   30  O3  UNL     1      -5.111  11.418  22.073  1.00  0.00    -0.262 OA
HETATM   31  O4  UNL     1      -3.353   9.824  22.481  1.00  0.00    -0.311 OA
ENDBRANCH  21  24
ENDBRANCH   1  21
TORSDOF 9
ENDMDL
MODEL 4
REMARK VINA RESULT: -8.001440803      3.808      5.761
REMARK  9 active torsions:
REMARK  status: ('A' for Active; 'I' for Inactive)
REMARK    1  A    between atoms: C5_5  and  C6_6 
REMARK    2  A    between atoms: C6_6  and  O1_7 
REMARK    3  A    between atoms: C6_6  and  N1_9 
REMARK    4  A    between atoms: N1_9  and  C7_11 
REMARK    5  A    between atoms: C7_11  and  C8_12 
REMARK    6  A    between atoms: C7_11  and  C15_21 
REMARK    7  A    between atoms: C8_12  and  C9_13 
REMARK    8  A    between atoms: C15_21  and  O2_22 
REMARK    9  A    between atoms: C15_21  and  C16_24 
ROOT
HETATM    1  C7  UNL     1      -3.466  11.163  20.415  1.00  0.00     0.114 C 
ENDROOT
BRANCH   1   2
HETATM    2  N1  UNL     1      -3.774  10.386  19.318  1.00  0.00    -0.389 N 
ATOM      3  H1  UNL     1      -3.017  10.256  18.647  1.00  0.00     0.156 HD
BRANCH   2   4
HETATM    4  C6  UNL     1      -4.952   9.765  19.002  1.00  0.00     0.218 C 
BRANCH   4   5
HETATM    5  C5  UNL     1      -5.331   8.466  19.621  1.00  0.00     0.037 C 
HETATM    6  C2  UNL     1      -6.862   8.290  19.736  1.00  0.00    -0.010 C 
HETATM    7  C1  UNL     1      -7.378   8.362  21.161  1.00  0.00     0.010 C 
HETATM    8  C3  UNL     1      -6.678   6.897  19.211  1.00  0.00     0.005 C 
HETATM    9  C4  UNL     1      -5.382   7.344  18.590  1.00  0.00     0.010 C 
ENDBRANCH   4   5
BRANCH   4  10
HETATM   10  O1  UNL     1      -5.033   9.517  17.588  1.00  0.00    -0.377 OA
ATOM     11  H1  UNL     1      -4.863  10.364  17.194  1.00  0.00     0.212 HD
ENDBRANCH   4  10
ENDBRANCH   2   4
ENDBRANCH   1   2
BRANCH   1  12
HETATM   12  C8  UNL     1      -3.863  12.568  20.599  1.00  0.00     0.066 C 
BRANCH  12  13
HETATM   13  C9  UNL     1      -4.866  12.833  21.669  1.00  0.00    -0.050 A 
HETATM   14  C10 UNL     1      -4.775  13.918  22.478  1.00  0.00     0.049 A 
HETATM   15  C11 UNL     1      -5.727  14.166  23.477  1.00  0.00     0.119 A 
HETATM   16  F1  UNL     1      -5.629  15.253  24.282  1.00  0.00    -0.206 F 
HETATM   17  C12 UNL     1      -6.768  13.285  23.630  1.00  0.00     0.084 A 
HETATM   18  C13 UNL     1      -6.865  12.162  22.797  1.00  0.00     0.119 A 
HETATM   19  F2  UNL     1      -7.927  11.331  23.009  1.00  0.00    -0.206 F 
HETATM   20  C14 UNL     1      -5.935  11.936  21.832  1.00  0.00     0.049 A 
ENDBRANCH  12  13
ENDBRANCH   1  12
BRANCH   1  21
HETATM   21  C15 UNL     1      -1.960  11.069  20.754  1.00  0.00     0.170 C 
BRANCH  21  22
HETATM   22  O2  UNL     1      -1.249  10.851  19.545  1.00  0.00    -0.391 OA
ATOM     23  H2  UNL     1      -0.363  11.175  19.661  1.00  0.00     0.210 HD
ENDBRANCH  21  22
BRANCH  21  24
HETATM   24  C16 UNL     1      -1.621   9.954  21.657  1.00  0.00     0.165 C 
HETATM   25  C17 UNL     1      -2.465  10.030  22.943  1.00  0.00     0.079 C 
HETATM   26  C18 UNL     1      -1.566  10.667  23.961  1.00  0.00     0.165 C 
HETATM   27 BR1  UNL     1      -0.879   9.340  25.224  1.00  0.00    -0.062 Br
HETATM   28 BR2  UNL     1      -2.402  12.135  24.879  1.00  0.00    -0.062 Br
HETATM   29  C19 UNL     1      -0.369  11.104  23.166  1.00  0.00     0.290 C 
HETATM   30  O3  UNL     1       0.379  12.114  23.385  1.00  0.00    -0.262 OA
HETATM   31  O4  UNL     1      -0.290  10.152  22.162  1.00  0.00    -0.311 OA
ENDBRANCH  21  24
ENDBRANCH   1  21
TORSDOF 9
ENDMDL
MODEL 5
REMARK VINA RESULT: -7.914123540      2.134      3.201
REMARK  9 active torsions:
REMARK  status: ('A' for Active; 'I' for Inactive)
REMARK    1  A    between atoms: C5_5  and  C6_6 
REMARK    2  A    between atoms: C6_6  and  O1_7 
REMARK    3  A    between atoms: C6_6  and  N1_9 
REMARK    4  A    between atoms: N1_9  and  C7_11 
REMARK    5  A    between atoms: C7_11  and  C8_12 
REMARK    6  A    between atoms: C7_11  and  C15_21 
REMARK    7  A    between atoms: C8_12  and  C9_13 
REMARK    8  A    between atoms: C15_21  and  O2_22 
REMARK    9  A    between atoms: C15_21  and  C16_24 
ROOT
HETATM    1  C7  UNL     1      -4.942   9.583  20.520  1.00  0.00     0.114 C 
ENDROOT
BRANCH   1   2
HETATM    2  N1  UNL     1      -5.952   9.101  21.327  1.00  0.00    -0.389 N 
ATOM      3  H1  UNL     1      -5.659   8.772  22.247  1.00  0.00     0.156 HD
BRANCH   2   4
HETATM    4  C6  UNL     1      -7.292   9.000  21.067  1.00  0.00     0.218 C 
BRANCH   4   5
HETATM    5  C5  UNL     1      -8.127  10.210  20.840  1.00  0.00     0.037 C 
HETATM    6  C2  UNL     1      -8.652  10.303  19.389  1.00  0.00    -0.010 C 
HETATM    7  C1  UNL     1      -8.006  11.409  18.577  1.00  0.00     0.010 C 
HETATM    8  C3  UNL     1      -9.993  10.653  19.964  1.00  0.00     0.005 C 
HETATM    9  C4  UNL     1      -9.580   9.975  21.242  1.00  0.00     0.010 C 
ENDBRANCH   4   5
BRANCH   4  10
HETATM   10  O1  UNL     1      -7.965   8.302  22.129  1.00  0.00    -0.377 OA
ATOM     11  H1  UNL     1      -7.900   8.891  22.871  1.00  0.00     0.212 HD
ENDBRANCH   4  10
ENDBRANCH   2   4
ENDBRANCH   1   2
BRANCH   1  12
HETATM   12  C8  UNL     1      -4.306   8.841  19.421  1.00  0.00     0.066 C 
BRANCH  12  13
HETATM   13  C9  UNL     1      -5.195   7.942  18.633  1.00  0.00    -0.050 A 
HETATM   14  C10 UNL     1      -5.332   6.628  18.939  1.00  0.00     0.049 A 
HETATM   15  C11 UNL     1      -6.177   5.789  18.199  1.00  0.00     0.119 A 
HETATM   16  F1  UNL     1      -6.309   4.476  18.511  1.00  0.00    -0.206 F 
HETATM   17  C12 UNL     1      -6.875   6.321  17.143  1.00  0.00     0.084 A 
HETATM   18  C13 UNL     1      -6.736   7.678  16.823  1.00  0.00     0.119 A 
HETATM   19  F2  UNL     1      -7.461   8.135  15.760  1.00  0.00    -0.206 F 
HETATM   20  C14 UNL     1      -5.913   8.479  17.551  1.00  0.00     0.049 A 
ENDBRANCH  12  13
ENDBRANCH   1  12
BRANCH   1  21
HETATM   21  C15 UNL     1      -3.806  10.202  21.368  1.00  0.00     0.170 C 
BRANCH  21  22
HETATM   22  O2  UNL     1      -3.923   9.704  22.692  1.00  0.00    -0.391 OA
ATOM     23  H2  UNL     1      -3.268   9.025  22.811  1.00  0.00     0.210 HD
ENDBRANCH  21  22
BRANCH  21  24
HETATM   24  C16 UNL     1      -3.861  11.673  21.457  1.00  0.00     0.165 C 
HETATM   25  C17 UNL     1      -4.740  12.245  20.329  1.00  0.00     0.079 C 
HETATM   26  C18 UNL     1      -3.774  12.695  19.273  1.00  0.00     0.165 C 
HETATM   27 BR1  UNL     1      -3.583  14.642  19.276  1.00  0.00    -0.062 Br
HETATM   28 BR2  UNL     1      -4.227  12.042  17.522  1.00  0.00    -0.062 Br
HETATM   29  C19 UNL     1      -2.449  12.173  19.747  1.00  0.00     0.290 C 
HETATM   30  O3  UNL     1      -1.464  11.794  19.029  1.00  0.00    -0.262 OA
HETATM   31  O4  UNL     1      -2.569  12.208  21.128  1.00  0.00    -0.311 OA
ENDBRANCH  21  24
ENDBRANCH   1  21
TORSDOF 9
ENDMDL
