MODEL 1
REMARK VINA RESULT: -3.895758909      0.000      0.000
REMARK  2 active torsions:
REMARK  status: ('A' for Active; 'I' for Inactive)
REMARK    1  A    between atoms: C5_5  and  C6_6 
REMARK    2  A    between atoms: C6_6  and  N1_7 
ROOT
HETATM    1  C1  UNL     1      47.499 159.220  28.390  1.00  0.00     0.021 C 
HETATM    2  C2  UNL     1      48.003 160.618  28.658  1.00  0.00     0.043 C 
HETATM    3  C3  UNL     1      46.969 161.471  29.356  1.00  0.00     0.015 C 
HETATM    4  C4  UNL     1      46.563 160.916  30.681  1.00  0.00     0.013 C 
HETATM    5  C5  UNL     1      47.594 160.943  31.739  1.00  0.00    -0.004 C 
HETATM    6  C7  UNL     1      47.880 162.349  32.241  1.00  0.00     0.012 C 
HETATM    7  C8  UNL     1      49.120 162.175  33.084  1.00  0.00     0.002 C 
HETATM    8  C9  UNL     1      49.914 161.166  32.307  1.00  0.00     0.016 C 
HETATM    9  C10 UNL     1      48.924 160.416  31.423  1.00  0.00     0.058 C 
HETATM   10  S1  UNL     1      49.455 160.622  29.717  1.00  0.00    -0.159 SA
ENDROOT
BRANCH   5  11
HETATM   11  C6  UNL     1      47.032 160.176  32.940  1.00  0.00     0.240 C 
BRANCH  11  12
HETATM   12  N1  UNL     1      45.724 159.636  32.650  1.00  0.00    -0.079 N 
ATOM     13  H13 UNL     1      45.031 160.375  32.533  1.00  0.00     0.274 HD
ATOM     14  H12 UNL     1      45.683 159.234  31.714  1.00  0.00     0.274 HD
ATOM     15  H11 UNL     1      45.437 158.961  33.359  1.00  0.00     0.274 HD
ENDBRANCH  11  12
ENDBRANCH   5  11
TORSDOF 2
ENDMDL
MODEL 2
REMARK VINA RESULT: -3.807327430      1.920      3.656
REMARK  2 active torsions:
REMARK  status: ('A' for Active; 'I' for Inactive)
REMARK    1  A    between atoms: C5_5  and  C6_6 
REMARK    2  A    between atoms: C6_6  and  N1_7 
ROOT
HETATM    1  C1  UNL     1      52.185 162.639  30.635  1.00  0.00     0.021 C 
HETATM    2  C2  UNL     1      51.896 161.181  30.896  1.00  0.00     0.043 C 
HETATM    3  C3  UNL     1      51.390 160.943  32.300  1.00  0.00     0.015 C 
HETATM    4  C4  UNL     1      50.121 161.675  32.586  1.00  0.00     0.013 C 
HETATM    5  C5  UNL     1      48.923 161.205  31.860  1.00  0.00    -0.004 C 
HETATM    6  C7  UNL     1      48.436 159.852  32.349  1.00  0.00     0.012 C 
HETATM    7  C8  UNL     1      47.412 159.453  31.314  1.00  0.00     0.002 C 
HETATM    8  C9  UNL     1      48.026 159.936  30.032  1.00  0.00     0.016 C 
HETATM    9  C10 UNL     1      49.019 161.031  30.408  1.00  0.00     0.058 C 
HETATM   10  S1  UNL     1      50.634 160.533  29.792  1.00  0.00    -0.159 SA
ENDROOT
BRANCH   5  11
HETATM   11  C6  UNL     1      47.792 162.194  32.164  1.00  0.00     0.240 C 
BRANCH  11  12
HETATM   12  N1  UNL     1      47.965 162.804  33.461  1.00  0.00    -0.079 N 
ATOM     13  H13 UNL     1      47.130 162.699  34.039  1.00  0.00     0.274 HD
ATOM     14  H12 UNL     1      48.622 162.279  34.038  1.00  0.00     0.274 HD
ATOM     15  H11 UNL     1      48.241 163.782  33.376  1.00  0.00     0.274 HD
ENDBRANCH  11  12
ENDBRANCH   5  11
TORSDOF 2
ENDMDL
MODEL 3
REMARK VINA RESULT: -3.646196874      2.297      2.959
REMARK  2 active torsions:
REMARK  status: ('A' for Active; 'I' for Inactive)
REMARK    1  A    between atoms: C5_5  and  C6_6 
REMARK    2  A    between atoms: C6_6  and  N1_7 
ROOT
HETATM    1  C1  UNL     1      47.506 160.838  27.448  1.00  0.00     0.021 C 
HETATM    2  C2  UNL     1      46.926 160.081  28.617  1.00  0.00     0.043 C 
HETATM    3  C3  UNL     1      47.917 159.111  29.217  1.00  0.00     0.015 C 
HETATM    4  C4  UNL     1      49.145 159.787  29.730  1.00  0.00     0.013 C 
HETATM    5  C5  UNL     1      48.964 160.648  30.917  1.00  0.00    -0.004 C 
HETATM    6  C7  UNL     1      48.685 159.851  32.180  1.00  0.00     0.012 C 
HETATM    7  C8  UNL     1      48.268 160.906  33.175  1.00  0.00     0.002 C 
HETATM    8  C9  UNL     1      47.452 161.850  32.340  1.00  0.00     0.016 C 
HETATM    9  C10 UNL     1      47.886 161.640  30.893  1.00  0.00     0.058 C 
HETATM   10  S1  UNL     1      46.426 161.176  29.951  1.00  0.00    -0.159 SA
ENDROOT
BRANCH   5  11
HETATM   11  C6  UNL     1      50.293 161.370  31.161  1.00  0.00     0.240 C 
BRANCH  11  12
HETATM   12  N1  UNL     1      51.296 160.956  30.207  1.00  0.00    -0.079 N 
ATOM     13  H13 UNL     1      51.024 160.099  29.726  1.00  0.00     0.274 HD
ATOM     14  H12 UNL     1      51.331 161.583  29.403  1.00  0.00     0.274 HD
ATOM     15  H11 UNL     1      52.211 160.864  30.649  1.00  0.00     0.274 HD
ENDBRANCH  11  12
ENDBRANCH   5  11
TORSDOF 2
ENDMDL
MODEL 4
REMARK VINA RESULT: -3.529433870     11.982     13.487
REMARK  2 active torsions:
REMARK  status: ('A' for Active; 'I' for Inactive)
REMARK    1  A    between atoms: C5_5  and  C6_6 
REMARK    2  A    between atoms: C6_6  and  N1_7 
ROOT
HETATM    1  C1  UNL     1      57.902 161.176  39.255  1.00  0.00     0.021 C 
HETATM    2  C2  UNL     1      59.192 161.960  39.265  1.00  0.00     0.043 C 
HETATM    3  C3  UNL     1      60.061 161.642  38.070  1.00  0.00     0.015 C 
HETATM    4  C4  UNL     1      59.395 161.958  36.773  1.00  0.00     0.013 C 
HETATM    5  C5  UNL     1      59.179 163.392  36.488  1.00  0.00    -0.004 C 
HETATM    6  C7  UNL     1      60.472 164.129  36.182  1.00  0.00     0.012 C 
HETATM    7  C8  UNL     1      60.060 165.581  36.200  1.00  0.00     0.002 C 
HETATM    8  C9  UNL     1      59.075 165.636  37.331  1.00  0.00     0.016 C 
HETATM    9  C10 UNL     1      58.551 164.217  37.524  1.00  0.00     0.058 C 
HETATM   10  S1  UNL     1      58.907 163.734  39.220  1.00  0.00    -0.159 SA
ENDROOT
BRANCH   5  11
HETATM   11  C6  UNL     1      58.335 163.478  35.212  1.00  0.00     0.240 C 
BRANCH  11  12
HETATM   12  N1  UNL     1      58.568 162.341  34.352  1.00  0.00    -0.079 N 
ATOM     13  H13 UNL     1      57.724 162.077  33.843  1.00  0.00     0.274 HD
ATOM     14  H12 UNL     1      59.160 162.585  33.559  1.00  0.00     0.274 HD
ATOM     15  H11 UNL     1      58.951 161.554  34.876  1.00  0.00     0.274 HD
ENDBRANCH  11  12
ENDBRANCH   5  11
TORSDOF 2
ENDMDL
MODEL 5
REMARK VINA RESULT: -3.487822906     11.770     13.398
REMARK  2 active torsions:
REMARK  status: ('A' for Active; 'I' for Inactive)
REMARK    1  A    between atoms: C5_5  and  C6_6 
REMARK    2  A    between atoms: C6_6  and  N1_7 
ROOT
HETATM    1  C1  UNL     1      59.324 166.530  35.874  1.00  0.00     0.021 C 
HETATM    2  C2  UNL     1      59.740 165.193  35.312  1.00  0.00     0.043 C 
HETATM    3  C3  UNL     1      60.830 164.545  36.133  1.00  0.00     0.015 C 
HETATM    4  C4  UNL     1      60.414 164.289  37.543  1.00  0.00     0.013 C 
HETATM    5  C5  UNL     1      59.376 163.255  37.736  1.00  0.00    -0.004 C 
HETATM    6  C7  UNL     1      59.892 161.851  37.469  1.00  0.00     0.012 C 
HETATM    7  C8  UNL     1      58.636 161.014  37.451  1.00  0.00     0.002 C 
HETATM    8  C9  UNL     1      57.649 161.907  36.759  1.00  0.00     0.016 C 
HETATM    9  C10 UNL     1      58.162 163.334  36.920  1.00  0.00     0.058 C 
HETATM   10  S1  UNL     1      58.377 164.022  35.272  1.00  0.00    -0.159 SA
ENDROOT
BRANCH   5  11
HETATM   11  C6  UNL     1      58.979 163.282  39.215  1.00  0.00     0.240 C 
BRANCH  11  12
HETATM   12  N1  UNL     1      58.110 164.399  39.504  1.00  0.00    -0.079 N 
ATOM     13  H13 UNL     1      58.187 165.127  38.793  1.00  0.00     0.274 HD
ATOM     14  H12 UNL     1      57.129 164.155  39.373  1.00  0.00     0.274 HD
ATOM     15  H11 UNL     1      58.281 164.769  40.439  1.00  0.00     0.274 HD
ENDBRANCH  11  12
ENDBRANCH   5  11
TORSDOF 2
ENDMDL
