MODEL 1
REMARK VINA RESULT: -5.407003630      0.000      0.000
REMARK  2 active torsions:
REMARK  status: ('A' for Active; 'I' for Inactive)
REMARK    1  A    between atoms: C2_2  and  C4_4 
REMARK    2  A    between atoms: C9_9  and  N1_10 
ROOT
HETATM    1  C4  UNL     1      51.434 161.182  31.769  1.00  0.00     0.051 C 
HETATM    2  C5  UNL     1      50.458 161.230  32.895  1.00  0.00     0.016 C 
HETATM    3  C6  UNL     1      49.108 161.783  32.507  1.00  0.00     0.013 C 
HETATM    4  C7  UNL     1      48.255 160.785  31.769  1.00  0.00    -0.000 A 
HETATM    5  C8  UNL     1      47.328 159.982  32.633  1.00  0.00     0.018 C 
HETATM    6  C9  UNL     1      47.729 161.158  30.431  1.00  0.00     0.207 A 
HETATM    7  C10 UNL     1      48.910 160.243  30.577  1.00  0.00     0.089 A 
HETATM    8  S1  UNL     1      50.519 161.046  30.220  1.00  0.00    -0.156 SA
ENDROOT
BRANCH   6   9
HETATM    9  N1  UNL     1      46.514 160.610  29.912  1.00  0.00    -0.073 N 
ATOM     10  H13 UNL     1      46.649 159.605  29.800  1.00  0.00     0.274 HD
ATOM     11  H12 UNL     1      45.815 160.651  30.654  1.00  0.00     0.274 HD
ATOM     12  H11 UNL     1      46.082 160.962  29.058  1.00  0.00     0.274 HD
ENDBRANCH   6   9
BRANCH   1  13
HETATM   13  C2  UNL     1      52.394 162.349  31.775  1.00  0.00    -0.009 C 
HETATM   14  C1  UNL     1      52.661 162.863  30.376  1.00  0.00     0.011 C 
HETATM   15  C3  UNL     1      53.719 161.954  32.363  1.00  0.00     0.011 C 
ENDBRANCH   1  13
TORSDOF 2
ENDMDL
MODEL 2
REMARK VINA RESULT: -4.718810550      2.467      4.798
REMARK  2 active torsions:
REMARK  status: ('A' for Active; 'I' for Inactive)
REMARK    1  A    between atoms: C2_2  and  C4_4 
REMARK    2  A    between atoms: C9_9  and  N1_10 
ROOT
HETATM    1  C4  UNL     1      48.860 160.955  30.887  1.00  0.00     0.051 C 
HETATM    2  C5  UNL     1      49.310 161.607  32.150  1.00  0.00     0.016 C 
HETATM    3  C6  UNL     1      50.709 161.222  32.569  1.00  0.00     0.013 C 
HETATM    4  C7  UNL     1      51.775 161.936  31.782  1.00  0.00    -0.000 A 
HETATM    5  C8  UNL     1      52.278 163.206  32.404  1.00  0.00     0.018 C 
HETATM    6  C9  UNL     1      52.791 161.122  31.068  1.00  0.00     0.207 A 
HETATM    7  C10 UNL     1      51.642 161.750  30.336  1.00  0.00     0.089 A 
HETATM    8  S1  UNL     1      50.313 160.570  29.889  1.00  0.00    -0.156 SA
ENDROOT
BRANCH   6   9
HETATM    9  N1  UNL     1      54.108 161.613  30.801  1.00  0.00    -0.073 N 
ATOM     10  H13 UNL     1      54.043 162.267  30.021  1.00  0.00     0.274 HD
ATOM     11  H12 UNL     1      54.373 162.225  31.572  1.00  0.00     0.274 HD
ATOM     12  H11 UNL     1      54.892 160.988  30.617  1.00  0.00     0.274 HD
ENDBRANCH   6   9
BRANCH   1  13
HETATM   13  C2  UNL     1      47.986 159.746  31.132  1.00  0.00    -0.009 C 
HETATM   14  C1  UNL     1      47.558 159.092  29.834  1.00  0.00     0.011 C 
HETATM   15  C3  UNL     1      46.734 160.127  31.869  1.00  0.00     0.011 C 
ENDBRANCH   1  13
TORSDOF 2
ENDMDL
MODEL 3
REMARK VINA RESULT: -4.221154778     10.070     11.183
REMARK  2 active torsions:
REMARK  status: ('A' for Active; 'I' for Inactive)
REMARK    1  A    between atoms: C2_2  and  C4_4 
REMARK    2  A    between atoms: C9_9  and  N1_10 
ROOT
HETATM    1  C4  UNL     1      59.755 164.957  35.403  1.00  0.00     0.051 C 
HETATM    2  C5  UNL     1      60.534 164.482  36.582  1.00  0.00     0.016 C 
HETATM    3  C6  UNL     1      59.693 163.796  37.632  1.00  0.00     0.013 C 
HETATM    4  C7  UNL     1      59.330 162.383  37.262  1.00  0.00    -0.000 A 
HETATM    5  C8  UNL     1      60.268 161.332  37.779  1.00  0.00     0.018 C 
HETATM    6  C9  UNL     1      57.893 162.007  37.233  1.00  0.00     0.207 A 
HETATM    7  C10 UNL     1      58.651 162.285  35.968  1.00  0.00     0.089 A 
HETATM    8  S1  UNL     1      58.286 163.922  35.230  1.00  0.00    -0.156 SA
ENDROOT
BRANCH   6   9
HETATM    9  N1  UNL     1      57.453 160.667  37.472  1.00  0.00    -0.073 N 
ATOM     10  H13 UNL     1      56.478 160.603  37.179  1.00  0.00     0.274 HD
ATOM     11  H12 UNL     1      57.920 160.062  36.797  1.00  0.00     0.274 HD
ATOM     12  H11 UNL     1      57.530 160.227  38.389  1.00  0.00     0.274 HD
ENDBRANCH   6   9
BRANCH   1  13
HETATM   13  C2  UNL     1      59.422 166.430  35.475  1.00  0.00    -0.009 C 
HETATM   14  C1  UNL     1      58.791 166.925  34.191  1.00  0.00     0.011 C 
HETATM   15  C3  UNL     1      60.659 167.250  35.707  1.00  0.00     0.011 C 
ENDBRANCH   1  13
TORSDOF 2
ENDMDL
MODEL 4
REMARK VINA RESULT: -4.036352288      8.929     11.050
REMARK  2 active torsions:
REMARK  status: ('A' for Active; 'I' for Inactive)
REMARK    1  A    between atoms: C2_2  and  C4_4 
REMARK    2  A    between atoms: C9_9  and  N1_10 
ROOT
HETATM    1  C4  UNL     1      59.618 161.006  37.851  1.00  0.00     0.051 C 
HETATM    2  C5  UNL     1      58.288 160.711  37.246  1.00  0.00     0.016 C 
HETATM    3  C6  UNL     1      57.480 161.944  36.920  1.00  0.00     0.013 C 
HETATM    4  C7  UNL     1      57.937 162.629  35.660  1.00  0.00    -0.000 A 
HETATM    5  C8  UNL     1      57.214 162.211  34.413  1.00  0.00     0.018 C 
HETATM    6  C9  UNL     1      58.319 164.063  35.734  1.00  0.00     0.207 A 
HETATM    7  C10 UNL     1      59.358 162.982  35.683  1.00  0.00     0.089 A 
HETATM    8  S1  UNL     1      60.152 162.639  37.299  1.00  0.00    -0.156 SA
ENDROOT
BRANCH   6   9
HETATM    9  N1  UNL     1      58.203 164.939  34.609  1.00  0.00    -0.073 N 
ATOM     10  H13 UNL     1      57.227 164.937  34.313  1.00  0.00     0.274 HD
ATOM     11  H12 UNL     1      58.321 165.894  34.947  1.00  0.00     0.274 HD
ATOM     12  H11 UNL     1      58.780 164.830  33.776  1.00  0.00     0.274 HD
ENDBRANCH   6   9
BRANCH   1  13
HETATM   13  C2  UNL     1      59.619 160.874  39.357  1.00  0.00    -0.009 C 
HETATM   14  C1  UNL     1      60.896 160.236  39.863  1.00  0.00     0.011 C 
HETATM   15  C3  UNL     1      58.479 160.013  39.822  1.00  0.00     0.011 C 
ENDBRANCH   1  13
TORSDOF 2
ENDMDL
MODEL 5
REMARK VINA RESULT: -3.962043160     10.186     11.405
REMARK  2 active torsions:
REMARK  status: ('A' for Active; 'I' for Inactive)
REMARK    1  A    between atoms: C2_2  and  C4_4 
REMARK    2  A    between atoms: C9_9  and  N1_10 
ROOT
HETATM    1  C4  UNL     1      59.189 165.570  35.882  1.00  0.00     0.051 C 
HETATM    2  C5  UNL     1      58.285 164.570  35.244  1.00  0.00     0.016 C 
HETATM    3  C6  UNL     1      58.857 163.173  35.200  1.00  0.00     0.013 C 
HETATM    4  C7  UNL     1      58.765 162.459  36.522  1.00  0.00    -0.000 A 
HETATM    5  C8  UNL     1      57.539 161.613  36.701  1.00  0.00     0.018 C 
HETATM    6  C9  UNL     1      60.012 161.923  37.125  1.00  0.00     0.207 A 
HETATM    7  C10 UNL     1      59.395 163.199  37.618  1.00  0.00     0.089 A 
HETATM    8  S1  UNL     1      60.263 164.710  37.051  1.00  0.00    -0.156 SA
ENDROOT
BRANCH   6   9
HETATM    9  N1  UNL     1      60.008 160.791  37.999  1.00  0.00    -0.073 N 
ATOM     10  H13 UNL     1      59.049 160.646  38.316  1.00  0.00     0.274 HD
ATOM     11  H12 UNL     1      60.174 159.960  37.432  1.00  0.00     0.274 HD
ATOM     12  H11 UNL     1      60.616 160.736  38.816  1.00  0.00     0.274 HD
ENDBRANCH   6   9
BRANCH   1  13
HETATM   13  C2  UNL     1      59.964 166.387  34.874  1.00  0.00    -0.009 C 
HETATM   14  C1  UNL     1      60.879 167.388  35.549  1.00  0.00     0.011 C 
HETATM   15  C3  UNL     1      59.037 167.163  33.984  1.00  0.00     0.011 C 
ENDBRANCH   1  13
TORSDOF 2
ENDMDL
