MODEL 1
REMARK VINA RESULT: -8.398998556      0.000      0.000
REMARK  4 active torsions:
REMARK  status: ('A' for Active; 'I' for Inactive)
REMARK    1  A    between atoms: N1_1  and  C1_4 
REMARK    2  A    between atoms: C3_13  and  N6_14 
REMARK    3  A    between atoms: N6_14  and  C4_15 
REMARK    4  A    between atoms: C4_15  and  C5_16 
ROOT
HETATM    1  C1  UNL     1     -24.466  48.495  17.512  1.00  0.00     0.162 A 
HETATM    2  N2  UNL     1     -25.034  49.131  18.575  1.00  0.00    -0.312 N 
ATOM      3  H2  UNL     1     -24.448  49.709  19.179  1.00  0.00     0.170 HD
HETATM    4  C2  UNL     1     -26.336  49.020  18.848  1.00  0.00     0.208 A 
HETATM    5  N3  UNL     1     -26.947  49.727  19.915  1.00  0.00    -0.062 NA
HETATM    6  N4  UNL     1     -27.085  48.253  18.043  1.00  0.00    -0.271 N 
ATOM      7  H4  UNL     1     -28.080  48.157  18.245  1.00  0.00     0.189 HD
HETATM    8  N5  UNL     1     -26.592  47.622  17.012  1.00  0.00    -0.269 N 
ATOM      9  H5  UNL     1     -27.211  47.055  16.431  1.00  0.00     0.190 HD
HETATM   10  C3  UNL     1     -25.240  47.706  16.686  1.00  0.00     0.232 A 
ENDROOT
BRANCH  10  11
HETATM   11  N6  UNL     1     -24.785  47.180  15.747  1.00  0.00    -0.422 NA
BRANCH  11  12
HETATM   12  C4  UNL     1     -24.317  46.797  14.555  1.00  0.00     0.260 C 
BRANCH  12  13
HETATM   13  C5  UNL     1     -24.588  47.782  13.416  1.00  0.00    -0.017 A 
HETATM   14  C6  UNL     1     -25.818  48.274  13.115  1.00  0.00     0.011 A 
HETATM   15  C7  UNL     1     -25.964  49.042  11.962  1.00  0.00     0.002 A 
HETATM   16  C8  UNL     1     -24.993  49.374  11.138  1.00  0.00     0.012 A 
HETATM   17  C9  UNL     1     -23.740  48.855  11.484  1.00  0.00    -0.025 A 
HETATM   18  C10 UNL     1     -22.621  49.261  10.727  1.00  0.00     0.012 A 
HETATM   19  C14 UNL     1     -23.475  48.079  12.534  1.00  0.00    -0.017 A 
HETATM   20  C11 UNL     1     -21.364  48.858  11.066  1.00  0.00     0.001 A 
HETATM   21  C12 UNL     1     -21.098  48.029  12.160  1.00  0.00     0.001 A 
HETATM   22  C13 UNL     1     -22.215  47.679  12.861  1.00  0.00     0.013 A 
ENDBRANCH  12  13
ENDBRANCH  11  12
ENDBRANCH  10  11
BRANCH   1  23
HETATM   23  N1  UNL     1     -23.108  48.606  17.360  1.00  0.00    -0.381 N 
ATOM     24  H12 UNL     1     -22.476  48.707  18.154  1.00  0.00     0.157 HD
ATOM     25  H11 UNL     1     -22.743  48.650  16.409  1.00  0.00     0.157 HD
ENDBRANCH   1  23
TORSDOF 4
ENDMDL
MODEL 2
REMARK VINA RESULT: -7.938573166      0.730      2.437
REMARK  4 active torsions:
REMARK  status: ('A' for Active; 'I' for Inactive)
REMARK    1  A    between atoms: N1_1  and  C1_4 
REMARK    2  A    between atoms: C3_13  and  N6_14 
REMARK    3  A    between atoms: N6_14  and  C4_15 
REMARK    4  A    between atoms: C4_15  and  C5_16 
ROOT
HETATM    1  C1  UNL     1     -23.919  48.519  17.347  1.00  0.00     0.162 A 
HETATM    2  N2  UNL     1     -24.731  49.116  18.265  1.00  0.00    -0.312 N 
ATOM      3  H2  UNL     1     -24.333  49.798  18.911  1.00  0.00     0.170 HD
HETATM    4  C2  UNL     1     -26.034  48.833  18.341  1.00  0.00     0.208 A 
HETATM    5  N3  UNL     1     -26.897  49.494  19.251  1.00  0.00    -0.062 NA
HETATM    6  N4  UNL     1     -26.534  47.931  17.485  1.00  0.00    -0.271 N 
ATOM      7  H4  UNL     1     -27.527  47.705  17.538  1.00  0.00     0.189 HD
HETATM    8  N5  UNL     1     -25.802  47.330  16.587  1.00  0.00    -0.269 N 
ATOM      9  H5  UNL     1     -26.237  46.655  15.958  1.00  0.00     0.190 HD
HETATM   10  C3  UNL     1     -24.438  47.591  16.468  1.00  0.00     0.232 A 
ENDROOT
BRANCH  10  11
HETATM   11  N6  UNL     1     -23.772  47.092  15.647  1.00  0.00    -0.422 NA
BRANCH  11  12
HETATM   12  C4  UNL     1     -23.231  46.432  14.619  1.00  0.00     0.260 C 
BRANCH  12  13
HETATM   13  C5  UNL     1     -22.786  47.318  13.453  1.00  0.00    -0.017 A 
HETATM   14  C6  UNL     1     -21.487  47.518  13.106  1.00  0.00     0.011 A 
HETATM   15  C7  UNL     1     -21.199  48.465  12.125  1.00  0.00     0.002 A 
HETATM   16  C8  UNL     1     -22.089  49.175  11.464  1.00  0.00     0.012 A 
HETATM   17  C9  UNL     1     -23.415  48.937  11.846  1.00  0.00    -0.025 A 
HETATM   18  C10 UNL     1     -24.440  49.561  11.106  1.00  0.00     0.012 A 
HETATM   19  C14 UNL     1     -23.820  48.089  12.791  1.00  0.00    -0.017 A 
HETATM   20  C11 UNL     1     -25.752  49.304  11.373  1.00  0.00     0.001 A 
HETATM   21  C12 UNL     1     -26.167  48.426  12.379  1.00  0.00     0.001 A 
HETATM   22  C13 UNL     1     -25.133  47.843  13.052  1.00  0.00     0.013 A 
ENDBRANCH  12  13
ENDBRANCH  11  12
ENDBRANCH  10  11
BRANCH   1  23
HETATM   23  N1  UNL     1     -22.582  48.815  17.399  1.00  0.00    -0.381 N 
ATOM     24  H12 UNL     1     -21.863  48.149  17.116  1.00  0.00     0.157 HD
ATOM     25  H11 UNL     1     -22.314  49.716  17.794  1.00  0.00     0.157 HD
ENDBRANCH   1  23
TORSDOF 4
ENDMDL
MODEL 3
REMARK VINA RESULT: -7.033559845      0.759      1.422
REMARK  4 active torsions:
REMARK  status: ('A' for Active; 'I' for Inactive)
REMARK    1  A    between atoms: N1_1  and  C1_4 
REMARK    2  A    between atoms: C3_13  and  N6_14 
REMARK    3  A    between atoms: N6_14  and  C4_15 
REMARK    4  A    between atoms: C4_15  and  C5_16 
ROOT
HETATM    1  C1  UNL     1     -26.598  48.656  16.691  1.00  0.00     0.162 A 
HETATM    2  N2  UNL     1     -27.040  49.217  17.853  1.00  0.00    -0.312 N 
ATOM      3  H2  UNL     1     -27.920  49.733  17.852  1.00  0.00     0.170 HD
HETATM    4  C2  UNL     1     -26.351  49.110  18.992  1.00  0.00     0.208 A 
HETATM    5  N3  UNL     1     -26.833  49.638  20.216  1.00  0.00    -0.062 NA
HETATM    6  N4  UNL     1     -25.196  48.432  18.968  1.00  0.00    -0.271 N 
ATOM      7  H4  UNL     1     -24.660  48.348  19.832  1.00  0.00     0.189 HD
HETATM    8  N5  UNL     1     -24.727  47.874  17.884  1.00  0.00    -0.269 N 
ATOM      9  H5  UNL     1     -23.844  47.366  17.926  1.00  0.00     0.190 HD
HETATM   10  C3  UNL     1     -25.409  47.959  16.671  1.00  0.00     0.232 A 
ENDROOT
BRANCH  10  11
HETATM   11  N6  UNL     1     -25.025  47.436  15.698  1.00  0.00    -0.422 NA
BRANCH  11  12
HETATM   12  C4  UNL     1     -24.405  47.016  14.591  1.00  0.00     0.260 C 
BRANCH  12  13
HETATM   13  C5  UNL     1     -24.596  47.918  13.370  1.00  0.00    -0.017 A 
HETATM   14  C6  UNL     1     -25.799  48.404  12.967  1.00  0.00     0.011 A 
HETATM   15  C7  UNL     1     -25.869  49.088  11.755  1.00  0.00     0.002 A 
HETATM   16  C8  UNL     1     -24.849  49.344  10.963  1.00  0.00     0.012 A 
HETATM   17  C9  UNL     1     -23.626  48.833  11.415  1.00  0.00    -0.025 A 
HETATM   18  C10 UNL     1     -22.461  49.166  10.693  1.00  0.00     0.012 A 
HETATM   19  C14 UNL     1     -23.432  48.133  12.532  1.00  0.00    -0.017 A 
HETATM   20  C11 UNL     1     -21.231  48.771  11.129  1.00  0.00     0.001 A 
HETATM   21  C12 UNL     1     -21.040  48.021  12.293  1.00  0.00     0.001 A 
HETATM   22  C13 UNL     1     -22.200  47.740  12.955  1.00  0.00     0.013 A 
ENDBRANCH  12  13
ENDBRANCH  11  12
ENDBRANCH  10  11
BRANCH   1  23
HETATM   23  N1  UNL     1     -27.333  48.888  15.558  1.00  0.00    -0.381 N 
ATOM     24  H12 UNL     1     -27.201  49.718  14.980  1.00  0.00     0.157 HD
ATOM     25  H11 UNL     1     -28.076  48.225  15.335  1.00  0.00     0.157 HD
ENDBRANCH   1  23
TORSDOF 4
ENDMDL
MODEL 4
REMARK VINA RESULT: -6.911698257      0.952      2.715
REMARK  4 active torsions:
REMARK  status: ('A' for Active; 'I' for Inactive)
REMARK    1  A    between atoms: N1_1  and  C1_4 
REMARK    2  A    between atoms: C3_13  and  N6_14 
REMARK    3  A    between atoms: N6_14  and  C4_15 
REMARK    4  A    between atoms: C4_15  and  C5_16 
ROOT
HETATM    1  C1  UNL     1     -26.137  48.480  16.179  1.00  0.00     0.162 A 
HETATM    2  N2  UNL     1     -26.785  49.038  17.241  1.00  0.00    -0.312 N 
ATOM      3  H2  UNL     1     -27.696  49.473  17.093  1.00  0.00     0.170 HD
HETATM    4  C2  UNL     1     -26.259  49.032  18.468  1.00  0.00     0.208 A 
HETATM    5  N3  UNL     1     -26.953  49.556  19.588  1.00  0.00    -0.062 NA
HETATM    6  N4  UNL     1     -25.059  48.459  18.636  1.00  0.00    -0.271 N 
ATOM      7  H4  UNL     1     -24.647  48.453  19.569  1.00  0.00     0.189 HD
HETATM    8  N5  UNL     1     -24.396  47.909  17.655  1.00  0.00    -0.269 N 
ATOM      9  H5  UNL     1     -23.488  47.484  17.843  1.00  0.00     0.190 HD
HETATM   10  C3  UNL     1     -24.902  47.891  16.357  1.00  0.00     0.232 A 
ENDROOT
BRANCH  10  11
HETATM   11  N6  UNL     1     -24.342  47.372  15.472  1.00  0.00    -0.422 NA
BRANCH  11  12
HETATM   12  C4  UNL     1     -23.686  46.581  14.618  1.00  0.00     0.260 C 
BRANCH  12  13
HETATM   13  C5  UNL     1     -22.881  47.323  13.549  1.00  0.00    -0.017 A 
HETATM   14  C6  UNL     1     -21.523  47.357  13.510  1.00  0.00     0.011 A 
HETATM   15  C7  UNL     1     -20.905  48.191  12.580  1.00  0.00     0.002 A 
HETATM   16  C8  UNL     1     -21.527  48.936  11.690  1.00  0.00     0.012 A 
HETATM   17  C9  UNL     1     -22.923  48.869  11.758  1.00  0.00    -0.025 A 
HETATM   18  C10 UNL     1     -23.668  49.538  10.764  1.00  0.00     0.012 A 
HETATM   19  C14 UNL     1     -23.634  48.144  12.621  1.00  0.00    -0.017 A 
HETATM   20  C11 UNL     1     -25.027  49.441  10.724  1.00  0.00     0.001 A 
HETATM   21  C12 UNL     1     -25.765  48.692  11.646  1.00  0.00     0.001 A 
HETATM   22  C13 UNL     1     -24.992  48.058  12.575  1.00  0.00     0.013 A 
ENDBRANCH  12  13
ENDBRANCH  11  12
ENDBRANCH  10  11
BRANCH   1  23
HETATM   23  N1  UNL     1     -26.720  48.606  14.945  1.00  0.00    -0.381 N 
ATOM     24  H12 UNL     1     -26.176  48.622  14.083  1.00  0.00     0.157 HD
ATOM     25  H11 UNL     1     -27.729  48.748  14.913  1.00  0.00     0.157 HD
ENDBRANCH   1  23
TORSDOF 4
ENDMDL
MODEL 5
REMARK VINA RESULT: -6.890150908      3.060      6.138
REMARK  4 active torsions:
REMARK  status: ('A' for Active; 'I' for Inactive)
REMARK    1  A    between atoms: N1_1  and  C1_4 
REMARK    2  A    between atoms: C3_13  and  N6_14 
REMARK    3  A    between atoms: N6_14  and  C4_15 
REMARK    4  A    between atoms: C4_15  and  C5_16 
ROOT
HETATM    1  C1  UNL     1     -24.106  49.469  11.639  1.00  0.00     0.162 A 
HETATM    2  N2  UNL     1     -23.020  49.704  10.849  1.00  0.00    -0.312 N 
ATOM      3  H2  UNL     1     -23.037  50.495  10.205  1.00  0.00     0.170 HD
HETATM    4  C2  UNL     1     -21.935  48.927  10.894  1.00  0.00     0.208 A 
HETATM    5  N3  UNL     1     -20.779  49.200  10.121  1.00  0.00    -0.062 NA
HETATM    6  N4  UNL     1     -21.938  47.891  11.745  1.00  0.00    -0.271 N 
ATOM      7  H4  UNL     1     -21.115  47.289  11.785  1.00  0.00     0.189 HD
HETATM    8  N5  UNL     1     -22.949  47.621  12.525  1.00  0.00    -0.269 N 
ATOM      9  H5  UNL     1     -22.894  46.822  13.156  1.00  0.00     0.190 HD
HETATM   10  C3  UNL     1     -24.104  48.402  12.513  1.00  0.00     0.232 A 
ENDROOT
BRANCH  10  11
HETATM   11  N6  UNL     1     -25.006  48.200  13.229  1.00  0.00    -0.422 NA
BRANCH  11  12
HETATM   12  C4  UNL     1     -26.025  47.732  13.955  1.00  0.00     0.260 C 
BRANCH  12  13
HETATM   13  C5  UNL     1     -25.974  48.101  15.440  1.00  0.00    -0.017 A 
HETATM   14  C6  UNL     1     -27.049  48.531  16.151  1.00  0.00     0.011 A 
HETATM   15  C7  UNL     1     -26.847  48.982  17.454  1.00  0.00     0.002 A 
HETATM   16  C8  UNL     1     -25.693  48.997  18.087  1.00  0.00     0.012 A 
HETATM   17  C9  UNL     1     -24.611  48.541  17.324  1.00  0.00    -0.025 A 
HETATM   18  C10 UNL     1     -23.361  48.405  17.962  1.00  0.00     0.012 A 
HETATM   19  C14 UNL     1     -24.664  48.120  16.061  1.00  0.00    -0.017 A 
HETATM   20  C11 UNL     1     -22.289  47.886  17.297  1.00  0.00     0.001 A 
HETATM   21  C12 UNL     1     -22.350  47.464  15.966  1.00  0.00     0.001 A 
HETATM   22  C13 UNL     1     -23.587  47.607  15.406  1.00  0.00     0.013 A 
ENDBRANCH  12  13
ENDBRANCH  11  12
ENDBRANCH  10  11
BRANCH   1  23
HETATM   23  N1  UNL     1     -25.202  50.273  11.464  1.00  0.00    -0.381 N 
ATOM     24  H12 UNL     1     -25.910  50.085  10.754  1.00  0.00     0.157 HD
ATOM     25  H11 UNL     1     -25.261  51.118  12.032  1.00  0.00     0.157 HD
ENDBRANCH   1  23
TORSDOF 4
ENDMDL
