MODEL 1
REMARK VINA RESULT: -5.862669694      0.000      0.000
REMARK  7 active torsions:
REMARK  status: ('A' for Active; 'I' for Inactive)
REMARK    1  A    between atoms: C2_2  and  C3_3 
REMARK    2  A    between atoms: C3_3  and  N1_4 
REMARK       I    between atoms: N1_4  and  C4_6 
REMARK    3  A    between atoms: C4_6  and  C5_8 
REMARK    4  A    between atoms: C5_8  and  C6_9 
REMARK    5  A    between atoms: C6_9  and  C7_10 
REMARK       I    between atoms: N2_17  and  C14_18 
REMARK       I    between atoms: C14_18  and  N4_29 
REMARK       I    between atoms: N3_19  and  C15_21 
REMARK    6  A    between atoms: C15_21  and  C16_23 
REMARK    7  A    between atoms: N4_29  and  C22_31 
ROOT
HETATM    1  C5  UNL     1       1.683   4.436  16.260  1.00  0.00     0.130 C 
HETATM    2  C10 UNL     1       2.373   4.109  14.934  1.00  0.00     0.042 C 
HETATM    3  C11 UNL     1       1.762   2.945  14.238  1.00  0.00     0.004 C 
HETATM    4  C12 UNL     1       1.507   1.757  15.093  1.00  0.00     0.020 C 
HETATM    5  C13 UNL     1       1.175   2.004  16.513  1.00  0.00     0.143 C 
HETATM    6  N2  UNL     1       1.849   3.167  17.022  1.00  0.00    -0.200 N 
HETATM    7  C14 UNL     1       2.616   3.001  18.187  1.00  0.00     0.680 C 
HETATM    8  N3  UNL     1       2.172   2.968  19.394  1.00  0.00    -0.160 N 
ATOM      9  H3  UNL     1       2.881   2.840  20.116  1.00  0.00     0.187 HD
HETATM   10  C15 UNL     1       0.868   3.082  19.857  1.00  0.00     0.240 C 
HETATM   11  O2  UNL     1       0.263   4.174  20.035  1.00  0.00    -0.272 OA
HETATM   12  N4  UNL     1       4.029   2.812  18.052  1.00  0.00    -0.222 N 
ATOM     13  H4  UNL     1       4.501   3.263  17.267  1.00  0.00     0.178 HD
ENDROOT
BRANCH   1  14
HETATM   14  C4  UNL     1       2.490   5.470  16.867  1.00  0.00     0.246 C 
HETATM   15  N1  UNL     1       3.805   5.797  16.393  1.00  0.00    -0.359 N 
ATOM     16  H1  UNL     1       4.146   5.307  15.566  1.00  0.00     0.162 HD
HETATM   17  O1  UNL     1       2.161   6.191  17.874  1.00  0.00    -0.271 OA
BRANCH  15  18
HETATM   18  C3  UNL     1       4.664   6.754  16.996  1.00  0.00     0.122 C 
BRANCH  18  19
HETATM   19  C2  UNL     1       5.886   6.335  17.701  1.00  0.00     0.015 C 
HETATM   20  C1  UNL     1       6.937   5.631  16.906  1.00  0.00     0.006 C 
ENDBRANCH  18  19
ENDBRANCH  15  18
ENDBRANCH   1  14
BRANCH   1  21
HETATM   21  C6  UNL     1       0.260   4.651  16.160  1.00  0.00     0.045 C 
BRANCH  21  22
HETATM   22  C7  UNL     1      -0.444   5.592  15.303  1.00  0.00    -0.020 C 
HETATM   23  C8  UNL     1      -1.563   4.793  14.546  1.00  0.00     0.009 C 
HETATM   24  C9  UNL     1      -1.228   6.674  15.986  1.00  0.00     0.009 C 
ENDBRANCH  21  22
ENDBRANCH   1  21
BRANCH  12  25
HETATM   25  C22 UNL     1       4.816   2.031  18.948  1.00  0.00     0.091 C 
HETATM   26  C23 UNL     1       5.088   0.635  18.449  1.00  0.00     0.032 C 
HETATM   27  C24 UNL     1       6.137   2.695  19.235  1.00  0.00     0.032 C 
ENDBRANCH  12  25
BRANCH  10  28
HETATM   28  C16 UNL     1       0.114   1.820  20.175  1.00  0.00     0.079 C 
HETATM   29  C17 UNL     1       1.025   0.611  19.927  1.00  0.00     0.014 C 
HETATM   30  C18 UNL     1       1.640   0.149  21.231  1.00  0.00     0.001 C 
HETATM   31  C19 UNL     1       0.585  -0.448  22.122  1.00  0.00     0.000 C 
HETATM   32  C20 UNL     1      -0.655   0.404  22.041  1.00  0.00     0.001 C 
HETATM   33  C21 UNL     1      -0.354   1.814  21.594  1.00  0.00     0.014 C 
ENDBRANCH  10  28
TORSDOF 7
ENDMDL
MODEL 2
REMARK VINA RESULT: -5.659690145      4.356      6.671
REMARK  7 active torsions:
REMARK  status: ('A' for Active; 'I' for Inactive)
REMARK    1  A    between atoms: C2_2  and  C3_3 
REMARK    2  A    between atoms: C3_3  and  N1_4 
REMARK       I    between atoms: N1_4  and  C4_6 
REMARK    3  A    between atoms: C4_6  and  C5_8 
REMARK    4  A    between atoms: C5_8  and  C6_9 
REMARK    5  A    between atoms: C6_9  and  C7_10 
REMARK       I    between atoms: N2_17  and  C14_18 
REMARK       I    between atoms: C14_18  and  N4_29 
REMARK       I    between atoms: N3_19  and  C15_21 
REMARK    6  A    between atoms: C15_21  and  C16_23 
REMARK    7  A    between atoms: N4_29  and  C22_31 
ROOT
HETATM    1  C5  UNL     1      -3.488   5.577  21.053  1.00  0.00     0.130 C 
HETATM    2  C10 UNL     1      -4.712   6.062  20.272  1.00  0.00     0.042 C 
HETATM    3  C11 UNL     1      -5.715   4.988  20.046  1.00  0.00     0.004 C 
HETATM    4  C12 UNL     1      -5.165   3.697  19.560  1.00  0.00     0.020 C 
HETATM    5  C13 UNL     1      -3.804   3.330  20.009  1.00  0.00     0.143 C 
HETATM    6  N2  UNL     1      -2.970   4.488  20.178  1.00  0.00    -0.200 N 
HETATM    7  C14 UNL     1      -1.743   4.496  19.493  1.00  0.00     0.680 C 
HETATM    8  N3  UNL     1      -0.661   3.902  19.859  1.00  0.00    -0.160 N 
ATOM      9  H3  UNL     1       0.134   4.022  19.232  1.00  0.00     0.187 HD
HETATM   10  C15 UNL     1      -0.420   3.123  20.981  1.00  0.00     0.240 C 
HETATM   11  O2  UNL     1      -0.142   3.578  22.124  1.00  0.00    -0.272 OA
HETATM   12  N4  UNL     1      -1.664   5.194  18.245  1.00  0.00    -0.222 N 
ATOM     13  H4  UNL     1      -2.251   6.019  18.119  1.00  0.00     0.178 HD
ENDROOT
BRANCH   1  14
HETATM   14  C4  UNL     1      -2.561   6.685  21.040  1.00  0.00     0.246 C 
HETATM   15  N1  UNL     1      -1.444   6.766  21.936  1.00  0.00    -0.359 N 
ATOM     16  H1  UNL     1      -1.283   5.979  22.565  1.00  0.00     0.162 HD
HETATM   17  O1  UNL     1      -2.620   7.709  20.270  1.00  0.00    -0.271 OA
BRANCH  15  18
HETATM   18  C3  UNL     1      -0.547   7.865  22.010  1.00  0.00     0.122 C 
BRANCH  18  19
HETATM   19  C2  UNL     1      -0.558   8.774  23.168  1.00  0.00     0.015 C 
HETATM   20  C1  UNL     1      -1.831   8.892  23.942  1.00  0.00     0.006 C 
ENDBRANCH  18  19
ENDBRANCH  15  18
ENDBRANCH   1  14
BRANCH   1  21
HETATM   21  C6  UNL     1      -3.792   4.954  22.317  1.00  0.00     0.045 C 
BRANCH  21  22
HETATM   22  C7  UNL     1      -4.483   5.535  23.457  1.00  0.00    -0.020 C 
HETATM   23  C8  UNL     1      -5.540   4.486  23.952  1.00  0.00     0.009 C 
HETATM   24  C9  UNL     1      -3.667   5.777  24.694  1.00  0.00     0.009 C 
ENDBRANCH  21  22
ENDBRANCH   1  21
BRANCH  12  25
HETATM   25  C22 UNL     1      -0.813   4.806  17.170  1.00  0.00     0.091 C 
HETATM   26  C23 UNL     1      -1.498   4.814  15.828  1.00  0.00     0.032 C 
HETATM   27  C24 UNL     1       0.401   5.695  17.085  1.00  0.00     0.032 C 
ENDBRANCH  12  25
BRANCH  10  28
HETATM   28  C16 UNL     1      -0.490   1.628  20.838  1.00  0.00     0.079 C 
HETATM   29  C17 UNL     1       0.727   1.140  20.039  1.00  0.00     0.014 C 
HETATM   30  C18 UNL     1       1.801   0.643  20.982  1.00  0.00     0.001 C 
HETATM   31  C19 UNL     1       1.357  -0.626  21.656  1.00  0.00     0.000 C 
HETATM   32  C20 UNL     1      -0.093  -0.486  22.044  1.00  0.00     0.001 C 
HETATM   33  C21 UNL     1      -0.514   0.957  22.173  1.00  0.00     0.014 C 
ENDBRANCH  10  28
TORSDOF 7
ENDMDL
MODEL 3
REMARK VINA RESULT: -5.576848125      4.685      7.159
REMARK  7 active torsions:
REMARK  status: ('A' for Active; 'I' for Inactive)
REMARK    1  A    between atoms: C2_2  and  C3_3 
REMARK    2  A    between atoms: C3_3  and  N1_4 
REMARK       I    between atoms: N1_4  and  C4_6 
REMARK    3  A    between atoms: C4_6  and  C5_8 
REMARK    4  A    between atoms: C5_8  and  C6_9 
REMARK    5  A    between atoms: C6_9  and  C7_10 
REMARK       I    between atoms: N2_17  and  C14_18 
REMARK       I    between atoms: C14_18  and  N4_29 
REMARK       I    between atoms: N3_19  and  C15_21 
REMARK    6  A    between atoms: C15_21  and  C16_23 
REMARK    7  A    between atoms: N4_29  and  C22_31 
ROOT
HETATM    1  C5  UNL     1      -4.149   5.470  21.154  1.00  0.00     0.130 C 
HETATM    2  C10 UNL     1      -5.092   6.095  20.123  1.00  0.00     0.042 C 
HETATM    3  C11 UNL     1      -5.856   5.079  19.351  1.00  0.00     0.004 C 
HETATM    4  C12 UNL     1      -5.053   3.946  18.824  1.00  0.00     0.020 C 
HETATM    5  C13 UNL     1      -3.885   3.516  19.622  1.00  0.00     0.143 C 
HETATM    6  N2  UNL     1      -3.269   4.623  20.302  1.00  0.00    -0.200 N 
HETATM    7  C14 UNL     1      -1.893   4.815  20.094  1.00  0.00     0.680 C 
HETATM    8  N3  UNL     1      -0.937   4.178  20.673  1.00  0.00    -0.160 N 
ATOM      9  H3  UNL     1       0.003   4.455  20.394  1.00  0.00     0.187 HD
HETATM   10  C15 UNL     1      -1.001   3.167  21.623  1.00  0.00     0.240 C 
HETATM   11  O2  UNL     1      -1.157   3.355  22.860  1.00  0.00    -0.272 OA
HETATM   12  N4  UNL     1      -1.480   5.782  19.121  1.00  0.00    -0.222 N 
ATOM     13  H4  UNL     1      -2.072   6.600  18.977  1.00  0.00     0.178 HD
ENDROOT
BRANCH   1  14
HETATM   14  C4  UNL     1      -3.383   6.573  21.689  1.00  0.00     0.246 C 
HETATM   15  N1  UNL     1      -2.576   6.450  22.868  1.00  0.00    -0.359 N 
ATOM     16  H1  UNL     1      -2.511   5.530  23.305  1.00  0.00     0.162 HD
HETATM   17  O1  UNL     1      -3.336   7.761  21.210  1.00  0.00    -0.271 OA
BRANCH  15  18
HETATM   18  C3  UNL     1      -1.860   7.519  23.471  1.00  0.00     0.122 C 
BRANCH  18  19
HETATM   19  C2  UNL     1      -2.165   7.953  24.845  1.00  0.00     0.015 C 
HETATM   20  C1  UNL     1      -2.892   6.993  25.728  1.00  0.00     0.006 C 
ENDBRANCH  18  19
ENDBRANCH  15  18
ENDBRANCH   1  14
BRANCH   1  21
HETATM   21  C6  UNL     1      -4.786   4.568  22.081  1.00  0.00     0.045 C 
BRANCH  21  22
HETATM   22  C7  UNL     1      -5.634   4.902  23.214  1.00  0.00    -0.020 C 
HETATM   23  C8  UNL     1      -7.098   4.466  22.852  1.00  0.00     0.009 C 
HETATM   24  C9  UNL     1      -5.384   4.154  24.492  1.00  0.00     0.009 C 
ENDBRANCH  21  22
ENDBRANCH   1  21
BRANCH  12  25
HETATM   25  C22 UNL     1      -0.290   5.669  18.344  1.00  0.00     0.091 C 
HETATM   26  C23 UNL     1      -0.459   4.825  17.107  1.00  0.00     0.032 C 
HETATM   27  C24 UNL     1       0.218   7.024  17.924  1.00  0.00     0.032 C 
ENDBRANCH  12  25
BRANCH  10  28
HETATM   28  C16 UNL     1      -0.872   1.744  21.156  1.00  0.00     0.079 C 
HETATM   29  C17 UNL     1       0.194   1.667  20.055  1.00  0.00     0.014 C 
HETATM   30  C18 UNL     1       1.515   1.220  20.642  1.00  0.00     0.001 C 
HETATM   31  C19 UNL     1       1.432  -0.217  21.078  1.00  0.00     0.000 C 
HETATM   32  C20 UNL     1       0.103  -0.442  21.751  1.00  0.00     0.001 C 
HETATM   33  C21 UNL     1      -0.494   0.838  22.284  1.00  0.00     0.014 C 
ENDBRANCH  10  28
TORSDOF 7
ENDMDL
MODEL 4
REMARK VINA RESULT: -5.414390292      4.168      7.171
REMARK  7 active torsions:
REMARK  status: ('A' for Active; 'I' for Inactive)
REMARK    1  A    between atoms: C2_2  and  C3_3 
REMARK    2  A    between atoms: C3_3  and  N1_4 
REMARK       I    between atoms: N1_4  and  C4_6 
REMARK    3  A    between atoms: C4_6  and  C5_8 
REMARK    4  A    between atoms: C5_8  and  C6_9 
REMARK    5  A    between atoms: C6_9  and  C7_10 
REMARK       I    between atoms: N2_17  and  C14_18 
REMARK       I    between atoms: C14_18  and  N4_29 
REMARK       I    between atoms: N3_19  and  C15_21 
REMARK    6  A    between atoms: C15_21  and  C16_23 
REMARK    7  A    between atoms: N4_29  and  C22_31 
ROOT
HETATM    1  C5  UNL     1      -1.698   6.747  21.860  1.00  0.00     0.130 C 
HETATM    2  C10 UNL     1      -2.673   7.136  22.974  1.00  0.00     0.042 C 
HETATM    3  C11 UNL     1      -2.261   6.621  24.307  1.00  0.00     0.004 C 
HETATM    4  C12 UNL     1      -1.851   5.193  24.337  1.00  0.00     0.020 C 
HETATM    5  C13 UNL     1      -1.206   4.649  23.123  1.00  0.00     0.143 C 
HETATM    6  N2  UNL     1      -1.721   5.260  21.928  1.00  0.00    -0.200 N 
HETATM    7  C14 UNL     1      -2.214   4.399  20.933  1.00  0.00     0.680 C 
HETATM    8  N3  UNL     1      -1.513   3.752  20.069  1.00  0.00    -0.160 N 
ATOM      9  H3  UNL     1      -2.047   3.173  19.420  1.00  0.00     0.187 HD
HETATM   10  C15 UNL     1      -0.137   3.728  19.890  1.00  0.00     0.240 C 
HETATM   11  O2  UNL     1       0.519   4.597  19.254  1.00  0.00    -0.272 OA
HETATM   12  N4  UNL     1      -3.626   4.168  20.869  1.00  0.00    -0.222 N 
ATOM     13  H4  UNL     1      -4.249   4.924  21.153  1.00  0.00     0.178 HD
ENDROOT
BRANCH   1  14
HETATM   14  C4  UNL     1      -2.325   7.183  20.634  1.00  0.00     0.246 C 
HETATM   15  N1  UNL     1      -1.618   7.244  19.387  1.00  0.00    -0.359 N 
ATOM     16  H1  UNL     1      -0.652   6.917  19.373  1.00  0.00     0.162 HD
HETATM   17  O1  UNL     1      -3.540   7.571  20.504  1.00  0.00    -0.271 OA
BRANCH  15  18
HETATM   18  C3  UNL     1      -2.169   7.729  18.171  1.00  0.00     0.122 C 
BRANCH  18  19
HETATM   19  C2  UNL     1      -2.526   6.805  17.081  1.00  0.00     0.015 C 
HETATM   20  C1  UNL     1      -3.314   5.587  17.438  1.00  0.00     0.006 C 
ENDBRANCH  18  19
ENDBRANCH  15  18
ENDBRANCH   1  14
BRANCH   1  21
HETATM   21  C6  UNL     1      -0.329   7.130  22.102  1.00  0.00     0.045 C 
BRANCH  21  22
HETATM   22  C7  UNL     1       0.195   8.461  22.366  1.00  0.00    -0.020 C 
HETATM   23  C8  UNL     1       1.570   8.289  23.102  1.00  0.00     0.009 C 
HETATM   24  C9  UNL     1       0.572   9.291  21.172  1.00  0.00     0.009 C 
ENDBRANCH  21  22
ENDBRANCH   1  21
BRANCH  12  25
HETATM   25  C22 UNL     1      -4.212   2.944  20.432  1.00  0.00     0.091 C 
HETATM   26  C23 UNL     1      -4.111   1.834  21.445  1.00  0.00     0.032 C 
HETATM   27  C24 UNL     1      -5.666   3.130  20.080  1.00  0.00     0.032 C 
ENDBRANCH  12  25
BRANCH  10  28
HETATM   28  C16 UNL     1       0.638   2.588  20.492  1.00  0.00     0.079 C 
HETATM   29  C17 UNL     1      -0.250   1.338  20.530  1.00  0.00     0.014 C 
HETATM   30  C18 UNL     1       0.053   0.449  19.343  1.00  0.00     0.001 C 
HETATM   31  C19 UNL     1       1.424  -0.153  19.480  1.00  0.00     0.000 C 
HETATM   32  C20 UNL     1       2.368   0.904  19.992  1.00  0.00     0.001 C 
HETATM   33  C21 UNL     1       1.875   2.301  19.704  1.00  0.00     0.014 C 
ENDBRANCH  10  28
TORSDOF 7
ENDMDL
MODEL 5
REMARK VINA RESULT: -5.398881753      4.106      6.564
REMARK  7 active torsions:
REMARK  status: ('A' for Active; 'I' for Inactive)
REMARK    1  A    between atoms: C2_2  and  C3_3 
REMARK    2  A    between atoms: C3_3  and  N1_4 
REMARK       I    between atoms: N1_4  and  C4_6 
REMARK    3  A    between atoms: C4_6  and  C5_8 
REMARK    4  A    between atoms: C5_8  and  C6_9 
REMARK    5  A    between atoms: C6_9  and  C7_10 
REMARK       I    between atoms: N2_17  and  C14_18 
REMARK       I    between atoms: C14_18  and  N4_29 
REMARK       I    between atoms: N3_19  and  C15_21 
REMARK    6  A    between atoms: C15_21  and  C16_23 
REMARK    7  A    between atoms: N4_29  and  C22_31 
ROOT
HETATM    1  C5  UNL     1      -3.600   5.571  21.065  1.00  0.00     0.130 C 
HETATM    2  C10 UNL     1      -4.800   6.063  20.251  1.00  0.00     0.042 C 
HETATM    3  C11 UNL     1      -5.779   4.984  19.958  1.00  0.00     0.004 C 
HETATM    4  C12 UNL     1      -5.193   3.714  19.457  1.00  0.00     0.020 C 
HETATM    5  C13 UNL     1      -3.846   3.351  19.947  1.00  0.00     0.143 C 
HETATM    6  N2  UNL     1      -3.034   4.514  20.181  1.00  0.00    -0.200 N 
HETATM    7  C14 UNL     1      -1.782   4.557  19.543  1.00  0.00     0.680 C 
HETATM    8  N3  UNL     1      -0.708   3.966  19.933  1.00  0.00    -0.160 N 
ATOM      9  H3  UNL     1       0.109   4.114  19.341  1.00  0.00     0.187 HD
HETATM   10  C15 UNL     1      -0.499   3.159  21.042  1.00  0.00     0.240 C 
HETATM   11  O2  UNL     1      -0.270   3.585  22.207  1.00  0.00    -0.272 OA
HETATM   12  N4  UNL     1      -1.666   5.291  18.320  1.00  0.00    -0.222 N 
ATOM     13  H4  UNL     1      -2.259   6.112  18.194  1.00  0.00     0.178 HD
ENDROOT
BRANCH   1  14
HETATM   14  C4  UNL     1      -2.688   6.691  21.118  1.00  0.00     0.246 C 
HETATM   15  N1  UNL     1      -2.922   7.909  20.397  1.00  0.00    -0.359 N 
ATOM     16  H1  UNL     1      -3.793   7.989  19.872  1.00  0.00     0.162 HD
HETATM   17  O1  UNL     1      -1.589   6.739  21.776  1.00  0.00    -0.271 OA
BRANCH  15  18
HETATM   18  C3  UNL     1      -2.026   9.010  20.362  1.00  0.00     0.122 C 
BRANCH  18  19
HETATM   19  C2  UNL     1      -1.177   9.257  19.184  1.00  0.00     0.015 C 
HETATM   20  C1  UNL     1      -1.737   8.909  17.843  1.00  0.00     0.006 C 
ENDBRANCH  18  19
ENDBRANCH  15  18
ENDBRANCH   1  14
BRANCH   1  21
HETATM   21  C6  UNL     1      -3.943   4.909  22.298  1.00  0.00     0.045 C 
BRANCH  21  22
HETATM   22  C7  UNL     1      -4.576   5.483  23.475  1.00  0.00    -0.020 C 
HETATM   23  C8  UNL     1      -5.578   4.414  24.039  1.00  0.00     0.009 C 
HETATM   24  C9  UNL     1      -3.692   5.749  24.659  1.00  0.00     0.009 C 
ENDBRANCH  21  22
ENDBRANCH   1  21
BRANCH  12  25
HETATM   25  C22 UNL     1      -0.769   4.944  17.267  1.00  0.00     0.091 C 
HETATM   26  C23 UNL     1      -1.427   4.885  15.912  1.00  0.00     0.032 C 
HETATM   27  C24 UNL     1       0.384   5.911  17.190  1.00  0.00     0.032 C 
ENDBRANCH  12  25
BRANCH  10  28
HETATM   28  C16 UNL     1      -0.543   1.667  20.854  1.00  0.00     0.079 C 
HETATM   29  C17 UNL     1       0.664   1.229  20.013  1.00  0.00     0.014 C 
HETATM   30  C18 UNL     1       1.769   0.724  20.916  1.00  0.00     0.001 C 
HETATM   31  C19 UNL     1       1.366  -0.573  21.560  1.00  0.00     0.000 C 
HETATM   32  C20 UNL     1      -0.077  -0.474  21.985  1.00  0.00     0.001 C 
HETATM   33  C21 UNL     1      -0.523   0.956  22.169  1.00  0.00     0.014 C 
ENDBRANCH  10  28
TORSDOF 7
ENDMDL
