MODEL 1
REMARK VINA RESULT: -6.694075244      0.000      0.000
REMARK  4 active torsions:
REMARK  status: ('A' for Active; 'I' for Inactive)
REMARK    1  A    between atoms: C2_2  and  C3_3 
REMARK    2  A    between atoms: C9_10  and  C10_11 
REMARK    3  A    between atoms: C10_11  and  C11_12 
REMARK    4  A    between atoms: C11_12  and  O2_14 
ROOT
HETATM    1  C3  UNL     1      66.513  37.599  23.624  1.00  0.00     0.075 C 
HETATM    2  C4  UNL     1      67.679  38.330  24.291  1.00  0.00     0.050 C 
HETATM    3  C5  UNL     1      65.249  38.072  24.312  1.00  0.00     0.045 C 
HETATM    4  C6  UNL     1      65.229  37.081  25.486  1.00  0.00     0.044 C 
HETATM    5  C7  UNL     1      65.769  35.849  24.803  1.00  0.00     0.086 C 
HETATM    6  C8  UNL     1      64.560  35.065  24.299  1.00  0.00     0.206 C 
HETATM    7  O1  UNL     1      64.108  34.500  25.510  1.00  0.00    -0.383 OA
HETATM    8  C9  UNL     1      65.276  33.855  25.936  1.00  0.00     0.127 C 
HETATM    9  C13 UNL     1      66.374  34.898  25.790  1.00  0.00     0.072 C 
HETATM   10  O3  UNL     1      66.605  36.244  23.798  1.00  0.00    -0.363 OA
ENDROOT
BRANCH   8  11
HETATM   11  C10 UNL     1      65.190  33.461  27.388  1.00  0.00     0.063 C 
BRANCH  11  12
HETATM   12  C11 UNL     1      63.929  32.723  27.711  1.00  0.00     0.116 C 
HETATM   13  C12 UNL     1      64.012  32.087  29.072  1.00  0.00     0.039 C 
BRANCH  12  14
HETATM   14  O2  UNL     1      62.880  33.654  27.690  1.00  0.00    -0.396 OA
ATOM     15  H2  UNL     1      62.127  33.244  28.098  1.00  0.00     0.210 HD
ENDBRANCH  12  14
ENDBRANCH  11  12
ENDBRANCH   8  11
BRANCH   1  16
HETATM   16  C2  UNL     1      66.495  38.003  22.190  1.00  0.00     0.000 C 
HETATM   17  C1  UNL     1      67.518  37.874  21.385  1.00  0.00     0.010 C 
ENDBRANCH   1  16
TORSDOF 4
ENDMDL
MODEL 2
REMARK VINA RESULT: -6.324974927      1.183      1.662
REMARK  4 active torsions:
REMARK  status: ('A' for Active; 'I' for Inactive)
REMARK    1  A    between atoms: C2_2  and  C3_3 
REMARK    2  A    between atoms: C9_10  and  C10_11 
REMARK    3  A    between atoms: C10_11  and  C11_12 
REMARK    4  A    between atoms: C11_12  and  O2_14 
ROOT
HETATM    1  C3  UNL     1      66.092  37.806  24.108  1.00  0.00     0.075 C 
HETATM    2  C4  UNL     1      64.984  38.861  24.079  1.00  0.00     0.050 C 
HETATM    3  C5  UNL     1      65.759  36.794  23.031  1.00  0.00     0.045 C 
HETATM    4  C6  UNL     1      64.831  35.877  23.843  1.00  0.00     0.044 C 
HETATM    5  C7  UNL     1      65.510  35.936  25.188  1.00  0.00     0.086 C 
HETATM    6  C8  UNL     1      66.487  34.764  25.236  1.00  0.00     0.206 C 
HETATM    7  O1  UNL     1      65.587  33.700  25.458  1.00  0.00    -0.383 OA
HETATM    8  C9  UNL     1      64.936  34.160  26.609  1.00  0.00     0.127 C 
HETATM    9  C13 UNL     1      64.558  35.600  26.296  1.00  0.00     0.072 C 
HETATM   10  O3  UNL     1      66.127  37.149  25.308  1.00  0.00    -0.363 OA
ENDROOT
BRANCH   8  11
HETATM   11  C10 UNL     1      63.669  33.387  26.872  1.00  0.00     0.063 C 
BRANCH  11  12
HETATM   12  C11 UNL     1      63.772  32.504  28.076  1.00  0.00     0.116 C 
HETATM   13  C12 UNL     1      65.204  32.352  28.510  1.00  0.00     0.039 C 
BRANCH  12  14
HETATM   14  O2  UNL     1      63.030  33.106  29.103  1.00  0.00    -0.396 OA
ATOM     15  H2  UNL     1      62.176  32.689  29.119  1.00  0.00     0.210 HD
ENDBRANCH  12  14
ENDBRANCH  11  12
ENDBRANCH   8  11
BRANCH   1  16
HETATM   16  C2  UNL     1      67.371  38.495  23.782  1.00  0.00     0.000 C 
HETATM   17  C1  UNL     1      67.848  38.612  22.570  1.00  0.00     0.010 C 
ENDBRANCH   1  16
TORSDOF 4
ENDMDL
MODEL 3
REMARK VINA RESULT: -6.312493488      1.294      1.524
REMARK  4 active torsions:
REMARK  status: ('A' for Active; 'I' for Inactive)
REMARK    1  A    between atoms: C2_2  and  C3_3 
REMARK    2  A    between atoms: C9_10  and  C10_11 
REMARK    3  A    between atoms: C10_11  and  C11_12 
REMARK    4  A    between atoms: C11_12  and  O2_14 
ROOT
HETATM    1  C3  UNL     1      66.793  37.788  23.951  1.00  0.00     0.075 C 
HETATM    2  C4  UNL     1      67.750  38.530  24.886  1.00  0.00     0.050 C 
HETATM    3  C5  UNL     1      65.388  38.158  24.381  1.00  0.00     0.045 C 
HETATM    4  C6  UNL     1      65.184  37.096  25.473  1.00  0.00     0.044 C 
HETATM    5  C7  UNL     1      65.925  35.936  24.857  1.00  0.00     0.086 C 
HETATM    6  C8  UNL     1      64.896  35.128  24.071  1.00  0.00     0.206 C 
HETATM    7  O1  UNL     1      64.236  34.468  25.130  1.00  0.00    -0.383 OA
HETATM    8  C9  UNL     1      65.326  33.854  25.758  1.00  0.00     0.127 C 
HETATM    9  C13 UNL     1      66.367  34.954  25.900  1.00  0.00     0.072 C 
HETATM   10  O3  UNL     1      66.927  36.431  24.072  1.00  0.00    -0.363 OA
ENDROOT
BRANCH   8  11
HETATM   11  C10 UNL     1      64.964  33.367  27.137  1.00  0.00     0.063 C 
BRANCH  11  12
HETATM   12  C11 UNL     1      65.779  32.186  27.563  1.00  0.00     0.116 C 
HETATM   13  C12 UNL     1      66.548  31.616  26.403  1.00  0.00     0.039 C 
BRANCH  12  14
HETATM   14  O2  UNL     1      66.674  32.627  28.550  1.00  0.00    -0.396 OA
ATOM     15  H2  UNL     1      67.552  32.542  28.197  1.00  0.00     0.210 HD
ENDBRANCH  12  14
ENDBRANCH  11  12
ENDBRANCH   8  11
BRANCH   1  16
HETATM   16  C2  UNL     1      67.049  38.279  22.569  1.00  0.00     0.000 C 
HETATM   17  C1  UNL     1      66.304  37.975  21.538  1.00  0.00     0.010 C 
ENDBRANCH   1  16
TORSDOF 4
ENDMDL
MODEL 4
REMARK VINA RESULT: -6.140860819      1.977      6.257
REMARK  4 active torsions:
REMARK  status: ('A' for Active; 'I' for Inactive)
REMARK    1  A    between atoms: C2_2  and  C3_3 
REMARK    2  A    between atoms: C9_10  and  C10_11 
REMARK    3  A    between atoms: C10_11  and  C11_12 
REMARK    4  A    between atoms: C11_12  and  O2_14 
ROOT
HETATM    1  C3  UNL     1      65.255  35.047  25.740  1.00  0.00     0.075 C 
HETATM    2  C4  UNL     1      63.744  34.859  25.895  1.00  0.00     0.050 C 
HETATM    3  C5  UNL     1      65.606  36.347  26.433  1.00  0.00     0.045 C 
HETATM    4  C6  UNL     1      65.343  37.317  25.271  1.00  0.00     0.044 C 
HETATM    5  C7  UNL     1      65.811  36.475  24.111  1.00  0.00     0.086 C 
HETATM    6  C8  UNL     1      67.280  36.820  23.885  1.00  0.00     0.206 C 
HETATM    7  O1  UNL     1      67.147  38.071  23.247  1.00  0.00    -0.383 OA
HETATM    8  C9  UNL     1      66.304  37.721  22.185  1.00  0.00     0.127 C 
HETATM    9  C13 UNL     1      65.181  36.918  22.824  1.00  0.00     0.072 C 
HETATM   10  O3  UNL     1      65.613  35.160  24.424  1.00  0.00    -0.363 OA
ENDROOT
BRANCH   8  11
HETATM   11  C10 UNL     1      65.702  38.938  21.534  1.00  0.00     0.063 C 
BRANCH  11  12
HETATM   12  C11 UNL     1      66.147  39.114  20.115  1.00  0.00     0.116 C 
HETATM   13  C12 UNL     1      67.590  39.535  20.053  1.00  0.00     0.039 C 
BRANCH  12  14
HETATM   14  O2  UNL     1      65.989  37.878  19.470  1.00  0.00    -0.396 OA
ATOM     15  H2  UNL     1      66.733  37.337  19.704  1.00  0.00     0.210 HD
ENDBRANCH  12  14
ENDBRANCH  11  12
ENDBRANCH   8  11
BRANCH   1  16
HETATM   16  C2  UNL     1      65.918  33.905  26.429  1.00  0.00     0.000 C 
HETATM   17  C1  UNL     1      67.198  33.648  26.346  1.00  0.00     0.010 C 
ENDBRANCH   1  16
TORSDOF 4
ENDMDL
MODEL 5
REMARK VINA RESULT: -5.986106485      2.269      3.171
REMARK  4 active torsions:
REMARK  status: ('A' for Active; 'I' for Inactive)
REMARK    1  A    between atoms: C2_2  and  C3_3 
REMARK    2  A    between atoms: C9_10  and  C10_11 
REMARK    3  A    between atoms: C10_11  and  C11_12 
REMARK    4  A    between atoms: C11_12  and  O2_14 
ROOT
HETATM    1  C3  UNL     1      66.067  38.848  25.389  1.00  0.00     0.075 C 
HETATM    2  C4  UNL     1      64.942  39.171  24.405  1.00  0.00     0.050 C 
HETATM    3  C5  UNL     1      67.193  38.238  24.580  1.00  0.00     0.045 C 
HETATM    4  C6  UNL     1      66.730  36.772  24.591  1.00  0.00     0.044 C 
HETATM    5  C7  UNL     1      66.141  36.690  25.977  1.00  0.00     0.086 C 
HETATM    6  C8  UNL     1      67.256  36.201  26.897  1.00  0.00     0.206 C 
HETATM    7  O1  UNL     1      67.278  34.833  26.555  1.00  0.00    -0.383 OA
HETATM    8  C9  UNL     1      65.939  34.496  26.783  1.00  0.00     0.127 C 
HETATM    9  C13 UNL     1      65.137  35.581  26.079  1.00  0.00     0.072 C 
HETATM   10  O3  UNL     1      65.669  37.926  26.320  1.00  0.00    -0.363 OA
ENDROOT
BRANCH   8  11
HETATM   11  C10 UNL     1      65.588  33.171  26.157  1.00  0.00     0.063 C 
BRANCH  11  12
HETATM   12  C11 UNL     1      66.042  32.007  26.981  1.00  0.00     0.116 C 
HETATM   13  C12 UNL     1      67.091  31.210  26.255  1.00  0.00     0.039 C 
BRANCH  12  14
HETATM   14  O2  UNL     1      66.578  32.518  28.172  1.00  0.00    -0.396 OA
ATOM     15  H2  UNL     1      67.300  33.089  27.936  1.00  0.00     0.210 HD
ENDBRANCH  12  14
ENDBRANCH  11  12
ENDBRANCH   8  11
BRANCH   1  16
HETATM   16  C2  UNL     1      66.513  40.133  25.996  1.00  0.00     0.000 C 
HETATM   17  C1  UNL     1      67.157  40.218  27.131  1.00  0.00     0.010 C 
ENDBRANCH   1  16
TORSDOF 4
ENDMDL
