MODEL 1
REMARK VINA RESULT: -6.615717888      0.000      0.000
REMARK  5 active torsions:
REMARK  status: ('A' for Active; 'I' for Inactive)
REMARK    1  A    between atoms: N1_2  and  S1_4 
REMARK    2  A    between atoms: S1_4  and  N2_7 
REMARK    3  A    between atoms: N2_7  and  C3_9 
REMARK    4  A    between atoms: C5_14  and  C6_15 
REMARK       I    between atoms: N6_18  and  C7_19 
REMARK       I    between atoms: C7_19  and  N7_20 
REMARK       I    between atoms: C7_19  and  N8_24 
REMARK    5  A    between atoms: C8_28  and  O4_29 
ROOT
HETATM    1  C3  UNL     1      12.365   7.445  26.860  1.00  0.00     0.223 C 
HETATM    2  N3  UNL     1      11.909   7.938  28.173  1.00  0.00    -0.355 N 
ATOM      3  H3  UNL     1      11.212   7.405  28.693  1.00  0.00     0.162 HD
HETATM    4  C4  UNL     1      12.420   9.135  28.728  1.00  0.00     0.145 C 
HETATM    5  N4  UNL     1      11.704   9.668  29.859  1.00  0.00    -0.080 NA
HETATM    6  C5  UNL     1      13.512   9.770  28.249  1.00  0.00     0.142 C 
HETATM    7  N6  UNL     1      14.110   9.143  27.124  1.00  0.00    -0.294 N 
HETATM    8  C7  UNL     1      15.013   9.841  26.245  1.00  0.00     0.485 C 
HETATM    9  N7  UNL     1      16.304   9.971  26.839  1.00  0.00    -0.033 N 
ATOM     10  H71 UNL     1      16.943  10.466  26.217  1.00  0.00     0.278 HD
ATOM     11  H72 UNL     1      16.680   9.067  27.124  1.00  0.00     0.278 HD
ATOM     12  H73 UNL     1      16.254  10.414  27.757  1.00  0.00     0.278 HD
HETATM   13  N8  UNL     1      14.468  11.076  25.710  1.00  0.00    -0.033 N 
ATOM     14  H81 UNL     1      15.107  11.571  25.088  1.00  0.00     0.278 HD
ATOM     15  H82 UNL     1      14.154  11.688  26.464  1.00  0.00     0.278 HD
ATOM     16  H83 UNL     1      13.576  10.904  25.246  1.00  0.00     0.278 HD
HETATM   17  C8  UNL     1      13.849   7.723  26.818  1.00  0.00     0.262 C 
ENDROOT
BRANCH   6  18
HETATM   18  C6  UNL     1      13.954  10.981  28.878  1.00  0.00     0.284 C 
HETATM   19  N5  UNL     1      15.026  10.918  29.813  1.00  0.00    -0.056 NA
HETATM   20  O3  UNL     1      13.483  12.101  28.682  1.00  0.00    -0.269 OA
ENDBRANCH   6  18
BRANCH  17  21
HETATM   21  O4  UNL     1      14.557   7.023  27.790  1.00  0.00    -0.373 OA
ATOM     22  H4  UNL     1      15.134   7.581  28.297  1.00  0.00     0.212 HD
ENDBRANCH  17  21
BRANCH   1  23
HETATM   23  N2  UNL     1      12.022   6.098  26.660  1.00  0.00    -0.171 NA
HETATM   24  C2  UNL     1      12.341   5.504  25.417  1.00  0.00     0.133 C 
BRANCH  23  25
HETATM   25  S1  UNL     1      10.389   5.706  27.024  1.00  0.00     0.300 S 
HETATM   26  O1  UNL     1      10.327   5.321  28.476  1.00  0.00    -0.188 OA
HETATM   27  O2  UNL     1       9.449   6.843  26.829  1.00  0.00    -0.188 OA
BRANCH  25  28
HETATM   28  N1  UNL     1       9.805   4.380  26.095  1.00  0.00    -0.311 N 
HETATM   29  C1  UNL     1       8.465   4.602  25.605  1.00  0.00     0.160 C 
ATOM     30  H1  UNL     1      10.343   3.533  25.911  1.00  0.00     0.172 HD
ENDBRANCH  25  28
ENDBRANCH  23  25
ENDBRANCH   1  23
TORSDOF 5
ENDMDL
MODEL 2
REMARK VINA RESULT: -6.508259841      2.137      6.556
REMARK  5 active torsions:
REMARK  status: ('A' for Active; 'I' for Inactive)
REMARK    1  A    between atoms: N1_2  and  S1_4 
REMARK    2  A    between atoms: S1_4  and  N2_7 
REMARK    3  A    between atoms: N2_7  and  C3_9 
REMARK    4  A    between atoms: C5_14  and  C6_15 
REMARK       I    between atoms: N6_18  and  C7_19 
REMARK       I    between atoms: C7_19  and  N7_20 
REMARK       I    between atoms: C7_19  and  N8_24 
REMARK    5  A    between atoms: C8_28  and  O4_29 
ROOT
HETATM    1  C3  UNL     1      11.679   7.236  27.447  1.00  0.00     0.223 C 
HETATM    2  N3  UNL     1      12.416   6.030  27.026  1.00  0.00    -0.355 N 
ATOM      3  H3  UNL     1      13.358   5.870  27.383  1.00  0.00     0.162 HD
HETATM    4  C4  UNL     1      11.844   5.091  26.137  1.00  0.00     0.145 C 
HETATM    5  N4  UNL     1      12.745   4.120  25.572  1.00  0.00    -0.080 NA
HETATM    6  C5  UNL     1      10.533   5.077  25.813  1.00  0.00     0.142 C 
HETATM    7  N6  UNL     1       9.763   6.099  26.431  1.00  0.00    -0.294 N 
HETATM    8  C7  UNL     1       8.472   6.496  25.931  1.00  0.00     0.485 C 
HETATM    9  N7  UNL     1       7.470   5.546  26.294  1.00  0.00    -0.033 N 
ATOM     10  H71 UNL     1       6.556   5.827  25.940  1.00  0.00     0.278 HD
ATOM     11  H72 UNL     1       7.452   5.384  27.300  1.00  0.00     0.278 HD
ATOM     12  H73 UNL     1       7.718   4.604  25.990  1.00  0.00     0.278 HD
HETATM   13  N8  UNL     1       8.476   6.862  24.526  1.00  0.00    -0.033 N 
ATOM     14  H81 UNL     1       7.562   7.143  24.173  1.00  0.00     0.278 HD
ATOM     15  H82 UNL     1       8.864   6.108  23.959  1.00  0.00     0.278 HD
ATOM     16  H83 UNL     1       9.170   7.587  24.346  1.00  0.00     0.278 HD
HETATM   17  C8  UNL     1      10.249   6.788  27.642  1.00  0.00     0.262 C 
ENDROOT
BRANCH   6  18
HETATM   18  C6  UNL     1      10.044   4.084  24.899  1.00  0.00     0.284 C 
HETATM   19  N5  UNL     1       9.436   2.909  25.423  1.00  0.00    -0.056 NA
HETATM   20  O3  UNL     1      10.101   4.153  23.672  1.00  0.00    -0.269 OA
ENDBRANCH   6  18
BRANCH  17  21
HETATM   21  O4  UNL     1      10.113   5.845  28.655  1.00  0.00    -0.373 OA
ATOM     22  H4  UNL     1       9.645   5.068  28.374  1.00  0.00     0.212 HD
ENDBRANCH  17  21
BRANCH   1  23
HETATM   23  N2  UNL     1      12.258   7.833  28.580  1.00  0.00    -0.171 NA
HETATM   24  C2  UNL     1      11.515   8.822  29.267  1.00  0.00     0.133 C 
BRANCH  23  25
HETATM   25  S1  UNL     1      13.847   8.441  28.343  1.00  0.00     0.300 S 
HETATM   26  O1  UNL     1      14.389   8.832  29.690  1.00  0.00    -0.188 OA
HETATM   27  O2  UNL     1      14.785   7.441  27.763  1.00  0.00    -0.188 OA
BRANCH  25  28
HETATM   28  N1  UNL     1      13.878   9.834  27.331  1.00  0.00    -0.311 N 
HETATM   29  C1  UNL     1      14.315   9.527  25.990  1.00  0.00     0.160 C 
ATOM     30  H1  UNL     1      13.618  10.769  27.643  1.00  0.00     0.172 HD
ENDBRANCH  25  28
ENDBRANCH  23  25
ENDBRANCH   1  23
TORSDOF 5
ENDMDL
MODEL 3
REMARK VINA RESULT: -6.484162907      4.290      6.271
REMARK  5 active torsions:
REMARK  status: ('A' for Active; 'I' for Inactive)
REMARK    1  A    between atoms: N1_2  and  S1_4 
REMARK    2  A    between atoms: S1_4  and  N2_7 
REMARK    3  A    between atoms: N2_7  and  C3_9 
REMARK    4  A    between atoms: C5_14  and  C6_15 
REMARK       I    between atoms: N6_18  and  C7_19 
REMARK       I    between atoms: C7_19  and  N7_20 
REMARK       I    between atoms: C7_19  and  N8_24 
REMARK    5  A    between atoms: C8_28  and  O4_29 
ROOT
HETATM    1  C3  UNL     1       9.747   5.583  22.938  1.00  0.00     0.223 C 
HETATM    2  N3  UNL     1       8.700   5.249  23.921  1.00  0.00    -0.355 N 
ATOM      3  H3  UNL     1       7.744   5.095  23.599  1.00  0.00     0.162 HD
HETATM    4  C4  UNL     1       8.993   5.137  25.300  1.00  0.00     0.145 C 
HETATM    5  N4  UNL     1       7.860   5.098  26.189  1.00  0.00    -0.080 NA
HETATM    6  C5  UNL     1      10.249   5.071  25.790  1.00  0.00     0.142 C 
HETATM    7  N6  UNL     1      11.270   5.135  24.804  1.00  0.00    -0.294 N 
HETATM    8  C7  UNL     1      12.632   5.472  25.128  1.00  0.00     0.485 C 
HETATM    9  N7  UNL     1      13.303   4.362  25.725  1.00  0.00    -0.033 N 
ATOM     10  H71 UNL     1      14.267   4.600  25.955  1.00  0.00     0.278 HD
ATOM     11  H72 UNL     1      13.250   3.530  25.139  1.00  0.00     0.278 HD
ATOM     12  H73 UNL     1      12.797   4.011  26.539  1.00  0.00     0.278 HD
HETATM   13  N8  UNL     1      12.768   6.721  25.855  1.00  0.00    -0.033 N 
ATOM     14  H81 UNL     1      13.733   6.959  26.085  1.00  0.00     0.278 HD
ATOM     15  H82 UNL     1      12.190   6.714  26.695  1.00  0.00     0.278 HD
ATOM     16  H83 UNL     1      12.321   7.484  25.346  1.00  0.00     0.278 HD
HETATM   17  C8  UNL     1      10.978   4.832  23.389  1.00  0.00     0.262 C 
ENDROOT
BRANCH   6  18
HETATM   18  C6  UNL     1      10.448   4.961  27.207  1.00  0.00     0.284 C 
HETATM   19  N5  UNL     1      10.688   3.675  27.768  1.00  0.00    -0.056 NA
HETATM   20  O3  UNL     1      10.430   5.896  28.006  1.00  0.00    -0.269 OA
ENDBRANCH   6  18
BRANCH  17  21
HETATM   21  O4  UNL     1      10.809   3.451  23.359  1.00  0.00    -0.373 OA
ATOM     22  H4  UNL     1      11.540   2.983  23.742  1.00  0.00     0.212 HD
ENDBRANCH  17  21
BRANCH   1  23
HETATM   23  N2  UNL     1       9.342   5.295  21.624  1.00  0.00    -0.171 NA
HETATM   24  C2  UNL     1      10.322   5.308  20.604  1.00  0.00     0.133 C 
BRANCH  23  25
HETATM   25  S1  UNL     1       7.995   6.204  21.068  1.00  0.00     0.300 S 
HETATM   26  O1  UNL     1       7.783   7.338  22.032  1.00  0.00    -0.188 OA
HETATM   27  O2  UNL     1       8.199   6.803  19.720  1.00  0.00    -0.188 OA
BRANCH  25  28
HETATM   28  N1  UNL     1       6.548   5.273  21.011  1.00  0.00    -0.311 N 
HETATM   29  C1  UNL     1       6.810   3.854  20.967  1.00  0.00     0.160 C 
ATOM     30  H1  UNL     1       5.612   5.677  21.009  1.00  0.00     0.172 HD
ENDBRANCH  25  28
ENDBRANCH  23  25
ENDBRANCH   1  23
TORSDOF 5
ENDMDL
MODEL 4
REMARK VINA RESULT: -6.441813928      1.222      1.333
REMARK  5 active torsions:
REMARK  status: ('A' for Active; 'I' for Inactive)
REMARK    1  A    between atoms: N1_2  and  S1_4 
REMARK    2  A    between atoms: S1_4  and  N2_7 
REMARK    3  A    between atoms: N2_7  and  C3_9 
REMARK    4  A    between atoms: C5_14  and  C6_15 
REMARK       I    between atoms: N6_18  and  C7_19 
REMARK       I    between atoms: C7_19  and  N7_20 
REMARK       I    between atoms: C7_19  and  N8_24 
REMARK    5  A    between atoms: C8_28  and  O4_29 
ROOT
HETATM    1  C3  UNL     1      12.546   7.503  26.713  1.00  0.00     0.223 C 
HETATM    2  N3  UNL     1      12.028   7.920  28.029  1.00  0.00    -0.355 N 
ATOM      3  H3  UNL     1      11.330   7.342  28.497  1.00  0.00     0.162 HD
HETATM    4  C4  UNL     1      12.480   9.104  28.657  1.00  0.00     0.145 C 
HETATM    5  N4  UNL     1      11.707   9.562  29.783  1.00  0.00    -0.080 NA
HETATM    6  C5  UNL     1      13.568   9.793  28.249  1.00  0.00     0.142 C 
HETATM    7  N6  UNL     1      14.226   9.238  27.120  1.00  0.00    -0.294 N 
HETATM    8  C7  UNL     1      15.137  10.004  26.308  1.00  0.00     0.485 C 
HETATM    9  N7  UNL     1      16.401  10.144  26.955  1.00  0.00    -0.033 N 
ATOM     10  H71 UNL     1      17.046  10.686  26.381  1.00  0.00     0.278 HD
ATOM     11  H72 UNL     1      16.795   9.239  27.212  1.00  0.00     0.278 HD
ATOM     12  H73 UNL     1      16.304  10.541  27.889  1.00  0.00     0.278 HD
HETATM   13  N8  UNL     1      14.573  11.245  25.810  1.00  0.00    -0.033 N 
ATOM     14  H81 UNL     1      15.218  11.787  25.235  1.00  0.00     0.278 HD
ATOM     15  H82 UNL     1      14.213  11.811  26.578  1.00  0.00     0.278 HD
ATOM     16  H83 UNL     1      13.704  11.068  25.306  1.00  0.00     0.278 HD
HETATM   17  C8  UNL     1      14.021   7.826  26.739  1.00  0.00     0.262 C 
ENDROOT
BRANCH   6  18
HETATM   18  C6  UNL     1      13.949  10.987  28.949  1.00  0.00     0.284 C 
HETATM   19  N5  UNL     1      14.988  10.912  29.918  1.00  0.00    -0.056 NA
HETATM   20  O3  UNL     1      13.449  12.099  28.788  1.00  0.00    -0.269 OA
ENDBRANCH   6  18
BRANCH  17  21
HETATM   21  O4  UNL     1      14.715   7.104  27.704  1.00  0.00    -0.373 OA
ATOM     22  H4  UNL     1      14.889   7.610  28.489  1.00  0.00     0.212 HD
ENDBRANCH  17  21
BRANCH   1  23
HETATM   23  N2  UNL     1      12.253   6.157  26.439  1.00  0.00    -0.171 NA
HETATM   24  C2  UNL     1      11.492   5.860  25.285  1.00  0.00     0.133 C 
BRANCH  23  25
HETATM   25  S1  UNL     1      11.575   5.283  27.753  1.00  0.00     0.300 S 
HETATM   26  O1  UNL     1      12.557   5.337  28.890  1.00  0.00    -0.188 OA
HETATM   27  O2  UNL     1      10.294   5.857  28.249  1.00  0.00    -0.188 OA
BRANCH  25  28
HETATM   28  N1  UNL     1      11.291   3.628  27.370  1.00  0.00    -0.311 N 
HETATM   29  C1  UNL     1      11.410   2.770  28.525  1.00  0.00     0.160 C 
ATOM     30  H1  UNL     1      11.065   3.292  26.435  1.00  0.00     0.172 HD
ENDBRANCH  25  28
ENDBRANCH  23  25
ENDBRANCH   1  23
TORSDOF 5
ENDMDL
MODEL 5
REMARK VINA RESULT: -6.375346889      5.167      6.316
REMARK  5 active torsions:
REMARK  status: ('A' for Active; 'I' for Inactive)
REMARK    1  A    between atoms: N1_2  and  S1_4 
REMARK    2  A    between atoms: S1_4  and  N2_7 
REMARK    3  A    between atoms: N2_7  and  C3_9 
REMARK    4  A    between atoms: C5_14  and  C6_15 
REMARK       I    between atoms: N6_18  and  C7_19 
REMARK       I    between atoms: C7_19  and  N7_20 
REMARK       I    between atoms: C7_19  and  N8_24 
REMARK    5  A    between atoms: C8_28  and  O4_29 
ROOT
HETATM    1  C3  UNL     1      11.007   4.229  23.912  1.00  0.00     0.223 C 
HETATM    2  N3  UNL     1       9.939   4.590  24.862  1.00  0.00    -0.355 N 
ATOM      3  H3  UNL     1       9.031   4.888  24.504  1.00  0.00     0.162 HD
HETATM    4  C4  UNL     1      10.146   4.533  26.260  1.00  0.00     0.145 C 
HETATM    5  N4  UNL     1       9.150   5.176  27.078  1.00  0.00    -0.080 NA
HETATM    6  C5  UNL     1      11.206   3.919  26.830  1.00  0.00     0.142 C 
HETATM    7  N6  UNL     1      12.116   3.339  25.906  1.00  0.00    -0.294 N 
HETATM    8  C7  UNL     1      13.468   2.997  26.270  1.00  0.00     0.485 C 
HETATM    9  N7  UNL     1      13.500   1.792  27.034  1.00  0.00    -0.033 N 
ATOM     10  H71 UNL     1      14.456   1.550  27.292  1.00  0.00     0.278 HD
ATOM     11  H72 UNL     1      13.036   1.026  26.547  1.00  0.00     0.278 HD
ATOM     12  H73 UNL     1      12.892   1.848  27.851  1.00  0.00     0.278 HD
HETATM   13  N8  UNL     1      14.213   4.100  26.851  1.00  0.00    -0.033 N 
ATOM     14  H81 UNL     1      15.169   3.858  27.109  1.00  0.00     0.278 HD
ATOM     15  H82 UNL     1      13.713   4.491  27.650  1.00  0.00     0.278 HD
ATOM     16  H83 UNL     1      14.202   4.908  26.229  1.00  0.00     0.278 HD
HETATM   17  C8  UNL     1      11.703   3.035  24.522  1.00  0.00     0.262 C 
ENDROOT
BRANCH   6  18
HETATM   18  C6  UNL     1      11.333   3.914  28.259  1.00  0.00     0.284 C 
HETATM   19  N5  UNL     1      10.959   2.743  28.977  1.00  0.00    -0.056 NA
HETATM   20  O3  UNL     1      11.744   4.850  28.943  1.00  0.00    -0.269 OA
ENDBRANCH   6  18
BRANCH  17  21
HETATM   21  O4  UNL     1      10.868   1.929  24.646  1.00  0.00    -0.373 OA
ATOM     22  H4  UNL     1      11.081   1.389  25.397  1.00  0.00     0.212 HD
ENDBRANCH  17  21
BRANCH   1  23
HETATM   23  N2  UNL     1      10.504   4.008  22.619  1.00  0.00    -0.171 NA
HETATM   24  C2  UNL     1      11.426   3.908  21.551  1.00  0.00     0.133 C 
BRANCH  23  25
HETATM   25  S1  UNL     1       9.256   5.085  22.136  1.00  0.00     0.300 S 
HETATM   26  O1  UNL     1       7.964   4.567  22.703  1.00  0.00    -0.188 OA
HETATM   27  O2  UNL     1       9.438   6.471  22.646  1.00  0.00    -0.188 OA
BRANCH  25  28
HETATM   28  N1  UNL     1       9.089   5.177  20.424  1.00  0.00    -0.311 N 
HETATM   29  C1  UNL     1       8.085   6.133  20.022  1.00  0.00     0.160 C 
ATOM     30  H1  UNL     1       9.637   4.619  19.769  1.00  0.00     0.172 HD
ENDBRANCH  25  28
ENDBRANCH  23  25
ENDBRANCH   1  23
TORSDOF 5
ENDMDL
