MODEL 1
REMARK VINA RESULT: -8.916995359      0.000      0.000
REMARK  15 active torsions:
REMARK  status: ('A' for Active; 'I' for Inactive)
REMARK    1  A    between atoms: N1_2  and  C3_4 
REMARK    2  A    between atoms: N2_7  and  N3_8 
REMARK       I    between atoms: N3_8  and  C6_10 
REMARK    3  A    between atoms: C6_10  and  C7_12 
REMARK    4  A    between atoms: C10_17  and  N5_18 
REMARK    5  A    between atoms: C11_23  and  N7_24 
REMARK    6  A    between atoms: C13_30  and  C14_31 
REMARK    7  A    between atoms: C14_31  and  C15_32 
REMARK    8  A    between atoms: C15_32  and  C16_33 
REMARK    9  A    between atoms: C16_33  and  C17_34 
REMARK   10  A    between atoms: C17_34  and  C18_35 
REMARK   11  A    between atoms: C18_35  and  C19_36 
REMARK   12  A    between atoms: C19_36  and  C20_37 
REMARK   13  A    between atoms: C20_37  and  C21_38 
REMARK   14  A    between atoms: C21_38  and  C22_39 
REMARK   15  A    between atoms: C26_46  and  N11_47 
ROOT
HETATM    1  C22 UNL     1      -5.604  23.514 -15.549  1.00  0.00     0.029 A 
HETATM    2  C23 UNL     1      -6.953  23.346 -15.461  1.00  0.00     0.067 A 
HETATM    3  C24 UNL     1      -7.693  23.158 -16.608  1.00  0.00     0.131 A 
HETATM    4  C25 UNL     1      -9.110  22.975 -16.463  1.00  0.00     0.118 C 
HETATM    5  N9  UNL     1     -10.260  22.847 -16.346  1.00  0.00    -0.190 NA
HETATM    6  N10 UNL     1      -7.111  23.138 -17.814  1.00  0.00    -0.182 N 
ATOM      7  H10 UNL     1      -7.671  22.999 -18.654  1.00  0.00     0.185 HD
HETATM    8  C26 UNL     1      -5.788  23.304 -17.905  1.00  0.00     0.677 A 
HETATM    9  N12 UNL     1      -5.072  23.485 -16.802  1.00  0.00    -0.196 N 
ATOM     10  H12 UNL     1      -4.065  23.609 -16.899  1.00  0.00     0.184 HD
ENDROOT
BRANCH   1  11
HETATM   11  C21 UNL     1      -4.696  23.748 -14.410  1.00  0.00     0.057 C 
BRANCH  11  12
HETATM   12  C20 UNL     1      -4.047  22.491 -13.896  1.00  0.00     0.006 C 
BRANCH  12  13
HETATM   13  C19 UNL     1      -3.909  22.471 -12.382  1.00  0.00     0.000 C 
BRANCH  13  14
HETATM   14  C18 UNL     1      -5.194  22.800 -11.714  1.00  0.00     0.000 C 
BRANCH  14  15
HETATM   15  C17 UNL     1      -5.201  23.748 -10.610  1.00  0.00     0.000 C 
BRANCH  15  16
HETATM   16  C16 UNL     1      -4.115  24.662 -10.280  1.00  0.00     0.000 C 
BRANCH  16  17
HETATM   17  C15 UNL     1      -4.455  25.915  -9.579  1.00  0.00     0.002 C 
BRANCH  17  18
HETATM   18  C14 UNL     1      -5.626  26.619 -10.318  1.00  0.00     0.029 C 
BRANCH  18  19
HETATM   19  C13 UNL     1      -6.163  27.668  -9.435  1.00  0.00     0.135 C 
HETATM   20  C3  UNL     1      -6.048  29.070  -9.890  1.00  0.00     0.247 C 
HETATM   21  C4  UNL     1      -6.671  29.725  -8.625  1.00  0.00     0.059 C 
HETATM   22  C5  UNL     1      -7.883  28.776  -8.468  1.00  0.00     0.145 C 
HETATM   23  N2  UNL     1      -7.465  27.528  -8.966  1.00  0.00    -0.318 N 
BRANCH  20  24
HETATM   24  N1  UNL     1      -6.977  29.462 -10.918  1.00  0.00     0.086 N 
HETATM   25  C1  UNL     1      -7.060  30.895 -10.967  1.00  0.00     0.310 C 
HETATM   26  C2  UNL     1      -6.814  28.929 -12.204  1.00  0.00     0.310 C 
ENDBRANCH  20  24
BRANCH  23  27
HETATM   27  N3  UNL     1      -8.334  26.673  -9.514  1.00  0.00    -0.266 N 
HETATM   28  C6  UNL     1      -9.069  25.746  -8.705  1.00  0.00     0.286 C 
HETATM   29  O1  UNL     1      -8.904  25.739  -7.454  1.00  0.00    -0.264 OA
ATOM     30  H3  UNL     1      -8.477  26.680 -10.525  1.00  0.00     0.190 HD
BRANCH  28  31
HETATM   31  C7  UNL     1     -10.004  24.797  -9.289  1.00  0.00     0.105 A 
HETATM   32  C8  UNL     1     -11.314  24.557  -8.900  1.00  0.00     0.068 A 
HETATM   33  C9  UNL     1     -11.855  23.612  -9.740  1.00  0.00     0.082 A 
HETATM   34  N4  UNL     1     -13.068  23.024  -9.835  1.00  0.00    -0.190 N 
HETATM   35  C12 UNL     1     -10.879  23.267 -10.648  1.00  0.00     0.105 A 
HETATM   36  C10 UNL     1     -13.324  22.118 -10.793  1.00  0.00     0.678 A 
ATOM     37  H4  UNL     1     -13.800  23.271  -9.169  1.00  0.00     0.184 HD
HETATM   38  N6  UNL     1     -12.386  21.784 -11.669  1.00  0.00    -0.175 N 
HETATM   39  C11 UNL     1     -11.166  22.338 -11.618  1.00  0.00     0.144 A 
ATOM     40  H6  UNL     1     -12.595  21.095 -12.392  1.00  0.00     0.186 HD
HETATM   41  N8  UNL     1      -9.779  24.002 -10.342  1.00  0.00    -0.347 N 
ATOM     42  H8  UNL     1      -8.895  23.956 -10.848  1.00  0.00     0.166 HD
BRANCH  36  43
HETATM   43  N5  UNL     1     -14.519  21.593 -10.831  1.00  0.00    -0.234 N 
ATOM     44  H52 UNL     1     -14.994  21.276  -9.986  1.00  0.00     0.174 HD
ATOM     45  H51 UNL     1     -14.970  21.502 -11.742  1.00  0.00     0.174 HD
ENDBRANCH  36  43
BRANCH  39  46
HETATM   46  N7  UNL     1     -10.266  21.996 -12.478  1.00  0.00    -0.383 N 
ATOM     47  H72 UNL     1     -10.323  22.327 -13.441  1.00  0.00     0.157 HD
ATOM     48  H71 UNL     1      -9.493  21.394 -12.194  1.00  0.00     0.157 HD
ENDBRANCH  39  46
ENDBRANCH  28  31
ENDBRANCH  23  27
ENDBRANCH  18  19
ENDBRANCH  17  18
ENDBRANCH  16  17
ENDBRANCH  15  16
ENDBRANCH  14  15
ENDBRANCH  13  14
ENDBRANCH  12  13
ENDBRANCH  11  12
ENDBRANCH   1  11
BRANCH   8  49
HETATM   49  N11 UNL     1      -5.247  23.285 -19.082  1.00  0.00    -0.234 N 
ATOM     50 2H11 UNL     1      -4.942  22.419 -19.525  1.00  0.00     0.174 HD
ATOM     51 1H11 UNL     1      -5.126  24.171 -19.572  1.00  0.00     0.174 HD
ENDBRANCH   8  49
TORSDOF 15
ENDMDL
MODEL 2
REMARK VINA RESULT: -8.834386673      2.685      5.544
REMARK  15 active torsions:
REMARK  status: ('A' for Active; 'I' for Inactive)
REMARK    1  A    between atoms: N1_2  and  C3_4 
REMARK    2  A    between atoms: N2_7  and  N3_8 
REMARK       I    between atoms: N3_8  and  C6_10 
REMARK    3  A    between atoms: C6_10  and  C7_12 
REMARK    4  A    between atoms: C10_17  and  N5_18 
REMARK    5  A    between atoms: C11_23  and  N7_24 
REMARK    6  A    between atoms: C13_30  and  C14_31 
REMARK    7  A    between atoms: C14_31  and  C15_32 
REMARK    8  A    between atoms: C15_32  and  C16_33 
REMARK    9  A    between atoms: C16_33  and  C17_34 
REMARK   10  A    between atoms: C17_34  and  C18_35 
REMARK   11  A    between atoms: C18_35  and  C19_36 
REMARK   12  A    between atoms: C19_36  and  C20_37 
REMARK   13  A    between atoms: C20_37  and  C21_38 
REMARK   14  A    between atoms: C21_38  and  C22_39 
REMARK   15  A    between atoms: C26_46  and  N11_47 
ROOT
HETATM    1  C22 UNL     1      -5.489  22.870 -15.607  1.00  0.00     0.029 A 
HETATM    2  C23 UNL     1      -6.847  22.878 -15.500  1.00  0.00     0.067 A 
HETATM    3  C24 UNL     1      -7.618  23.067 -16.626  1.00  0.00     0.131 A 
HETATM    4  C25 UNL     1      -9.045  23.057 -16.464  1.00  0.00     0.118 C 
HETATM    5  N9  UNL     1     -10.201  23.068 -16.329  1.00  0.00    -0.190 NA
HETATM    6  N10 UNL     1      -7.058  23.247 -17.829  1.00  0.00    -0.182 N 
ATOM      7  H10 UNL     1      -7.641  23.387 -18.653  1.00  0.00     0.185 HD
HETATM    8  C26 UNL     1      -5.726  23.242 -17.938  1.00  0.00     0.677 A 
HETATM    9  N12 UNL     1      -4.981  23.058 -16.856  1.00  0.00    -0.196 N 
ATOM     10  H12 UNL     1      -3.967  23.059 -16.966  1.00  0.00     0.184 HD
ENDROOT
BRANCH   1  11
HETATM   11  C21 UNL     1      -4.545  22.703 -14.486  1.00  0.00     0.057 C 
BRANCH  11  12
HETATM   12  C20 UNL     1      -5.225  22.471 -13.163  1.00  0.00     0.006 C 
BRANCH  12  13
HETATM   13  C19 UNL     1      -4.366  22.877 -11.976  1.00  0.00     0.000 C 
BRANCH  13  14
HETATM   14  C18 UNL     1      -4.921  24.070 -11.286  1.00  0.00     0.000 C 
BRANCH  14  15
HETATM   15  C17 UNL     1      -5.407  25.190 -12.078  1.00  0.00     0.000 C 
BRANCH  15  16
HETATM   16  C16 UNL     1      -6.760  25.729 -12.030  1.00  0.00     0.000 C 
BRANCH  16  17
HETATM   17  C15 UNL     1      -7.705  25.320 -13.086  1.00  0.00     0.002 C 
BRANCH  17  18
HETATM   18  C14 UNL     1      -8.719  24.297 -12.505  1.00  0.00     0.029 C 
BRANCH  18  19
HETATM   19  C13 UNL     1     -10.036  24.951 -12.418  1.00  0.00     0.135 C 
HETATM   20  C3  UNL     1     -11.214  24.182 -12.874  1.00  0.00     0.247 C 
HETATM   21  C4  UNL     1     -12.265  25.303 -12.642  1.00  0.00     0.059 C 
HETATM   22  C5  UNL     1     -11.792  25.752 -11.239  1.00  0.00     0.145 C 
HETATM   23  N2  UNL     1     -10.405  25.525 -11.206  1.00  0.00    -0.318 N 
BRANCH  20  24
HETATM   24  N1  UNL     1     -11.666  23.156 -11.972  1.00  0.00     0.086 N 
HETATM   25  C1  UNL     1     -13.099  23.076 -12.017  1.00  0.00     0.310 C 
HETATM   26  C2  UNL     1     -11.093  21.880 -12.070  1.00  0.00     0.310 C 
ENDBRANCH  20  24
BRANCH  23  27
HETATM   27  N3  UNL     1      -9.773  25.244 -10.061  1.00  0.00    -0.266 N 
HETATM   28  C6  UNL     1      -8.990  26.237  -9.387  1.00  0.00     0.286 C 
HETATM   29  O1  UNL     1      -8.898  27.398  -9.872  1.00  0.00    -0.264 OA
ATOM     30  H3  UNL     1      -9.851  24.309  -9.661  1.00  0.00     0.190 HD
BRANCH  28  31
HETATM   31  C7  UNL     1      -8.282  25.942  -8.151  1.00  0.00     0.105 A 
HETATM   32  C8  UNL     1      -7.279  26.691  -7.554  1.00  0.00     0.068 A 
HETATM   33  C9  UNL     1      -6.913  26.079  -6.380  1.00  0.00     0.082 A 
HETATM   34  N4  UNL     1      -6.017  26.366  -5.409  1.00  0.00    -0.190 N 
HETATM   35  C12 UNL     1      -7.691  24.949  -6.248  1.00  0.00     0.105 A 
HETATM   36  C10 UNL     1      -5.882  25.571  -4.335  1.00  0.00     0.678 A 
ATOM     37  H4  UNL     1      -5.436  27.200  -5.493  1.00  0.00     0.184 HD
HETATM   38  N6  UNL     1      -6.629  24.483  -4.207  1.00  0.00    -0.175 N 
HETATM   39  C11 UNL     1      -7.533  24.153  -5.141  1.00  0.00     0.144 A 
ATOM     40  H6  UNL     1      -6.516  23.889  -3.385  1.00  0.00     0.186 HD
HETATM   41  N8  UNL     1      -8.502  24.903  -7.336  1.00  0.00    -0.347 N 
ATOM     42  H8  UNL     1      -9.190  24.171  -7.511  1.00  0.00     0.166 HD
BRANCH  36  43
HETATM   43  N5  UNL     1      -5.002  25.911  -3.433  1.00  0.00    -0.234 N 
ATOM     44  H52 UNL     1      -4.045  26.161  -3.682  1.00  0.00     0.174 HD
ATOM     45  H51 UNL     1      -5.298  25.915  -2.456  1.00  0.00     0.174 HD
ENDBRANCH  36  43
BRANCH  39  46
HETATM   46  N7  UNL     1      -8.247  23.088  -4.998  1.00  0.00    -0.383 N 
ATOM     47  H72 UNL     1      -8.524  22.775  -4.067  1.00  0.00     0.157 HD
ATOM     48  H71 UNL     1      -8.540  22.557  -5.819  1.00  0.00     0.157 HD
ENDBRANCH  39  46
ENDBRANCH  28  31
ENDBRANCH  23  27
ENDBRANCH  18  19
ENDBRANCH  17  18
ENDBRANCH  16  17
ENDBRANCH  15  16
ENDBRANCH  14  15
ENDBRANCH  13  14
ENDBRANCH  12  13
ENDBRANCH  11  12
ENDBRANCH   1  11
BRANCH   8  49
HETATM   49  N11 UNL     1      -5.207  23.421 -19.111  1.00  0.00    -0.234 N 
ATOM     50 2H11 UNL     1      -5.295  22.730 -19.855  1.00  0.00     0.174 HD
ATOM     51 1H11 UNL     1      -4.693  24.286 -19.285  1.00  0.00     0.174 HD
ENDBRANCH   8  49
TORSDOF 15
ENDMDL
MODEL 3
REMARK VINA RESULT: -8.782281360      1.429      2.200
REMARK  15 active torsions:
REMARK  status: ('A' for Active; 'I' for Inactive)
REMARK    1  A    between atoms: N1_2  and  C3_4 
REMARK    2  A    between atoms: N2_7  and  N3_8 
REMARK       I    between atoms: N3_8  and  C6_10 
REMARK    3  A    between atoms: C6_10  and  C7_12 
REMARK    4  A    between atoms: C10_17  and  N5_18 
REMARK    5  A    between atoms: C11_23  and  N7_24 
REMARK    6  A    between atoms: C13_30  and  C14_31 
REMARK    7  A    between atoms: C14_31  and  C15_32 
REMARK    8  A    between atoms: C15_32  and  C16_33 
REMARK    9  A    between atoms: C16_33  and  C17_34 
REMARK   10  A    between atoms: C17_34  and  C18_35 
REMARK   11  A    between atoms: C18_35  and  C19_36 
REMARK   12  A    between atoms: C19_36  and  C20_37 
REMARK   13  A    between atoms: C20_37  and  C21_38 
REMARK   14  A    between atoms: C21_38  and  C22_39 
REMARK   15  A    between atoms: C26_46  and  N11_47 
ROOT
HETATM    1  C22 UNL     1      -6.706  23.534 -14.266  1.00  0.00     0.029 A 
HETATM    2  C23 UNL     1      -6.574  23.711 -15.610  1.00  0.00     0.067 A 
HETATM    3  C24 UNL     1      -7.556  23.246 -16.458  1.00  0.00     0.131 A 
HETATM    4  C25 UNL     1      -7.376  23.465 -17.866  1.00  0.00     0.118 C 
HETATM    5  N9  UNL     1      -7.220  23.626 -19.008  1.00  0.00    -0.190 NA
HETATM    6  N10 UNL     1      -8.642  22.620 -15.987  1.00  0.00    -0.182 N 
ATOM      7  H10 UNL     1      -9.359  22.281 -16.626  1.00  0.00     0.185 HD
HETATM    8  C26 UNL     1      -8.774  22.444 -14.669  1.00  0.00     0.677 A 
HETATM    9  N12 UNL     1      -7.832  22.891 -13.849  1.00  0.00    -0.196 N 
ATOM     10  H12 UNL     1      -7.957  22.743 -12.848  1.00  0.00     0.184 HD
ENDROOT
BRANCH   1  11
HETATM   11  C21 UNL     1      -5.726  23.957 -13.248  1.00  0.00     0.057 C 
BRANCH  11  12
HETATM   12  C20 UNL     1      -5.466  22.910 -12.198  1.00  0.00     0.006 C 
BRANCH  12  13
HETATM   13  C19 UNL     1      -3.995  22.544 -12.076  1.00  0.00     0.000 C 
BRANCH  13  14
HETATM   14  C18 UNL     1      -3.127  23.746 -12.165  1.00  0.00     0.000 C 
BRANCH  14  15
HETATM   15  C17 UNL     1      -2.731  24.432 -10.943  1.00  0.00     0.000 C 
BRANCH  15  16
HETATM   16  C16 UNL     1      -3.281  25.696 -10.474  1.00  0.00     0.000 C 
BRANCH  16  17
HETATM   17  C15 UNL     1      -4.279  25.655  -9.389  1.00  0.00     0.002 C 
BRANCH  17  18
HETATM   18  C14 UNL     1      -5.680  26.008  -9.961  1.00  0.00     0.029 C 
BRANCH  18  19
HETATM   19  C13 UNL     1      -6.029  27.369  -9.521  1.00  0.00     0.135 C 
HETATM   20  C3  UNL     1      -5.417  28.501 -10.250  1.00  0.00     0.247 C 
HETATM   21  C4  UNL     1      -6.034  29.633  -9.380  1.00  0.00     0.059 C 
HETATM   22  C5  UNL     1      -7.482  29.091  -9.321  1.00  0.00     0.145 C 
HETATM   23  N2  UNL     1      -7.376  27.690  -9.384  1.00  0.00    -0.318 N 
BRANCH  20  24
HETATM   24  N1  UNL     1      -5.982  28.777 -11.544  1.00  0.00     0.086 N 
HETATM   25  C1  UNL     1      -5.625  30.108 -11.950  1.00  0.00     0.310 C 
HETATM   26  C2  UNL     1      -5.752  27.863 -12.582  1.00  0.00     0.310 C 
ENDBRANCH  20  24
BRANCH  23  27
HETATM   27  N3  UNL     1      -8.346  26.942  -9.920  1.00  0.00    -0.266 N 
HETATM   28  C6  UNL     1      -9.314  26.286  -9.093  1.00  0.00     0.286 C 
HETATM   29  O1  UNL     1      -9.261  26.420  -7.839  1.00  0.00    -0.264 OA
ATOM     30  H3  UNL     1      -8.398  26.838 -10.934  1.00  0.00     0.190 HD
BRANCH  28  31
HETATM   31  C7  UNL     1     -10.365  25.455  -9.659  1.00  0.00     0.105 A 
HETATM   32  C8  UNL     1     -10.948  24.330  -9.093  1.00  0.00     0.068 A 
HETATM   33  C9  UNL     1     -11.926  23.869  -9.940  1.00  0.00     0.082 A 
HETATM   34  N4  UNL     1     -12.802  22.840  -9.894  1.00  0.00    -0.190 N 
HETATM   35  C12 UNL     1     -11.950  24.709 -11.032  1.00  0.00     0.105 A 
HETATM   36  C10 UNL     1     -13.680  22.633 -10.889  1.00  0.00     0.678 A 
ATOM     37  H4  UNL     1     -12.796  22.211  -9.091  1.00  0.00     0.184 HD
HETATM   38  N6  UNL     1     -13.704  23.440 -11.941  1.00  0.00    -0.175 N 
HETATM   39  C11 UNL     1     -12.857  24.475 -12.036  1.00  0.00     0.144 A 
ATOM     40  H6  UNL     1     -14.377  23.271 -12.689  1.00  0.00     0.186 HD
HETATM   41  N8  UNL     1     -10.994  25.650 -10.824  1.00  0.00    -0.347 N 
ATOM     42  H8  UNL     1     -10.782  26.409 -11.471  1.00  0.00     0.166 HD
BRANCH  36  43
HETATM   43  N5  UNL     1     -14.500  21.624 -10.777  1.00  0.00    -0.234 N 
ATOM     44  H52 UNL     1     -14.192  20.662 -10.915  1.00  0.00     0.174 HD
ATOM     45  H51 UNL     1     -15.474  21.826 -10.550  1.00  0.00     0.174 HD
ENDBRANCH  36  43
BRANCH  39  46
HETATM   46  N7  UNL     1     -12.895  25.246 -13.071  1.00  0.00    -0.383 N 
ATOM     47  H72 UNL     1     -13.756  25.736 -13.315  1.00  0.00     0.157 HD
ATOM     48  H71 UNL     1     -12.061  25.369 -13.645  1.00  0.00     0.157 HD
ENDBRANCH  39  46
ENDBRANCH  28  31
ENDBRANCH  23  27
ENDBRANCH  18  19
ENDBRANCH  17  18
ENDBRANCH  16  17
ENDBRANCH  15  16
ENDBRANCH  14  15
ENDBRANCH  13  14
ENDBRANCH  12  13
ENDBRANCH  11  12
ENDBRANCH   1  11
BRANCH   8  49
HETATM   49  N11 UNL     1      -9.832  21.833 -14.236  1.00  0.00    -0.234 N 
ATOM     50 2H11 UNL     1     -10.730  21.897 -14.714  1.00  0.00     0.174 HD
ATOM     51 1H11 UNL     1      -9.752  21.273 -13.387  1.00  0.00     0.174 HD
ENDBRANCH   8  49
TORSDOF 15
ENDMDL
MODEL 4
REMARK VINA RESULT: -8.722256472      3.299      6.466
REMARK  15 active torsions:
REMARK  status: ('A' for Active; 'I' for Inactive)
REMARK    1  A    between atoms: N1_2  and  C3_4 
REMARK    2  A    between atoms: N2_7  and  N3_8 
REMARK       I    between atoms: N3_8  and  C6_10 
REMARK    3  A    between atoms: C6_10  and  C7_12 
REMARK    4  A    between atoms: C10_17  and  N5_18 
REMARK    5  A    between atoms: C11_23  and  N7_24 
REMARK    6  A    between atoms: C13_30  and  C14_31 
REMARK    7  A    between atoms: C14_31  and  C15_32 
REMARK    8  A    between atoms: C15_32  and  C16_33 
REMARK    9  A    between atoms: C16_33  and  C17_34 
REMARK   10  A    between atoms: C17_34  and  C18_35 
REMARK   11  A    between atoms: C18_35  and  C19_36 
REMARK   12  A    between atoms: C19_36  and  C20_37 
REMARK   13  A    between atoms: C20_37  and  C21_38 
REMARK   14  A    between atoms: C21_38  and  C22_39 
REMARK   15  A    between atoms: C26_46  and  N11_47 
ROOT
HETATM    1  C22 UNL     1      -6.056  23.291 -15.924  1.00  0.00     0.029 A 
HETATM    2  C23 UNL     1      -6.212  24.551 -16.422  1.00  0.00     0.067 A 
HETATM    3  C24 UNL     1      -5.788  24.835 -17.701  1.00  0.00     0.131 A 
HETATM    4  C25 UNL     1      -5.983  26.174 -18.184  1.00  0.00     0.118 C 
HETATM    5  N9  UNL     1      -6.124  27.263 -18.567  1.00  0.00    -0.190 NA
HETATM    6  N10 UNL     1      -5.220  23.897 -18.469  1.00  0.00    -0.182 N 
ATOM      7  H10 UNL     1      -4.910  24.122 -19.414  1.00  0.00     0.185 HD
HETATM    8  C26 UNL     1      -5.064  22.661 -17.985  1.00  0.00     0.677 A 
HETATM    9  N12 UNL     1      -5.472  22.383 -16.754  1.00  0.00    -0.196 N 
ATOM     10  H12 UNL     1      -5.341  21.432 -16.408  1.00  0.00     0.184 HD
ENDROOT
BRANCH   1  11
HETATM   11  C21 UNL     1      -6.441  22.855 -14.569  1.00  0.00     0.057 C 
BRANCH  11  12
HETATM   12  C20 UNL     1      -5.265  22.498 -13.700  1.00  0.00     0.006 C 
BRANCH  12  13
HETATM   13  C19 UNL     1      -4.551  23.718 -13.139  1.00  0.00     0.000 C 
BRANCH  13  14
HETATM   14  C18 UNL     1      -5.186  24.189 -11.882  1.00  0.00     0.000 C 
BRANCH  14  15
HETATM   15  C17 UNL     1      -5.542  23.220 -10.856  1.00  0.00     0.000 C 
BRANCH  15  16
HETATM   16  C16 UNL     1      -6.900  22.906 -10.431  1.00  0.00     0.000 C 
BRANCH  16  17
HETATM   17  C15 UNL     1      -7.861  24.019 -10.311  1.00  0.00     0.002 C 
BRANCH  17  18
HETATM   18  C14 UNL     1      -8.625  24.188 -11.653  1.00  0.00     0.029 C 
BRANCH  18  19
HETATM   19  C13 UNL     1      -9.882  23.424 -11.568  1.00  0.00     0.135 C 
HETATM   20  C3  UNL     1     -10.795  23.734 -10.447  1.00  0.00     0.247 C 
HETATM   21  C4  UNL     1     -11.863  22.654 -10.779  1.00  0.00     0.059 C 
HETATM   22  C5  UNL     1     -11.958  22.908 -12.302  1.00  0.00     0.145 C 
HETATM   23  N2  UNL     1     -10.684  23.351 -12.701  1.00  0.00    -0.318 N 
BRANCH  20  24
HETATM   24  N1  UNL     1     -11.548  24.952 -10.585  1.00  0.00     0.086 N 
HETATM   25  C1  UNL     1     -12.689  24.912  -9.713  1.00  0.00     0.310 C 
HETATM   26  C2  UNL     1     -10.871  26.174 -10.462  1.00  0.00     0.310 C 
ENDBRANCH  20  24
BRANCH  23  27
HETATM   27  N3  UNL     1     -10.530  24.178 -13.741  1.00  0.00    -0.266 N 
HETATM   28  C6  UNL     1     -10.162  23.680 -15.032  1.00  0.00     0.286 C 
HETATM   29  O1  UNL     1      -9.989  22.441 -15.200  1.00  0.00    -0.264 OA
ATOM     30  H3  UNL     1     -10.677  25.180 -13.611  1.00  0.00     0.190 HD
BRANCH  28  31
HETATM   31  C7  UNL     1      -9.972  24.568 -16.169  1.00  0.00     0.105 A 
HETATM   32  C8  UNL     1     -10.200  24.286 -17.507  1.00  0.00     0.068 A 
HETATM   33  C9  UNL     1      -9.934  25.413 -18.246  1.00  0.00     0.082 A 
HETATM   34  N4  UNL     1      -9.996  25.711 -19.563  1.00  0.00    -0.190 N 
HETATM   35  C12 UNL     1      -9.540  26.396 -17.364  1.00  0.00     0.105 A 
HETATM   36  C10 UNL     1      -9.681  26.937 -20.011  1.00  0.00     0.678 A 
ATOM     37  H4  UNL     1     -10.287  24.993 -20.227  1.00  0.00     0.184 HD
HETATM   38  N6  UNL     1      -9.302  27.885 -19.163  1.00  0.00    -0.175 N 
HETATM   39  C11 UNL     1      -9.224  27.641 -17.847  1.00  0.00     0.144 A 
ATOM     40  H6  UNL     1      -9.066  28.812 -19.518  1.00  0.00     0.186 HD
HETATM   41  N8  UNL     1      -9.576  25.846 -16.123  1.00  0.00    -0.347 N 
ATOM     42  H8  UNL     1      -9.333  26.342 -15.266  1.00  0.00     0.166 HD
BRANCH  36  43
HETATM   43  N5  UNL     1      -9.769  27.158 -21.294  1.00  0.00    -0.234 N 
ATOM     44  H52 UNL     1      -8.978  27.508 -21.835  1.00  0.00     0.174 HD
ATOM     45  H51 UNL     1     -10.663  26.975 -21.749  1.00  0.00     0.174 HD
ENDBRANCH  36  43
BRANCH  39  46
HETATM   46  N7  UNL     1      -8.849  28.576 -17.040  1.00  0.00    -0.383 N 
ATOM     47  H72 UNL     1      -9.494  29.324 -16.785  1.00  0.00     0.157 HD
ATOM     48  H71 UNL     1      -7.905  28.567 -16.653  1.00  0.00     0.157 HD
ENDBRANCH  39  46
ENDBRANCH  28  31
ENDBRANCH  23  27
ENDBRANCH  18  19
ENDBRANCH  17  18
ENDBRANCH  16  17
ENDBRANCH  15  16
ENDBRANCH  14  15
ENDBRANCH  13  14
ENDBRANCH  12  13
ENDBRANCH  11  12
ENDBRANCH   1  11
BRANCH   8  49
HETATM   49  N11 UNL     1      -4.509  21.771 -18.745  1.00  0.00    -0.234 N 
ATOM     50 2H11 UNL     1      -3.837  22.019 -19.471  1.00  0.00     0.174 HD
ATOM     51 1H11 UNL     1      -4.761  20.792 -18.606  1.00  0.00     0.174 HD
ENDBRANCH   8  49
TORSDOF 15
ENDMDL
MODEL 5
REMARK VINA RESULT: -8.676474929      3.272      7.083
REMARK  15 active torsions:
REMARK  status: ('A' for Active; 'I' for Inactive)
REMARK    1  A    between atoms: N1_2  and  C3_4 
REMARK    2  A    between atoms: N2_7  and  N3_8 
REMARK       I    between atoms: N3_8  and  C6_10 
REMARK    3  A    between atoms: C6_10  and  C7_12 
REMARK    4  A    between atoms: C10_17  and  N5_18 
REMARK    5  A    between atoms: C11_23  and  N7_24 
REMARK    6  A    between atoms: C13_30  and  C14_31 
REMARK    7  A    between atoms: C14_31  and  C15_32 
REMARK    8  A    between atoms: C15_32  and  C16_33 
REMARK    9  A    between atoms: C16_33  and  C17_34 
REMARK   10  A    between atoms: C17_34  and  C18_35 
REMARK   11  A    between atoms: C18_35  and  C19_36 
REMARK   12  A    between atoms: C19_36  and  C20_37 
REMARK   13  A    between atoms: C20_37  and  C21_38 
REMARK   14  A    between atoms: C21_38  and  C22_39 
REMARK   15  A    between atoms: C26_46  and  N11_47 
ROOT
HETATM    1  C22 UNL     1      -3.515  24.364 -11.070  1.00  0.00     0.029 A 
HETATM    2  C23 UNL     1      -3.911  25.128 -10.014  1.00  0.00     0.067 A 
HETATM    3  C24 UNL     1      -3.092  26.137  -9.557  1.00  0.00     0.131 A 
HETATM    4  C25 UNL     1      -3.557  26.921  -8.448  1.00  0.00     0.118 C 
HETATM    5  N9  UNL     1      -3.926  27.543  -7.537  1.00  0.00    -0.190 NA
HETATM    6  N10 UNL     1      -1.907  26.382 -10.132  1.00  0.00    -0.182 N 
ATOM      7  H10 UNL     1      -1.311  27.132  -9.783  1.00  0.00     0.185 HD
HETATM    8  C26 UNL     1      -1.514  25.634 -11.167  1.00  0.00     0.677 A 
HETATM    9  N12 UNL     1      -2.302  24.663 -11.610  1.00  0.00    -0.196 N 
ATOM     10  H12 UNL     1      -1.979  24.106 -12.402  1.00  0.00     0.184 HD
ENDROOT
BRANCH   1  11
HETATM   11  C21 UNL     1      -4.279  23.240 -11.645  1.00  0.00     0.057 C 
BRANCH  11  12
HETATM   12  C20 UNL     1      -3.586  22.582 -12.808  1.00  0.00     0.006 C 
BRANCH  12  13
HETATM   13  C19 UNL     1      -4.180  22.976 -14.152  1.00  0.00     0.000 C 
BRANCH  13  14
HETATM   14  C18 UNL     1      -5.416  22.207 -14.447  1.00  0.00     0.000 C 
BRANCH  14  15
HETATM   15  C17 UNL     1      -6.555  22.889 -15.045  1.00  0.00     0.000 C 
BRANCH  15  16
HETATM   16  C16 UNL     1      -7.866  23.036 -14.426  1.00  0.00     0.000 C 
BRANCH  16  17
HETATM   17  C15 UNL     1      -8.248  24.370 -13.925  1.00  0.00     0.002 C 
BRANCH  17  18
HETATM   18  C14 UNL     1      -8.759  24.246 -12.463  1.00  0.00     0.029 C 
BRANCH  18  19
HETATM   19  C13 UNL     1     -10.095  24.861 -12.388  1.00  0.00     0.135 C 
HETATM   20  C3  UNL     1     -11.245  24.058 -12.858  1.00  0.00     0.247 C 
HETATM   21  C4  UNL     1     -12.331  25.147 -12.634  1.00  0.00     0.059 C 
HETATM   22  C5  UNL     1     -11.887  25.606 -11.225  1.00  0.00     0.145 C 
HETATM   23  N2  UNL     1     -10.493  25.419 -11.178  1.00  0.00    -0.318 N 
BRANCH  20  24
HETATM   24  N1  UNL     1     -11.676  23.017 -11.964  1.00  0.00     0.086 N 
HETATM   25  C1  UNL     1     -13.110  22.931 -11.984  1.00  0.00     0.310 C 
HETATM   26  C2  UNL     1     -11.100  21.745 -12.091  1.00  0.00     0.310 C 
ENDBRANCH  20  24
BRANCH  23  27
HETATM   27  N3  UNL     1      -9.866  25.154 -10.027  1.00  0.00    -0.266 N 
HETATM   28  C6  UNL     1      -9.014  26.126  -9.410  1.00  0.00     0.286 C 
HETATM   29  O1  UNL     1      -8.857  27.256  -9.950  1.00  0.00    -0.264 OA
ATOM     30  H3  UNL     1      -9.996  24.245  -9.583  1.00  0.00     0.190 HD
BRANCH  28  31
HETATM   31  C7  UNL     1      -8.310  25.846  -8.168  1.00  0.00     0.105 A 
HETATM   32  C8  UNL     1      -7.324  26.614  -7.566  1.00  0.00     0.068 A 
HETATM   33  C9  UNL     1      -6.956  26.011  -6.387  1.00  0.00     0.082 A 
HETATM   34  N4  UNL     1      -6.073  26.316  -5.410  1.00  0.00    -0.190 N 
HETATM   35  C12 UNL     1      -7.714  24.868  -6.259  1.00  0.00     0.105 A 
HETATM   36  C10 UNL     1      -5.930  25.526  -4.334  1.00  0.00     0.678 A 
ATOM     37  H4  UNL     1      -5.505  27.160  -5.492  1.00  0.00     0.184 HD
HETATM   38  N6  UNL     1      -6.659  24.425  -4.209  1.00  0.00    -0.175 N 
HETATM   39  C11 UNL     1      -7.550  24.077  -5.150  1.00  0.00     0.144 A 
ATOM     40  H6  UNL     1      -6.541  23.834  -3.386  1.00  0.00     0.186 HD
HETATM   41  N8  UNL     1      -8.517  24.805  -7.353  1.00  0.00    -0.347 N 
ATOM     42  H8  UNL     1      -9.190  24.060  -7.531  1.00  0.00     0.166 HD
BRANCH  36  43
HETATM   43  N5  UNL     1      -5.063  25.883  -3.426  1.00  0.00    -0.234 N 
ATOM     44  H52 UNL     1      -5.195  25.660  -2.440  1.00  0.00     0.174 HD
ATOM     45  H51 UNL     1      -4.241  26.404  -3.732  1.00  0.00     0.174 HD
ENDBRANCH  36  43
BRANCH  39  46
HETATM   46  N7  UNL     1      -8.246  22.999  -5.010  1.00  0.00    -0.383 N 
ATOM     47  H72 UNL     1      -8.720  22.804  -4.127  1.00  0.00     0.157 HD
ATOM     48  H71 UNL     1      -8.326  22.340  -5.785  1.00  0.00     0.157 HD
ENDBRANCH  39  46
ENDBRANCH  28  31
ENDBRANCH  23  27
ENDBRANCH  18  19
ENDBRANCH  17  18
ENDBRANCH  16  17
ENDBRANCH  15  16
ENDBRANCH  14  15
ENDBRANCH  13  14
ENDBRANCH  12  13
ENDBRANCH  11  12
ENDBRANCH   1  11
BRANCH   8  49
HETATM   49  N11 UNL     1      -0.363  25.888 -11.705  1.00  0.00    -0.234 N 
ATOM     50 2H11 UNL     1       0.120  26.775 -11.560  1.00  0.00     0.174 HD
ATOM     51 1H11 UNL     1       0.064  25.172 -12.291  1.00  0.00     0.174 HD
ENDBRANCH   8  49
TORSDOF 15
ENDMDL
