MODEL 1
REMARK VINA RESULT: -6.699411302      0.000      0.000
REMARK  2 active torsions:
REMARK  status: ('A' for Active; 'I' for Inactive)
REMARK    1  A    between atoms: C14_15  and  O1_16 
REMARK    2  A    between atoms: O1_16  and  N2_17 
ROOT
HETATM    1  C1  UNL     1       7.706  -0.991   9.976  1.00  0.00     0.016 C 
HETATM    2  C2  UNL     1       6.522  -1.925   9.655  1.00  0.00    -0.033 C 
HETATM    3  C3  UNL     1       5.302  -1.025   9.839  1.00  0.00     0.010 C 
HETATM    4  C4  UNL     1       5.003  -0.308   8.590  1.00  0.00     0.001 C 
HETATM    5  C5  UNL     1       4.544  -1.340   7.610  1.00  0.00     0.005 C 
HETATM    6  C6  UNL     1       5.387  -2.566   7.494  1.00  0.00    -0.003 C 
HETATM    7  C7  UNL     1       5.534  -2.783   6.049  1.00  0.00     0.036 C 
HETATM    8  C8  UNL     1       6.310  -3.871   5.503  1.00  0.00     0.272 C 
HETATM    9  N1  UNL     1       7.596  -3.963   6.140  1.00  0.00     0.088 N 
HETATM   10  C9  UNL     1       8.244  -2.724   6.363  1.00  0.00     0.273 C 
HETATM   11  C10 UNL     1       7.646  -1.830   7.397  1.00  0.00     0.041 C 
HETATM   12  C11 UNL     1       6.644  -2.562   8.322  1.00  0.00    -0.022 C 
HETATM   13  C12 UNL     1       7.279  -3.900   8.490  1.00  0.00     0.026 C 
HETATM   14  C13 UNL     1       6.711  -4.765   9.586  1.00  0.00     0.041 C 
HETATM   15  C14 UNL     1       7.188  -4.058  10.866  1.00  0.00     0.152 C 
HETATM   16  C15 UNL     1       6.391  -2.814  10.854  1.00  0.00     0.044 C 
HETATM   17  C16 UNL     1       7.394  -4.767   7.292  1.00  0.00     0.277 C 
ENDROOT
BRANCH  15  18
HETATM   18  O1  UNL     1       6.892  -4.786  11.987  1.00  0.00    -0.282 OA
BRANCH  18  19
HETATM   19  N2  UNL     1       7.351  -6.039  11.986  1.00  0.00    -0.311 N 
ATOM     20  H22 UNL     1       7.744  -6.463  11.146  1.00  0.00     0.184 HD
ATOM     21  H21 UNL     1       7.277  -6.528  12.879  1.00  0.00     0.184 HD
ENDBRANCH  18  19
ENDBRANCH  15  18
TORSDOF 2
ENDMDL
MODEL 2
REMARK VINA RESULT: -6.541550627      2.355      3.551
REMARK  2 active torsions:
REMARK  status: ('A' for Active; 'I' for Inactive)
REMARK    1  A    between atoms: C14_15  and  O1_16 
REMARK    2  A    between atoms: O1_16  and  N2_17 
ROOT
HETATM    1  C1  UNL     1       7.626  -1.248  12.506  1.00  0.00     0.016 C 
HETATM    2  C2  UNL     1       6.483  -2.129  11.962  1.00  0.00    -0.033 C 
HETATM    3  C3  UNL     1       5.669  -1.161  11.104  1.00  0.00     0.010 C 
HETATM    4  C4  UNL     1       6.208  -1.113   9.737  1.00  0.00     0.001 C 
HETATM    5  C5  UNL     1       5.935  -2.451   9.128  1.00  0.00     0.005 C 
HETATM    6  C6  UNL     1       6.300  -3.641   9.950  1.00  0.00    -0.003 C 
HETATM    7  C7  UNL     1       7.001  -4.536   9.020  1.00  0.00     0.036 C 
HETATM    8  C8  UNL     1       7.547  -5.808   9.431  1.00  0.00     0.272 C 
HETATM    9  N1  UNL     1       8.306  -5.680  10.646  1.00  0.00     0.088 N 
HETATM   10  C9  UNL     1       9.142  -4.539  10.712  1.00  0.00     0.273 C 
HETATM   11  C10 UNL     1       8.465  -3.216  10.837  1.00  0.00     0.041 C 
HETATM   12  C11 UNL     1       6.979  -3.335  11.257  1.00  0.00    -0.022 C 
HETATM   13  C12 UNL     1       7.007  -4.471  12.221  1.00  0.00     0.026 C 
HETATM   14  C13 UNL     1       5.766  -4.657  13.056  1.00  0.00     0.041 C 
HETATM   15  C14 UNL     1       5.816  -3.461  14.020  1.00  0.00     0.152 C 
HETATM   16  C15 UNL     1       5.552  -2.319  13.120  1.00  0.00     0.044 C 
HETATM   17  C16 UNL     1       7.364  -5.814  11.699  1.00  0.00     0.277 C 
ENDROOT
BRANCH  15  18
HETATM   18  O1  UNL     1       4.834  -3.536  14.972  1.00  0.00    -0.282 OA
BRANCH  18  19
HETATM   19  N2  UNL     1       5.000  -4.496  15.883  1.00  0.00    -0.311 N 
ATOM     20  H22 UNL     1       5.351  -5.419  15.628  1.00  0.00     0.184 HD
ATOM     21  H21 UNL     1       4.751  -4.236  16.838  1.00  0.00     0.184 HD
ENDBRANCH  18  19
ENDBRANCH  15  18
TORSDOF 2
ENDMDL
MODEL 3
REMARK VINA RESULT: -6.238011368      1.663      3.887
REMARK  2 active torsions:
REMARK  status: ('A' for Active; 'I' for Inactive)
REMARK    1  A    between atoms: C14_15  and  O1_16 
REMARK    2  A    between atoms: O1_16  and  N2_17 
ROOT
HETATM    1  C1  UNL     1       7.371  -7.005   7.441  1.00  0.00     0.016 C 
HETATM    2  C2  UNL     1       8.158  -5.705   7.701  1.00  0.00    -0.033 C 
HETATM    3  C3  UNL     1       9.467  -5.926   6.943  1.00  0.00     0.010 C 
HETATM    4  C4  UNL     1       9.325  -5.496   5.544  1.00  0.00     0.001 C 
HETATM    5  C5  UNL     1       9.174  -4.009   5.574  1.00  0.00     0.005 C 
HETATM    6  C6  UNL     1       8.183  -3.461   6.546  1.00  0.00    -0.003 C 
HETATM    7  C7  UNL     1       7.419  -2.468   5.781  1.00  0.00     0.036 C 
HETATM    8  C8  UNL     1       6.330  -1.715   6.357  1.00  0.00     0.272 C 
HETATM    9  N1  UNL     1       5.427  -2.573   7.075  1.00  0.00     0.088 N 
HETATM   10  C9  UNL     1       5.127  -3.798   6.431  1.00  0.00     0.273 C 
HETATM   11  C10 UNL     1       6.228  -4.801   6.349  1.00  0.00     0.041 C 
HETATM   12  C11 UNL     1       7.399  -4.493   7.312  1.00  0.00    -0.022 C 
HETATM   13  C12 UNL     1       6.696  -3.966   8.516  1.00  0.00     0.026 C 
HETATM   14  C13 UNL     1       7.527  -3.852   9.768  1.00  0.00     0.041 C 
HETATM   15  C14 UNL     1       7.738  -5.319  10.177  1.00  0.00     0.152 C 
HETATM   16  C15 UNL     1       8.638  -5.816   9.116  1.00  0.00     0.044 C 
HETATM   17  C16 UNL     1       5.963  -2.682   8.384  1.00  0.00     0.277 C 
ENDROOT
BRANCH  15  18
HETATM   18  O1  UNL     1       8.357  -5.422  11.394  1.00  0.00    -0.282 OA
BRANCH  18  19
HETATM   19  N2  UNL     1       7.666  -6.078  12.328  1.00  0.00    -0.311 N 
ATOM     20  H22 UNL     1       7.771  -5.864  13.319  1.00  0.00     0.184 HD
ATOM     21  H21 UNL     1       7.036  -6.799  11.974  1.00  0.00     0.184 HD
ENDBRANCH  18  19
ENDBRANCH  15  18
TORSDOF 2
ENDMDL
MODEL 4
REMARK VINA RESULT: -5.990623102      2.108      3.989
REMARK  2 active torsions:
REMARK  status: ('A' for Active; 'I' for Inactive)
REMARK    1  A    between atoms: C14_15  and  O1_16 
REMARK    2  A    between atoms: O1_16  and  N2_17 
ROOT
HETATM    1  C1  UNL     1       7.350  -5.829  10.999  1.00  0.00     0.016 C 
HETATM    2  C2  UNL     1       8.102  -4.861  10.064  1.00  0.00    -0.033 C 
HETATM    3  C3  UNL     1       9.535  -5.391  10.084  1.00  0.00     0.010 C 
HETATM    4  C4  UNL     1       9.709  -6.430   9.058  1.00  0.00     0.001 C 
HETATM    5  C5  UNL     1       9.599  -5.741   7.735  1.00  0.00     0.005 C 
HETATM    6  C6  UNL     1       8.440  -4.817   7.563  1.00  0.00    -0.003 C 
HETATM    7  C7  UNL     1       7.887  -5.154   6.245  1.00  0.00     0.036 C 
HETATM    8  C8  UNL     1       6.723  -4.496   5.700  1.00  0.00     0.272 C 
HETATM    9  N1  UNL     1       5.662  -4.430   6.669  1.00  0.00     0.088 N 
HETATM   10  C9  UNL     1       5.470  -5.611   7.427  1.00  0.00     0.273 C 
HETATM   11  C10 UNL     1       6.533  -5.955   8.416  1.00  0.00     0.041 C 
HETATM   12  C11 UNL     1       7.480  -4.769   8.721  1.00  0.00    -0.022 C 
HETATM   13  C12 UNL     1       6.552  -3.603   8.706  1.00  0.00     0.026 C 
HETATM   14  C13 UNL     1       7.100  -2.317   9.271  1.00  0.00     0.041 C 
HETATM   15  C14 UNL     1       7.174  -2.606  10.779  1.00  0.00     0.152 C 
HETATM   16  C15 UNL     1       8.265  -3.600  10.856  1.00  0.00     0.044 C 
HETATM   17  C16 UNL     1       5.903  -3.250   7.419  1.00  0.00     0.277 C 
ENDROOT
BRANCH  15  18
HETATM   18  O1  UNL     1       7.516  -1.489  11.493  1.00  0.00    -0.282 OA
BRANCH  18  19
HETATM   19  N2  UNL     1       6.864  -1.332  12.647  1.00  0.00    -0.311 N 
ATOM     20  H22 UNL     1       7.362  -1.203  13.527  1.00  0.00     0.184 HD
ATOM     21  H21 UNL     1       5.846  -1.352  12.576  1.00  0.00     0.184 HD
ENDBRANCH  18  19
ENDBRANCH  15  18
TORSDOF 2
ENDMDL
MODEL 5
REMARK VINA RESULT: -5.916573728      1.817      2.441
REMARK  2 active torsions:
REMARK  status: ('A' for Active; 'I' for Inactive)
REMARK    1  A    between atoms: C14_15  and  O1_16 
REMARK    2  A    between atoms: O1_16  and  N2_17 
ROOT
HETATM    1  C1  UNL     1       7.698  -0.951   7.814  1.00  0.00     0.016 C 
HETATM    2  C2  UNL     1       6.621  -1.925   8.331  1.00  0.00    -0.033 C 
HETATM    3  C3  UNL     1       5.341  -1.422   7.665  1.00  0.00     0.010 C 
HETATM    4  C4  UNL     1       5.181  -2.036   6.338  1.00  0.00     0.001 C 
HETATM    5  C5  UNL     1       4.917  -3.489   6.573  1.00  0.00     0.005 C 
HETATM    6  C6  UNL     1       5.831  -4.183   7.526  1.00  0.00    -0.003 C 
HETATM    7  C7  UNL     1       6.188  -5.439   6.854  1.00  0.00     0.036 C 
HETATM    8  C8  UNL     1       7.088  -6.404   7.439  1.00  0.00     0.272 C 
HETATM    9  N1  UNL     1       8.277  -5.769   7.941  1.00  0.00     0.088 N 
HETATM   10  C9  UNL     1       8.821  -4.768   7.100  1.00  0.00     0.273 C 
HETATM   11  C10 UNL     1       8.040  -3.504   6.965  1.00  0.00     0.041 C 
HETATM   12  C11 UNL     1       6.959  -3.343   8.062  1.00  0.00    -0.022 C 
HETATM   13  C12 UNL     1       7.634  -3.908   9.265  1.00  0.00     0.026 C 
HETATM   14  C13 UNL     1       6.966  -3.627  10.587  1.00  0.00     0.041 C 
HETATM   15  C14 UNL     1       7.223  -2.125  10.791  1.00  0.00     0.152 C 
HETATM   16  C15 UNL     1       6.371  -1.515   9.750  1.00  0.00     0.044 C 
HETATM   17  C16 UNL     1       7.959  -5.355   9.261  1.00  0.00     0.277 C 
ENDROOT
BRANCH  15  18
HETATM   18  O1  UNL     1       6.814  -1.705  12.028  1.00  0.00    -0.282 OA
BRANCH  18  19
HETATM   19  N2  UNL     1       7.693  -0.948  12.689  1.00  0.00    -0.311 N 
ATOM     20  H22 UNL     1       8.698  -1.069  12.569  1.00  0.00     0.184 HD
ATOM     21  H21 UNL     1       7.282  -0.253  13.313  1.00  0.00     0.184 HD
ENDBRANCH  18  19
ENDBRANCH  15  18
TORSDOF 2
ENDMDL
