MODEL 1
REMARK VINA RESULT: -6.177942679      0.000      0.000
REMARK  2 active torsions:
REMARK  status: ('A' for Active; 'I' for Inactive)
REMARK       I    between atoms: C1_2  and  N2_4 
REMARK    1  A    between atoms: N2_4  and  C2_6 
REMARK    2  A    between atoms: N6_11  and  O2_12 
ROOT
HETATM    1  C2  UNL     1      31.854   4.309  42.723  1.00  0.00     0.738 A 
HETATM    2  N3  UNL     1      31.866   5.374  43.547  1.00  0.00    -0.114 N 
ATOM      3  H3  UNL     1      32.436   6.213  43.437  1.00  0.00     0.203 HD
HETATM    4  N4  UNL     1      31.002   5.139  44.527  1.00  0.00     0.009 NA
HETATM    5  N5  UNL     1      30.432   3.954  44.361  1.00  0.00     0.037 NA
HETATM    6  N6  UNL     1      30.961   3.453  43.253  1.00  0.00     0.031 N 
ENDROOT
BRANCH   1   7
HETATM    7  N2  UNL     1      32.554   4.123  41.633  1.00  0.00    -0.139 N 
HETATM    8  C1  UNL     1      33.115   5.257  40.984  1.00  0.00     0.347 C 
HETATM    9  N1  UNL     1      34.053   6.098  41.638  1.00  0.00    -0.039 NA
HETATM   10  O1  UNL     1      32.810   5.580  39.791  1.00  0.00    -0.250 OA
ATOM     11  H2  UNL     1      32.694   3.186  41.256  1.00  0.00     0.189 HD
ENDBRANCH   1   7
BRANCH   6  12
HETATM   12  O2  UNL     1      30.676   2.344  42.763  1.00  0.00    -0.256 OA
ATOM     13  H2  UNL     1      30.036   2.212  42.074  1.00  0.00     0.247 HD
ENDBRANCH   6  12
TORSDOF 2
ENDMDL
MODEL 2
REMARK VINA RESULT: -6.127559625      2.196      2.704
REMARK  2 active torsions:
REMARK  status: ('A' for Active; 'I' for Inactive)
REMARK       I    between atoms: C1_2  and  N2_4 
REMARK    1  A    between atoms: N2_4  and  C2_6 
REMARK    2  A    between atoms: N6_11  and  O2_12 
ROOT
HETATM    1  C2  UNL     1      31.838   4.123  42.595  1.00  0.00     0.738 A 
HETATM    2  N3  UNL     1      30.609   3.581  42.494  1.00  0.00    -0.114 N 
ATOM      3  H3  UNL     1      30.272   2.994  41.731  1.00  0.00     0.203 HD
HETATM    4  N4  UNL     1      29.916   3.946  43.565  1.00  0.00     0.009 NA
HETATM    5  N5  UNL     1      30.660   4.706  44.356  1.00  0.00     0.037 NA
HETATM    6  N6  UNL     1      31.836   4.809  43.753  1.00  0.00     0.031 N 
ENDROOT
BRANCH   1   7
HETATM    7  N2  UNL     1      32.839   4.018  41.757  1.00  0.00    -0.139 N 
HETATM    8  C1  UNL     1      33.760   2.948  41.929  1.00  0.00     0.347 C 
HETATM    9  N1  UNL     1      33.345   1.593  41.859  1.00  0.00    -0.039 NA
HETATM   10  O1  UNL     1      34.997   3.144  42.156  1.00  0.00    -0.250 OA
ATOM     11  H2  UNL     1      32.955   4.688  40.998  1.00  0.00     0.189 HD
ENDBRANCH   1   7
BRANCH   6  12
HETATM   12  O2  UNL     1      32.810   5.451  44.189  1.00  0.00    -0.256 OA
ATOM     13  H2  UNL     1      32.901   6.394  44.127  1.00  0.00     0.247 HD
ENDBRANCH   6  12
TORSDOF 2
ENDMDL
MODEL 3
REMARK VINA RESULT: -6.088733255      1.757      2.114
REMARK  2 active torsions:
REMARK  status: ('A' for Active; 'I' for Inactive)
REMARK       I    between atoms: C1_2  and  N2_4 
REMARK    1  A    between atoms: N2_4  and  C2_6 
REMARK    2  A    between atoms: N6_11  and  O2_12 
ROOT
HETATM    1  C2  UNL     1      31.864   4.607  42.965  1.00  0.00     0.738 A 
HETATM    2  N3  UNL     1      31.525   3.507  42.267  1.00  0.00    -0.114 N 
ATOM      3  H3  UNL     1      32.033   3.118  41.472  1.00  0.00     0.203 HD
HETATM    4  N4  UNL     1      30.411   3.018  42.797  1.00  0.00     0.009 NA
HETATM    5  N5  UNL     1      30.020   3.769  43.817  1.00  0.00     0.037 NA
HETATM    6  N6  UNL     1      30.918   4.741  43.912  1.00  0.00     0.031 N 
ENDROOT
BRANCH   1   7
HETATM    7  N2  UNL     1      32.893   5.396  42.780  1.00  0.00    -0.139 N 
HETATM    8  C1  UNL     1      33.579   5.338  41.536  1.00  0.00     0.347 C 
HETATM    9  N1  UNL     1      32.924   5.635  40.313  1.00  0.00    -0.039 NA
HETATM   10  O1  UNL     1      34.808   5.017  41.449  1.00  0.00    -0.250 OA
ATOM     11  H2  UNL     1      33.196   6.038  43.512  1.00  0.00     0.189 HD
ENDBRANCH   1   7
BRANCH   6  12
HETATM   12  O2  UNL     1      30.895   5.654  44.758  1.00  0.00    -0.256 OA
ATOM     13  H2  UNL     1      31.003   5.521  45.692  1.00  0.00     0.247 HD
ENDBRANCH   6  12
TORSDOF 2
ENDMDL
MODEL 4
REMARK VINA RESULT: -6.041333083      1.380      1.455
REMARK  2 active torsions:
REMARK  status: ('A' for Active; 'I' for Inactive)
REMARK       I    between atoms: C1_2  and  N2_4 
REMARK    1  A    between atoms: N2_4  and  C2_6 
REMARK    2  A    between atoms: N6_11  and  O2_12 
ROOT
HETATM    1  C2  UNL     1      31.930   4.148  42.876  1.00  0.00     0.738 A 
HETATM    2  N3  UNL     1      31.952   5.224  43.687  1.00  0.00    -0.114 N 
ATOM      3  H3  UNL     1      32.626   5.989  43.653  1.00  0.00     0.203 HD
HETATM    4  N4  UNL     1      30.940   5.111  44.538  1.00  0.00     0.009 NA
HETATM    5  N5  UNL     1      30.264   3.996  44.302  1.00  0.00     0.037 NA
HETATM    6  N6  UNL     1      30.879   3.412  43.281  1.00  0.00     0.031 N 
ENDROOT
BRANCH   1   7
HETATM    7  N2  UNL     1      32.748   3.860  41.895  1.00  0.00    -0.139 N 
HETATM    8  C1  UNL     1      34.141   4.070  42.088  1.00  0.00     0.347 C 
HETATM    9  N1  UNL     1      34.861   3.390  43.104  1.00  0.00    -0.039 NA
HETATM   10  O1  UNL     1      34.815   4.873  41.366  1.00  0.00    -0.250 OA
ATOM     11  H2  UNL     1      32.394   3.493  41.012  1.00  0.00     0.189 HD
ENDBRANCH   1   7
BRANCH   6  12
HETATM   12  O2  UNL     1      30.538   2.333  42.763  1.00  0.00    -0.256 OA
ATOM     13  H2  UNL     1      31.140   1.721  42.356  1.00  0.00     0.247 HD
ENDBRANCH   6  12
TORSDOF 2
ENDMDL
MODEL 5
REMARK VINA RESULT: -6.017138363      2.025      3.592
REMARK  2 active torsions:
REMARK  status: ('A' for Active; 'I' for Inactive)
REMARK       I    between atoms: C1_2  and  N2_4 
REMARK    1  A    between atoms: N2_4  and  C2_6 
REMARK    2  A    between atoms: N6_11  and  O2_12 
ROOT
HETATM    1  C2  UNL     1      32.435   3.682  42.326  1.00  0.00     0.738 A 
HETATM    2  N3  UNL     1      33.366   4.651  42.417  1.00  0.00    -0.114 N 
ATOM      3  H3  UNL     1      33.187   5.648  42.535  1.00  0.00     0.203 HD
HETATM    4  N4  UNL     1      34.559   4.076  42.324  1.00  0.00     0.009 NA
HETATM    5  N5  UNL     1      34.426   2.765  42.178  1.00  0.00     0.037 NA
HETATM    6  N6  UNL     1      33.120   2.533  42.180  1.00  0.00     0.031 N 
ENDROOT
BRANCH   1   7
HETATM    7  N2  UNL     1      31.132   3.808  42.369  1.00  0.00    -0.139 N 
HETATM    8  C1  UNL     1      30.510   4.005  43.632  1.00  0.00     0.347 C 
HETATM    9  N1  UNL     1      30.808   5.133  44.439  1.00  0.00    -0.039 NA
HETATM   10  O1  UNL     1      29.658   3.187  44.108  1.00  0.00    -0.250 OA
ATOM     11  H2  UNL     1      30.576   3.765  41.516  1.00  0.00     0.189 HD
ENDBRANCH   1   7
BRANCH   6  12
HETATM   12  O2  UNL     1      32.593   1.412  42.064  1.00  0.00    -0.256 OA
ATOM     13  H2  UNL     1      32.360   0.851  42.795  1.00  0.00     0.247 HD
ENDBRANCH   6  12
TORSDOF 2
ENDMDL
