MODEL 1
REMARK VINA RESULT: -6.978517304      0.000      0.000
REMARK  6 active torsions:
REMARK  status: ('A' for Active; 'I' for Inactive)
REMARK    1  A    between atoms: C2_2  and  O1_3 
REMARK    2  A    between atoms: O1_3  and  C3_4 
REMARK       I    between atoms: C3_4  and  N1_6 
REMARK    3  A    between atoms: C6_9  and  N2_10 
REMARK       I    between atoms: N2_10  and  C7_11 
REMARK    4  A    between atoms: N4_13  and  C8_15 
REMARK       I    between atoms: N5_19  and  C12_20 
REMARK    5  A    between atoms: C12_20  and  C13_22 
REMARK    6  A    between atoms: C13_22  and  N6_23 
REMARK       I    between atoms: N6_23  and  C14_25 
ROOT
HETATM    1  C3  UNL     1     -32.971   2.944  24.522  1.00  0.00     0.362 C 
HETATM    2  O2  UNL     1     -32.914   4.173  24.353  1.00  0.00    -0.238 OA
HETATM    3  N1  UNL     1     -32.129   2.166  25.364  1.00  0.00    -0.326 N 
HETATM    4  C4  UNL     1     -32.347   0.746  25.430  1.00  0.00     0.136 C 
HETATM    5  C5  UNL     1     -31.802   0.216  26.742  1.00  0.00     0.112 C 
HETATM    6  C6  UNL     1     -30.278   0.186  26.718  1.00  0.00     0.165 C 
HETATM    7  N5  UNL     1     -29.444   1.371  26.667  1.00  0.00    -0.293 N 
HETATM    8  C12 UNL     1     -28.367   1.460  27.568  1.00  0.00     0.243 C 
HETATM    9  O3  UNL     1     -28.171   0.610  28.460  1.00  0.00    -0.271 OA
HETATM   10  C15 UNL     1     -29.705   2.487  25.754  1.00  0.00     0.154 C 
HETATM   11  C16 UNL     1     -31.130   2.934  26.072  1.00  0.00     0.148 C 
ENDROOT
BRANCH   6  12
HETATM   12  N2  UNL     1     -29.793  -0.901  26.694  1.00  0.00    -0.360 NA
HETATM   13  C7  UNL     1     -29.250  -2.127  26.670  1.00  0.00     0.265 C 
HETATM   14  N3  UNL     1     -29.976  -3.298  26.281  1.00  0.00    -0.049 NA
HETATM   15  N4  UNL     1     -27.995  -2.325  27.006  1.00  0.00    -0.345 N 
ATOM     16  H4  UNL     1     -27.438  -1.518  27.287  1.00  0.00     0.164 HD
BRANCH  15  17
HETATM   17  C8  UNL     1     -27.380  -3.588  26.999  1.00  0.00     0.022 C 
HETATM   18  C9  UNL     1     -27.866  -4.555  28.066  1.00  0.00     0.037 C 
HETATM   19  C10 UNL     1     -25.848  -3.435  27.248  1.00  0.00     0.037 C 
HETATM   20  C11 UNL     1     -27.453  -4.199  25.609  1.00  0.00     0.037 C 
ENDBRANCH  15  17
ENDBRANCH   6  12
BRANCH   8  21
HETATM   21  C13 UNL     1     -27.393   2.568  27.517  1.00  0.00     0.225 C 
BRANCH  21  22
HETATM   22  N6  UNL     1     -26.248   2.376  28.373  1.00  0.00    -0.356 N 
HETATM   23  C14 UNL     1     -24.966   2.894  27.988  1.00  0.00     0.182 C 
HETATM   24  N7  UNL     1     -24.736   3.611  26.985  1.00  0.00    -0.374 N 
HETATM   25  N8  UNL     1     -23.832   2.544  28.825  1.00  0.00    -0.064 NA
ATOM     26  H72 UNL     1     -25.532   3.858  26.397  1.00  0.00     0.158 HD
ATOM     27  H71 UNL     1     -23.825   3.979  26.712  1.00  0.00     0.158 HD
ATOM     28  H6  UNL     1     -26.350   1.871  29.253  1.00  0.00     0.162 HD
ENDBRANCH  21  22
ENDBRANCH   8  21
BRANCH   1  29
HETATM   29  O1  UNL     1     -33.976   2.253  23.802  1.00  0.00    -0.304 OA
BRANCH  29  30
HETATM   30  C2  UNL     1     -35.316   2.661  23.981  1.00  0.00     0.176 C 
HETATM   31  C1  UNL     1     -35.733   2.350  25.402  1.00  0.00     0.034 C 
ENDBRANCH  29  30
ENDBRANCH   1  29
TORSDOF 6
ENDMDL
MODEL 2
REMARK VINA RESULT: -6.976606252      2.518      6.415
REMARK  6 active torsions:
REMARK  status: ('A' for Active; 'I' for Inactive)
REMARK    1  A    between atoms: C2_2  and  O1_3 
REMARK    2  A    between atoms: O1_3  and  C3_4 
REMARK       I    between atoms: C3_4  and  N1_6 
REMARK    3  A    between atoms: C6_9  and  N2_10 
REMARK       I    between atoms: N2_10  and  C7_11 
REMARK    4  A    between atoms: N4_13  and  C8_15 
REMARK       I    between atoms: N5_19  and  C12_20 
REMARK    5  A    between atoms: C12_20  and  C13_22 
REMARK    6  A    between atoms: C13_22  and  N6_23 
REMARK       I    between atoms: N6_23  and  C14_25 
ROOT
HETATM    1  C3  UNL     1     -27.616  -3.082  24.582  1.00  0.00     0.362 C 
HETATM    2  O2  UNL     1     -26.746  -3.707  25.210  1.00  0.00    -0.238 OA
HETATM    3  N1  UNL     1     -27.993  -1.726  24.785  1.00  0.00    -0.326 N 
HETATM    4  C4  UNL     1     -29.030  -1.170  23.956  1.00  0.00     0.136 C 
HETATM    5  C5  UNL     1     -28.876   0.337  23.905  1.00  0.00     0.112 C 
HETATM    6  C6  UNL     1     -29.311   0.967  25.223  1.00  0.00     0.165 C 
HETATM    7  N5  UNL     1     -28.615   0.780  26.482  1.00  0.00    -0.293 N 
HETATM    8  C12 UNL     1     -28.333   1.920  27.256  1.00  0.00     0.243 C 
HETATM    9  O3  UNL     1     -28.572   3.076  26.854  1.00  0.00    -0.271 OA
HETATM   10  C15 UNL     1     -28.159  -0.532  26.948  1.00  0.00     0.154 C 
HETATM   11  C16 UNL     1     -27.257  -1.058  25.834  1.00  0.00     0.148 C 
ENDROOT
BRANCH   6  12
HETATM   12  N2  UNL     1     -30.316   1.605  25.173  1.00  0.00    -0.360 NA
HETATM   13  C7  UNL     1     -31.446   2.324  25.112  1.00  0.00     0.265 C 
HETATM   14  N3  UNL     1     -32.429   2.152  24.086  1.00  0.00    -0.049 NA
HETATM   15  N4  UNL     1     -31.720   3.243  26.009  1.00  0.00    -0.345 N 
ATOM     16  H4  UNL     1     -31.048   3.398  26.761  1.00  0.00     0.164 HD
BRANCH  15  17
HETATM   17  C8  UNL     1     -32.887   4.025  25.989  1.00  0.00     0.022 C 
HETATM   18  C9  UNL     1     -32.981   5.026  24.849  1.00  0.00     0.037 C 
HETATM   19  C10 UNL     1     -32.983   4.873  27.293  1.00  0.00     0.037 C 
HETATM   20  C11 UNL     1     -34.116   3.131  26.058  1.00  0.00     0.037 C 
ENDBRANCH  15  17
ENDBRANCH   6  12
BRANCH   8  21
HETATM   21  C13 UNL     1     -27.734   1.823  28.602  1.00  0.00     0.225 C 
BRANCH  21  22
HETATM   22  N6  UNL     1     -26.521   2.587  28.755  1.00  0.00    -0.356 N 
HETATM   23  C14 UNL     1     -25.245   1.955  28.569  1.00  0.00     0.182 C 
HETATM   24  N7  UNL     1     -25.058   0.779  28.179  1.00  0.00    -0.374 N 
HETATM   25  N8  UNL     1     -24.065   2.745  28.876  1.00  0.00    -0.064 NA
ATOM     26  H72 UNL     1     -25.887   0.224  27.963  1.00  0.00     0.158 HD
ATOM     27  H71 UNL     1     -24.152   0.331  28.046  1.00  0.00     0.158 HD
ATOM     28  H6  UNL     1     -26.569   3.577  28.996  1.00  0.00     0.162 HD
ENDBRANCH  21  22
ENDBRANCH   8  21
BRANCH   1  29
HETATM   29  O1  UNL     1     -28.297  -3.794  23.565  1.00  0.00    -0.304 OA
BRANCH  29  30
HETATM   30  C2  UNL     1     -28.924  -5.010  23.917  1.00  0.00     0.176 C 
HETATM   31  C1  UNL     1     -30.161  -4.702  24.733  1.00  0.00     0.034 C 
ENDBRANCH  29  30
ENDBRANCH   1  29
TORSDOF 6
ENDMDL
MODEL 3
REMARK VINA RESULT: -6.829920385      2.596      6.413
REMARK  6 active torsions:
REMARK  status: ('A' for Active; 'I' for Inactive)
REMARK    1  A    between atoms: C2_2  and  O1_3 
REMARK    2  A    between atoms: O1_3  and  C3_4 
REMARK       I    between atoms: C3_4  and  N1_6 
REMARK    3  A    between atoms: C6_9  and  N2_10 
REMARK       I    between atoms: N2_10  and  C7_11 
REMARK    4  A    between atoms: N4_13  and  C8_15 
REMARK       I    between atoms: N5_19  and  C12_20 
REMARK    5  A    between atoms: C12_20  and  C13_22 
REMARK    6  A    between atoms: C13_22  and  N6_23 
REMARK       I    between atoms: N6_23  and  C14_25 
ROOT
HETATM    1  C3  UNL     1     -28.656  -2.890  24.560  1.00  0.00     0.362 C 
HETATM    2  O2  UNL     1     -27.848  -3.674  25.084  1.00  0.00    -0.238 OA
HETATM    3  N1  UNL     1     -28.780  -1.499  24.833  1.00  0.00    -0.326 N 
HETATM    4  C4  UNL     1     -29.781  -0.747  24.125  1.00  0.00     0.136 C 
HETATM    5  C5  UNL     1     -29.382   0.715  24.096  1.00  0.00     0.112 C 
HETATM    6  C6  UNL     1     -29.580   1.354  25.465  1.00  0.00     0.165 C 
HETATM    7  N5  UNL     1     -28.811   1.003  26.644  1.00  0.00    -0.293 N 
HETATM    8  C12 UNL     1     -28.270   2.049  27.415  1.00  0.00     0.243 C 
HETATM    9  O3  UNL     1     -28.348   3.245  27.067  1.00  0.00    -0.271 OA
HETATM   10  C15 UNL     1     -28.539  -0.383  27.031  1.00  0.00     0.154 C 
HETATM   11  C16 UNL     1     -27.846  -1.005  25.820  1.00  0.00     0.148 C 
ENDROOT
BRANCH   6  12
HETATM   12  N2  UNL     1     -30.464   2.150  25.531  1.00  0.00    -0.360 NA
HETATM   13  C7  UNL     1     -31.459   3.045  25.610  1.00  0.00     0.265 C 
HETATM   14  N3  UNL     1     -31.477   4.114  26.560  1.00  0.00    -0.049 NA
HETATM   15  N4  UNL     1     -32.494   2.989  24.802  1.00  0.00    -0.345 N 
ATOM     16  H4  UNL     1     -32.522   2.244  24.106  1.00  0.00     0.164 HD
BRANCH  15  17
HETATM   17  C8  UNL     1     -33.563   3.900  24.845  1.00  0.00     0.022 C 
HETATM   18  C9  UNL     1     -34.311   3.963  26.166  1.00  0.00     0.037 C 
HETATM   19  C10 UNL     1     -34.634   3.513  23.780  1.00  0.00     0.037 C 
HETATM   20  C11 UNL     1     -33.097   5.275  24.393  1.00  0.00     0.037 C 
ENDBRANCH  15  17
ENDBRANCH   6  12
BRANCH   8  21
HETATM   21  C13 UNL     1     -27.573   1.800  28.692  1.00  0.00     0.225 C 
BRANCH  21  22
HETATM   22  N6  UNL     1     -26.316   2.495  28.813  1.00  0.00    -0.356 N 
HETATM   23  C14 UNL     1     -25.085   1.809  28.539  1.00  0.00     0.182 C 
HETATM   24  N7  UNL     1     -24.979   0.642  28.094  1.00  0.00    -0.374 N 
HETATM   25  N8  UNL     1     -23.851   2.525  28.816  1.00  0.00    -0.064 NA
ATOM     26  H72 UNL     1     -25.845   0.138  27.899  1.00  0.00     0.158 HD
ATOM     27  H71 UNL     1     -24.105   0.154  27.898  1.00  0.00     0.158 HD
ATOM     28  H6  UNL     1     -26.301   3.476  29.095  1.00  0.00     0.162 HD
ENDBRANCH  21  22
ENDBRANCH   8  21
BRANCH   1  29
HETATM   29  O1  UNL     1     -29.538  -3.438  23.599  1.00  0.00    -0.304 OA
BRANCH  29  30
HETATM   30  C2  UNL     1     -28.980  -3.958  22.410  1.00  0.00     0.176 C 
HETATM   31  C1  UNL     1     -29.497  -3.154  21.237  1.00  0.00     0.034 C 
ENDBRANCH  29  30
ENDBRANCH   1  29
TORSDOF 6
ENDMDL
MODEL 4
REMARK VINA RESULT: -6.762282505      2.936      7.309
REMARK  6 active torsions:
REMARK  status: ('A' for Active; 'I' for Inactive)
REMARK    1  A    between atoms: C2_2  and  O1_3 
REMARK    2  A    between atoms: O1_3  and  C3_4 
REMARK       I    between atoms: C3_4  and  N1_6 
REMARK    3  A    between atoms: C6_9  and  N2_10 
REMARK       I    between atoms: N2_10  and  C7_11 
REMARK    4  A    between atoms: N4_13  and  C8_15 
REMARK       I    between atoms: N5_19  and  C12_20 
REMARK    5  A    between atoms: C12_20  and  C13_22 
REMARK    6  A    between atoms: C13_22  and  N6_23 
REMARK       I    between atoms: N6_23  and  C14_25 
ROOT
HETATM    1  C3  UNL     1     -24.477   2.754  28.474  1.00  0.00     0.362 C 
HETATM    2  O2  UNL     1     -23.474   2.298  29.046  1.00  0.00    -0.238 OA
HETATM    3  N1  UNL     1     -25.644   2.027  28.109  1.00  0.00    -0.326 N 
HETATM    4  C4  UNL     1     -26.711   2.729  27.446  1.00  0.00     0.136 C 
HETATM    5  C5  UNL     1     -28.014   1.988  27.673  1.00  0.00     0.112 C 
HETATM    6  C6  UNL     1     -28.061   0.715  26.837  1.00  0.00     0.165 C 
HETATM    7  N5  UNL     1     -27.192  -0.427  27.048  1.00  0.00    -0.293 N 
HETATM    8  C12 UNL     1     -27.779  -1.705  27.094  1.00  0.00     0.243 C 
HETATM    9  O3  UNL     1     -29.015  -1.874  27.058  1.00  0.00    -0.271 OA
HETATM   10  C15 UNL     1     -25.748  -0.297  27.258  1.00  0.00     0.154 C 
HETATM   11  C16 UNL     1     -25.605   0.627  28.466  1.00  0.00     0.148 C 
ENDROOT
BRANCH   6  12
HETATM   12  N2  UNL     1     -28.844   0.725  25.940  1.00  0.00    -0.360 NA
HETATM   13  C7  UNL     1     -29.726   0.732  24.930  1.00  0.00     0.265 C 
HETATM   14  N3  UNL     1     -30.995   0.073  24.993  1.00  0.00    -0.049 NA
HETATM   15  N4  UNL     1     -29.470   1.358  23.804  1.00  0.00    -0.345 N 
ATOM     16  H4  UNL     1     -28.577   1.844  23.715  1.00  0.00     0.164 HD
BRANCH  15  17
HETATM   17  C8  UNL     1     -30.357   1.393  22.715  1.00  0.00     0.022 C 
HETATM   18  C9  UNL     1     -30.745   0.038  22.147  1.00  0.00     0.037 C 
HETATM   19  C10 UNL     1     -29.713   2.171  21.527  1.00  0.00     0.037 C 
HETATM   20  C11 UNL     1     -31.579   2.230  23.063  1.00  0.00     0.037 C 
ENDBRANCH  15  17
ENDBRANCH   6  12
BRANCH   8  21
HETATM   21  C13 UNL     1     -26.969  -2.936  27.187  1.00  0.00     0.225 C 
BRANCH  21  22
HETATM   22  N6  UNL     1     -26.686  -3.543  25.910  1.00  0.00    -0.356 N 
HETATM   23  C14 UNL     1     -27.570  -4.538  25.374  1.00  0.00     0.182 C 
HETATM   24  N7  UNL     1     -28.666  -4.891  25.871  1.00  0.00    -0.374 N 
HETATM   25  N8  UNL     1     -27.152  -5.208  24.154  1.00  0.00    -0.064 NA
ATOM     26  H72 UNL     1     -28.960  -4.421  26.728  1.00  0.00     0.158 HD
ATOM     27  H71 UNL     1     -29.294  -5.598  25.490  1.00  0.00     0.158 HD
ATOM     28  H6  UNL     1     -25.855  -3.264  25.387  1.00  0.00     0.162 HD
ENDBRANCH  21  22
ENDBRANCH   8  21
BRANCH   1  29
HETATM   29  O1  UNL     1     -24.452   4.133  28.156  1.00  0.00    -0.304 OA
BRANCH  29  30
HETATM   30  C2  UNL     1     -24.406   4.495  26.792  1.00  0.00     0.176 C 
HETATM   31  C1  UNL     1     -24.112   5.977  26.691  1.00  0.00     0.034 C 
ENDBRANCH  29  30
ENDBRANCH   1  29
TORSDOF 6
ENDMDL
MODEL 5
REMARK VINA RESULT: -6.717937004      2.426      6.287
REMARK  6 active torsions:
REMARK  status: ('A' for Active; 'I' for Inactive)
REMARK    1  A    between atoms: C2_2  and  O1_3 
REMARK    2  A    between atoms: O1_3  and  C3_4 
REMARK       I    between atoms: C3_4  and  N1_6 
REMARK    3  A    between atoms: C6_9  and  N2_10 
REMARK       I    between atoms: N2_10  and  C7_11 
REMARK    4  A    between atoms: N4_13  and  C8_15 
REMARK       I    between atoms: N5_19  and  C12_20 
REMARK    5  A    between atoms: C12_20  and  C13_22 
REMARK    6  A    between atoms: C13_22  and  N6_23 
REMARK       I    between atoms: N6_23  and  C14_25 
ROOT
HETATM    1  C3  UNL     1     -29.066  -3.172  25.392  1.00  0.00     0.362 C 
HETATM    2  O2  UNL     1     -28.287  -3.931  25.992  1.00  0.00    -0.238 OA
HETATM    3  N1  UNL     1     -29.099  -1.753  25.483  1.00  0.00    -0.326 N 
HETATM    4  C4  UNL     1     -30.080  -1.038  24.710  1.00  0.00     0.136 C 
HETATM    5  C5  UNL     1     -29.597   0.380  24.478  1.00  0.00     0.112 C 
HETATM    6  C6  UNL     1     -29.709   1.202  25.756  1.00  0.00     0.165 C 
HETATM    7  N5  UNL     1     -28.919   0.960  26.949  1.00  0.00    -0.293 N 
HETATM    8  C12 UNL     1     -28.292   2.061  27.560  1.00  0.00     0.243 C 
HETATM    9  O3  UNL     1     -28.313   3.204  27.060  1.00  0.00    -0.271 OA
HETATM   10  C15 UNL     1     -28.715  -0.379  27.507  1.00  0.00     0.154 C 
HETATM   11  C16 UNL     1     -28.104  -1.194  26.370  1.00  0.00     0.148 C 
ENDROOT
BRANCH   6  12
HETATM   12  N2  UNL     1     -30.542   2.053  25.741  1.00  0.00    -0.360 NA
HETATM   13  C7  UNL     1     -31.481   3.011  25.729  1.00  0.00     0.265 C 
HETATM   14  N3  UNL     1     -31.469   4.130  26.621  1.00  0.00    -0.049 NA
HETATM   15  N4  UNL     1     -32.483   2.975  24.881  1.00  0.00    -0.345 N 
ATOM     16  H4  UNL     1     -32.530   2.196  24.224  1.00  0.00     0.164 HD
BRANCH  15  17
HETATM   17  C8  UNL     1     -33.492   3.951  24.829  1.00  0.00     0.022 C 
HETATM   18  C9  UNL     1     -34.235   4.189  26.133  1.00  0.00     0.037 C 
HETATM   19  C10 UNL     1     -34.586   3.530  23.801  1.00  0.00     0.037 C 
HETATM   20  C11 UNL     1     -32.941   5.244  24.248  1.00  0.00     0.037 C 
ENDBRANCH  15  17
ENDBRANCH   6  12
BRANCH   8  21
HETATM   21  C13 UNL     1     -27.565   1.937  28.839  1.00  0.00     0.225 C 
BRANCH  21  22
HETATM   22  N6  UNL     1     -26.300   2.628  28.858  1.00  0.00    -0.356 N 
HETATM   23  C14 UNL     1     -25.086   1.916  28.573  1.00  0.00     0.182 C 
HETATM   24  N7  UNL     1     -25.007   0.722  28.200  1.00  0.00    -0.374 N 
HETATM   25  N8  UNL     1     -23.838   2.639  28.748  1.00  0.00    -0.064 NA
ATOM     26  H72 UNL     1     -25.883   0.214  28.077  1.00  0.00     0.158 HD
ATOM     27  H71 UNL     1     -24.145   0.217  27.998  1.00  0.00     0.158 HD
ATOM     28  H6  UNL     1     -26.267   3.625  29.075  1.00  0.00     0.162 HD
ENDBRANCH  21  22
ENDBRANCH   8  21
BRANCH   1  29
HETATM   29  O1  UNL     1     -30.012  -3.784  24.537  1.00  0.00    -0.304 OA
BRANCH  29  30
HETATM   30  C2  UNL     1     -30.849  -4.782  25.084  1.00  0.00     0.176 C 
HETATM   31  C1  UNL     1     -31.881  -4.120  25.971  1.00  0.00     0.034 C 
ENDBRANCH  29  30
ENDBRANCH   1  29
TORSDOF 6
ENDMDL
