MODEL 1
REMARK VINA RESULT: -8.827093385      0.000      0.000
REMARK  4 active torsions:
REMARK  status: ('A' for Active; 'I' for Inactive)
REMARK    1  A    between atoms: C1_2  and  C2_4 
REMARK    2  A    between atoms: C7_9  and  N2_10 
REMARK       I    between atoms: N2_10  and  C8_12 
REMARK    3  A    between atoms: C8_12  and  C9_14 
REMARK    4  A    between atoms: N3_18  and  C13_19 
ROOT
HETATM    1  N2  UNL     1     -21.517 -32.808  -1.179  1.00  0.00    -0.355 N 
ATOM      2  H2  UNL     1     -21.774 -31.831  -1.038  1.00  0.00     0.162 HD
HETATM    3  C8  UNL     1     -21.177 -33.233  -2.499  1.00  0.00     0.223 C 
HETATM    4  O2  UNL     1     -20.865 -34.431  -2.659  1.00  0.00    -0.273 OA
ENDROOT
BRANCH   3   5
HETATM    5  C9  UNL     1     -21.184 -32.318  -3.656  1.00  0.00     0.096 C 
HETATM    6  C10 UNL     1     -22.337 -31.356  -3.627  1.00  0.00     0.021 C 
HETATM    7  C11 UNL     1     -22.572 -30.566  -4.853  1.00  0.00     0.045 C 
HETATM    8  C12 UNL     1     -21.772 -31.106  -6.018  1.00  0.00     0.058 C 
HETATM    9  N3  UNL     1     -21.784 -32.490  -6.016  1.00  0.00    -0.388 N 
HETATM   10  C18 UNL     1     -21.148 -33.140  -4.924  1.00  0.00     0.136 C 
BRANCH   9  11
HETATM   11  C13 UNL     1     -22.462 -33.270  -6.946  1.00  0.00     0.087 C 
HETATM   12  C14 UNL     1     -21.942 -34.685  -6.926  1.00  0.00     0.051 C 
HETATM   13  C15 UNL     1     -22.105 -35.280  -8.327  1.00  0.00     0.169 C 
HETATM   14  O3  UNL     1     -21.250 -34.549  -9.123  1.00  0.00    -0.391 OA
HETATM   15  C16 UNL     1     -21.714 -33.285  -9.358  1.00  0.00     0.169 C 
HETATM   16  C17 UNL     1     -22.590 -32.699  -8.326  1.00  0.00     0.051 C 
ENDBRANCH   9  11
ENDBRANCH   3   5
BRANCH   1  17
HETATM   17  C7  UNL     1     -21.517 -33.682  -0.041  1.00  0.00     0.097 C 
HETATM   18  C2  UNL     1     -22.097 -33.024   1.168  1.00  0.00     0.097 C 
HETATM   19  C3  UNL     1     -22.037 -33.898   2.395  1.00  0.00     0.015 C 
HETATM   20  C4  UNL     1     -22.256 -35.348   2.121  1.00  0.00     0.001 C 
HETATM   21  C5  UNL     1     -22.931 -35.598   0.795  1.00  0.00     0.002 C 
HETATM   22  C6  UNL     1     -22.175 -35.011  -0.351  1.00  0.00     0.026 C 
BRANCH  18  23
HETATM   23  C1  UNL     1     -21.344 -31.793   1.488  1.00  0.00     0.237 C 
HETATM   24  N1  UNL     1     -21.360 -31.299   2.808  1.00  0.00    -0.062 NA
HETATM   25  O1  UNL     1     -20.696 -31.183   0.613  1.00  0.00    -0.276 OA
ENDBRANCH  18  23
ENDBRANCH   1  17
TORSDOF 4
ENDMDL
MODEL 2
REMARK VINA RESULT: -8.499800843      1.815      2.354
REMARK  4 active torsions:
REMARK  status: ('A' for Active; 'I' for Inactive)
REMARK    1  A    between atoms: C1_2  and  C2_4 
REMARK    2  A    between atoms: C7_9  and  N2_10 
REMARK       I    between atoms: N2_10  and  C8_12 
REMARK    3  A    between atoms: C8_12  and  C9_14 
REMARK    4  A    between atoms: N3_18  and  C13_19 
ROOT
HETATM    1  N2  UNL     1     -22.116 -34.463  -2.718  1.00  0.00    -0.355 N 
ATOM      2  H2  UNL     1     -22.928 -33.870  -2.551  1.00  0.00     0.162 HD
HETATM    3  C8  UNL     1     -21.111 -33.996  -3.618  1.00  0.00     0.223 C 
HETATM    4  O2  UNL     1     -20.122 -34.732  -3.814  1.00  0.00    -0.273 OA
ENDROOT
BRANCH   3   5
HETATM    5  C9  UNL     1     -21.204 -32.695  -4.308  1.00  0.00     0.096 C 
HETATM    6  C10 UNL     1     -22.380 -31.881  -3.852  1.00  0.00     0.021 C 
HETATM    7  C11 UNL     1     -22.702 -30.678  -4.648  1.00  0.00     0.045 C 
HETATM    8  C12 UNL     1     -21.949 -30.669  -5.960  1.00  0.00     0.058 C 
HETATM    9  N3  UNL     1     -21.923 -31.937  -6.514  1.00  0.00    -0.388 N 
HETATM   10  C18 UNL     1     -21.213 -32.939  -5.800  1.00  0.00     0.136 C 
BRANCH   9  11
HETATM   11  C13 UNL     1     -22.627 -32.310  -7.653  1.00  0.00     0.087 C 
HETATM   12  C14 UNL     1     -22.212 -33.688  -8.101  1.00  0.00     0.051 C 
HETATM   13  C15 UNL     1     -22.376 -33.773  -9.621  1.00  0.00     0.169 C 
HETATM   14  O3  UNL     1     -21.446 -32.890 -10.126  1.00  0.00    -0.391 OA
HETATM   15  C16 UNL     1     -21.810 -31.587  -9.930  1.00  0.00     0.169 C 
HETATM   16  C17 UNL     1     -22.672 -31.307  -8.766  1.00  0.00     0.051 C 
ENDBRANCH   9  11
ENDBRANCH   3   5
BRANCH   1  17
HETATM   17  C7  UNL     1     -22.044 -35.724  -2.036  1.00  0.00     0.097 C 
HETATM   18  C2  UNL     1     -22.567 -35.634  -0.639  1.00  0.00     0.097 C 
HETATM   19  C3  UNL     1     -22.431 -36.930   0.120  1.00  0.00     0.015 C 
HETATM   20  C4  UNL     1     -22.648 -38.148  -0.712  1.00  0.00     0.001 C 
HETATM   21  C5  UNL     1     -23.389 -37.860  -1.994  1.00  0.00     0.002 C 
HETATM   22  C6  UNL     1     -22.702 -36.833  -2.832  1.00  0.00     0.026 C 
BRANCH  18  23
HETATM   23  C1  UNL     1     -21.814 -34.616   0.121  1.00  0.00     0.237 C 
HETATM   24  N1  UNL     1     -21.440 -34.887   1.452  1.00  0.00    -0.062 NA
HETATM   25  O1  UNL     1     -21.502 -33.521  -0.392  1.00  0.00    -0.276 OA
ENDBRANCH  18  23
ENDBRANCH   1  17
TORSDOF 4
ENDMDL
MODEL 3
REMARK VINA RESULT: -8.474838135      1.785      2.280
REMARK  4 active torsions:
REMARK  status: ('A' for Active; 'I' for Inactive)
REMARK    1  A    between atoms: C1_2  and  C2_4 
REMARK    2  A    between atoms: C7_9  and  N2_10 
REMARK       I    between atoms: N2_10  and  C8_12 
REMARK    3  A    between atoms: C8_12  and  C9_14 
REMARK    4  A    between atoms: N3_18  and  C13_19 
ROOT
HETATM    1  N2  UNL     1     -21.463 -32.937  -3.204  1.00  0.00    -0.355 N 
ATOM      2  H2  UNL     1     -22.332 -32.430  -3.372  1.00  0.00     0.162 HD
HETATM    3  C8  UNL     1     -20.582 -33.152  -4.306  1.00  0.00     0.223 C 
HETATM    4  O2  UNL     1     -19.523 -33.774  -4.087  1.00  0.00    -0.273 OA
ENDROOT
BRANCH   3   5
HETATM    5  C9  UNL     1     -20.880 -32.671  -5.669  1.00  0.00     0.096 C 
HETATM    6  C10 UNL     1     -22.103 -31.801  -5.721  1.00  0.00     0.021 C 
HETATM    7  C11 UNL     1     -22.625 -31.470  -7.063  1.00  0.00     0.045 C 
HETATM    8  C12 UNL     1     -21.985 -32.331  -8.129  1.00  0.00     0.058 C 
HETATM    9  N3  UNL     1     -21.855 -33.636  -7.687  1.00  0.00    -0.388 N 
HETATM   10  C18 UNL     1     -20.979 -33.863  -6.592  1.00  0.00     0.136 C 
BRANCH   9  11
HETATM   11  C13 UNL     1     -22.599 -34.706  -8.172  1.00  0.00     0.087 C 
HETATM   12  C14 UNL     1     -22.342 -35.942  -7.348  1.00  0.00     0.051 C 
HETATM   13  C15 UNL     1     -22.518 -37.168  -8.248  1.00  0.00     0.169 C 
HETATM   14  O3  UNL     1     -21.496 -37.080  -9.169  1.00  0.00    -0.391 OA
HETATM   15  C16 UNL     1     -21.711 -36.091 -10.087  1.00  0.00     0.169 C 
HETATM   16  C17 UNL     1     -22.534 -34.947  -9.650  1.00  0.00     0.051 C 
ENDBRANCH   9  11
ENDBRANCH   3   5
BRANCH   1  17
HETATM   17  C7  UNL     1     -21.192 -33.396  -1.872  1.00  0.00     0.097 C 
HETATM   18  C2  UNL     1     -21.697 -32.442  -0.838  1.00  0.00     0.097 C 
HETATM   19  C3  UNL     1     -21.355 -32.868   0.567  1.00  0.00     0.015 C 
HETATM   20  C4  UNL     1     -21.403 -34.343   0.784  1.00  0.00     0.001 C 
HETATM   21  C5  UNL     1     -22.203 -35.066  -0.271  1.00  0.00     0.002 C 
HETATM   22  C6  UNL     1     -21.692 -34.809  -1.650  1.00  0.00     0.026 C 
BRANCH  18  23
HETATM   23  C1  UNL     1     -21.089 -31.109  -1.037  1.00  0.00     0.237 C 
HETATM   24  N1  UNL     1     -21.516 -30.312  -2.117  1.00  0.00    -0.062 NA
HETATM   25  O1  UNL     1     -20.207 -30.678  -0.267  1.00  0.00    -0.276 OA
ENDBRANCH  18  23
ENDBRANCH   1  17
TORSDOF 4
ENDMDL
MODEL 4
REMARK VINA RESULT: -8.407243408      2.886      4.699
REMARK  4 active torsions:
REMARK  status: ('A' for Active; 'I' for Inactive)
REMARK    1  A    between atoms: C1_2  and  C2_4 
REMARK    2  A    between atoms: C7_9  and  N2_10 
REMARK       I    between atoms: N2_10  and  C8_12 
REMARK    3  A    between atoms: C8_12  and  C9_14 
REMARK    4  A    between atoms: N3_18  and  C13_19 
ROOT
HETATM    1  N2  UNL     1     -22.494 -34.443   0.553  1.00  0.00    -0.355 N 
ATOM      2  H2  UNL     1     -22.757 -34.026  -0.339  1.00  0.00     0.162 HD
HETATM    3  C8  UNL     1     -22.680 -35.849   0.723  1.00  0.00     0.223 C 
HETATM    4  O2  UNL     1     -22.356 -36.347   1.820  1.00  0.00    -0.273 OA
ENDROOT
BRANCH   3   5
HETATM    5  C9  UNL     1     -23.233 -36.712  -0.339  1.00  0.00     0.096 C 
HETATM    6  C10 UNL     1     -22.701 -38.114  -0.279  1.00  0.00     0.021 C 
HETATM    7  C11 UNL     1     -23.001 -38.987  -1.434  1.00  0.00     0.045 C 
HETATM    8  C12 UNL     1     -23.543 -38.189  -2.600  1.00  0.00     0.058 C 
HETATM    9  N3  UNL     1     -22.856 -36.995  -2.733  1.00  0.00    -0.388 N 
HETATM   10  C18 UNL     1     -22.984 -36.054  -1.676  1.00  0.00     0.136 C 
BRANCH   9  11
HETATM   11  C13 UNL     1     -21.976 -36.708  -3.771  1.00  0.00     0.087 C 
HETATM   12  C14 UNL     1     -21.437 -35.307  -3.632  1.00  0.00     0.051 C 
HETATM   13  C15 UNL     1     -21.128 -34.767  -5.031  1.00  0.00     0.169 C 
HETATM   14  O3  UNL     1     -22.356 -34.665  -5.649  1.00  0.00    -0.391 OA
HETATM   15  C16 UNL     1     -22.869 -35.886  -5.985  1.00  0.00     0.169 C 
HETATM   16  C17 UNL     1     -22.451 -37.032  -5.155  1.00  0.00     0.051 C 
ENDBRANCH   9  11
ENDBRANCH   3   5
BRANCH   1  17
HETATM   17  C7  UNL     1     -21.958 -33.587   1.572  1.00  0.00     0.097 C 
HETATM   18  C2  UNL     1     -21.945 -32.154   1.147  1.00  0.00     0.097 C 
HETATM   19  C3  UNL     1     -21.316 -31.246   2.173  1.00  0.00     0.015 C 
HETATM   20  C4  UNL     1     -21.601 -31.633   3.585  1.00  0.00     0.001 C 
HETATM   21  C5  UNL     1     -22.795 -32.545   3.714  1.00  0.00     0.002 C 
HETATM   22  C6  UNL     1     -22.653 -33.791   2.903  1.00  0.00     0.026 C 
BRANCH  18  23
HETATM   23  C1  UNL     1     -21.160 -31.999  -0.095  1.00  0.00     0.237 C 
HETATM   24  N1  UNL     1     -20.424 -30.815  -0.301  1.00  0.00    -0.062 NA
HETATM   25  O1  UNL     1     -21.135 -32.896  -0.963  1.00  0.00    -0.276 OA
ENDBRANCH  18  23
ENDBRANCH   1  17
TORSDOF 4
ENDMDL
MODEL 5
REMARK VINA RESULT: -8.344202098      3.193      4.505
REMARK  4 active torsions:
REMARK  status: ('A' for Active; 'I' for Inactive)
REMARK    1  A    between atoms: C1_2  and  C2_4 
REMARK    2  A    between atoms: C7_9  and  N2_10 
REMARK       I    between atoms: N2_10  and  C8_12 
REMARK    3  A    between atoms: C8_12  and  C9_14 
REMARK    4  A    between atoms: N3_18  and  C13_19 
ROOT
HETATM    1  N2  UNL     1     -22.212 -34.846  -3.631  1.00  0.00    -0.355 N 
ATOM      2  H2  UNL     1     -21.193 -34.817  -3.648  1.00  0.00     0.162 HD
HETATM    3  C8  UNL     1     -22.929 -33.834  -4.338  1.00  0.00     0.223 C 
HETATM    4  O2  UNL     1     -24.175 -33.881  -4.309  1.00  0.00    -0.273 OA
ENDROOT
BRANCH   3   5
HETATM    5  C9  UNL     1     -22.254 -32.757  -5.088  1.00  0.00     0.096 C 
HETATM    6  C10 UNL     1     -22.845 -31.404  -4.815  1.00  0.00     0.021 C 
HETATM    7  C11 UNL     1     -22.406 -30.300  -5.693  1.00  0.00     0.045 C 
HETATM    8  C12 UNL     1     -21.659 -30.821  -6.901  1.00  0.00     0.058 C 
HETATM    9  N3  UNL     1     -22.268 -31.961  -7.395  1.00  0.00    -0.388 N 
HETATM   10  C18 UNL     1     -22.267 -33.109  -6.558  1.00  0.00     0.136 C 
BRANCH   9  11
HETATM   11  C13 UNL     1     -22.965 -32.020  -8.596  1.00  0.00     0.087 C 
HETATM   12  C14 UNL     1     -22.889 -33.406  -9.182  1.00  0.00     0.051 C 
HETATM   13  C15 UNL     1     -22.965 -33.292 -10.707  1.00  0.00     0.169 C 
HETATM   14  O3  UNL     1     -21.806 -32.639 -11.070  1.00  0.00    -0.391 OA
HETATM   15  C16 UNL     1     -21.836 -31.313 -10.741  1.00  0.00     0.169 C 
HETATM   16  C17 UNL     1     -22.674 -30.934  -9.588  1.00  0.00     0.051 C 
ENDBRANCH   9  11
ENDBRANCH   3   5
BRANCH   1  17
HETATM   17  C7  UNL     1     -22.849 -35.901  -2.896  1.00  0.00     0.097 C 
HETATM   18  C2  UNL     1     -22.601 -37.239  -3.513  1.00  0.00     0.097 C 
HETATM   19  C3  UNL     1     -23.324 -38.354  -2.801  1.00  0.00     0.015 C 
HETATM   20  C4  UNL     1     -23.398 -38.184  -1.321  1.00  0.00     0.001 C 
HETATM   21  C5  UNL     1     -22.375 -37.210  -0.790  1.00  0.00     0.002 C 
HETATM   22  C6  UNL     1     -22.486 -35.863  -1.426  1.00  0.00     0.026 C 
BRANCH  18  23
HETATM   23  C1  UNL     1     -23.077 -37.251  -4.912  1.00  0.00     0.237 C 
HETATM   24  N1  UNL     1     -22.144 -37.114  -5.959  1.00  0.00    -0.062 NA
HETATM   25  O1  UNL     1     -24.289 -37.380  -5.184  1.00  0.00    -0.276 OA
ENDBRANCH  18  23
ENDBRANCH   1  17
TORSDOF 4
ENDMDL
