MODEL 1
REMARK VINA RESULT: -8.661141850      0.000      0.000
REMARK  4 active torsions:
REMARK  status: ('A' for Active; 'I' for Inactive)
REMARK       I    between atoms: N1_4  and  C4_5 
REMARK    1  A    between atoms: C4_5  and  C5_7 
REMARK    2  A    between atoms: C5_7  and  C6_8 
REMARK    3  A    between atoms: C6_8  and  C7_9 
REMARK       I    between atoms: C7_9  and  N2_11 
REMARK    4  A    between atoms: N2_11  and  C8_13 
ROOT
HETATM    1  C7  UNL     1     -21.457 -30.929  -1.930  1.00  0.00     0.218 C 
HETATM    2  O2  UNL     1     -21.852 -29.978  -2.658  1.00  0.00    -0.274 OA
HETATM    3  N2  UNL     1     -21.237 -32.186  -2.557  1.00  0.00    -0.356 N 
ATOM      4  H2  UNL     1     -20.917 -32.972  -1.991  1.00  0.00     0.162 HD
ENDROOT
BRANCH   1   5
HETATM    5  C6  UNL     1     -21.234 -30.742  -0.493  1.00  0.00     0.112 C 
BRANCH   5   6
HETATM    6  C5  UNL     1     -20.458 -31.836   0.174  1.00  0.00     0.112 C 
BRANCH   6   7
HETATM    7  C4  UNL     1     -21.161 -32.220   1.425  1.00  0.00     0.220 C 
HETATM    8  N1  UNL     1     -21.980 -33.375   1.397  1.00  0.00    -0.349 N 
HETATM    9  C3  UNL     1     -22.124 -34.150   0.197  1.00  0.00     0.158 C 
HETATM   10  C18 UNL     1     -22.673 -33.770   2.594  1.00  0.00     0.153 C 
HETATM   11  C2  UNL     1     -21.860 -35.610   0.592  1.00  0.00     0.199 C 
HETATM   12  C1  UNL     1     -21.836 -36.513  -0.611  1.00  0.00     0.041 C 
HETATM   13  N3  UNL     1     -22.910 -35.963   1.524  1.00  0.00    -0.068 N 
HETATM   14  C19 UNL     1     -22.698 -35.276   2.761  1.00  0.00     0.252 C 
ATOM     15  H32 UNL     1     -23.839 -35.792   1.141  1.00  0.00     0.277 HD
ATOM     16  H31 UNL     1     -22.988 -36.972   1.652  1.00  0.00     0.277 HD
HETATM   17  O1  UNL     1     -21.028 -31.531   2.481  1.00  0.00    -0.273 OA
ENDBRANCH   6   7
ENDBRANCH   5   6
ENDBRANCH   1   5
BRANCH   3  18
HETATM   18  C8  UNL     1     -21.454 -32.383  -3.976  1.00  0.00     0.092 C 
HETATM   19  C9  UNL     1     -22.757 -33.083  -4.221  1.00  0.00     0.009 C 
HETATM   20  C10 UNL     1     -22.765 -34.452  -3.593  1.00  0.00     0.011 C 
HETATM   21  C14 UNL     1     -22.949 -33.276  -5.714  1.00  0.00     0.011 C 
HETATM   22  C11 UNL     1     -21.619 -35.237  -4.166  1.00  0.00    -0.013 C 
HETATM   23  C12 UNL     1     -21.809 -35.424  -5.641  1.00  0.00     0.009 C 
HETATM   24  C17 UNL     1     -20.286 -34.590  -3.929  1.00  0.00     0.011 C 
HETATM   25  C13 UNL     1     -21.778 -34.048  -6.289  1.00  0.00    -0.013 C 
HETATM   26  C15 UNL     1     -20.486 -33.338  -6.022  1.00  0.00     0.011 C 
HETATM   27  C16 UNL     1     -20.318 -33.198  -4.525  1.00  0.00     0.009 C 
ENDBRANCH   3  18
TORSDOF 4
ENDMDL
MODEL 2
REMARK VINA RESULT: -7.952036335      2.198      3.716
REMARK  4 active torsions:
REMARK  status: ('A' for Active; 'I' for Inactive)
REMARK       I    between atoms: N1_4  and  C4_5 
REMARK    1  A    between atoms: C4_5  and  C5_7 
REMARK    2  A    between atoms: C5_7  and  C6_8 
REMARK    3  A    between atoms: C6_8  and  C7_9 
REMARK       I    between atoms: C7_9  and  N2_11 
REMARK    4  A    between atoms: N2_11  and  C8_13 
ROOT
HETATM    1  C7  UNL     1     -23.057 -36.371  -2.439  1.00  0.00     0.218 C 
HETATM    2  O2  UNL     1     -23.356 -37.190  -3.351  1.00  0.00    -0.274 OA
HETATM    3  N2  UNL     1     -22.804 -35.026  -2.826  1.00  0.00    -0.356 N 
ATOM      4  H2  UNL     1     -22.561 -34.342  -2.109  1.00  0.00     0.162 HD
ENDROOT
BRANCH   1   5
HETATM    5  C6  UNL     1     -22.977 -36.792  -1.038  1.00  0.00     0.112 C 
BRANCH   5   6
HETATM    6  C5  UNL     1     -21.863 -36.168  -0.254  1.00  0.00     0.112 C 
BRANCH   6   7
HETATM    7  C4  UNL     1     -22.379 -35.800   1.090  1.00  0.00     0.220 C 
HETATM    8  N1  UNL     1     -21.952 -34.571   1.648  1.00  0.00    -0.349 N 
HETATM    9  C3  UNL     1     -21.051 -33.708   0.938  1.00  0.00     0.158 C 
HETATM   10  C18 UNL     1     -22.435 -34.188   2.949  1.00  0.00     0.153 C 
HETATM   11  C2  UNL     1     -21.686 -32.311   0.958  1.00  0.00     0.199 C 
HETATM   12  C1  UNL     1     -20.908 -31.338   0.114  1.00  0.00     0.041 C 
HETATM   13  N3  UNL     1     -21.732 -31.917   2.350  1.00  0.00    -0.068 N 
HETATM   14  C19 UNL     1     -22.715 -32.702   3.033  1.00  0.00     0.252 C 
ATOM     15  H32 UNL     1     -20.817 -31.971   2.796  1.00  0.00     0.277 HD
ATOM     16  H31 UNL     1     -21.891 -30.917   2.463  1.00  0.00     0.277 HD
HETATM   17  O1  UNL     1     -23.175 -36.566   1.711  1.00  0.00    -0.273 OA
ENDBRANCH   6   7
ENDBRANCH   5   6
ENDBRANCH   1   5
BRANCH   3  18
HETATM   18  C8  UNL     1     -22.882 -34.598  -4.208  1.00  0.00     0.092 C 
HETATM   19  C9  UNL     1     -21.706 -35.106  -4.987  1.00  0.00     0.009 C 
HETATM   20  C10 UNL     1     -20.414 -34.556  -4.440  1.00  0.00     0.011 C 
HETATM   21  C14 UNL     1     -21.817 -34.637  -6.425  1.00  0.00     0.011 C 
HETATM   22  C11 UNL     1     -20.483 -33.056  -4.493  1.00  0.00    -0.013 C 
HETATM   23  C12 UNL     1     -20.596 -32.594  -5.914  1.00  0.00     0.009 C 
HETATM   24  C17 UNL     1     -21.633 -32.494  -3.709  1.00  0.00     0.011 C 
HETATM   25  C13 UNL     1     -21.910 -33.124  -6.468  1.00  0.00    -0.013 C 
HETATM   26  C15 UNL     1     -23.084 -32.636  -5.675  1.00  0.00     0.011 C 
HETATM   27  C16 UNL     1     -22.915 -33.097  -4.242  1.00  0.00     0.009 C 
ENDBRANCH   3  18
TORSDOF 4
ENDMDL
MODEL 3
REMARK VINA RESULT: -7.627842687      3.008      4.030
REMARK  4 active torsions:
REMARK  status: ('A' for Active; 'I' for Inactive)
REMARK       I    between atoms: N1_4  and  C4_5 
REMARK    1  A    between atoms: C4_5  and  C5_7 
REMARK    2  A    between atoms: C5_7  and  C6_8 
REMARK    3  A    between atoms: C6_8  and  C7_9 
REMARK       I    between atoms: C7_9  and  N2_11 
REMARK    4  A    between atoms: N2_11  and  C8_13 
ROOT
HETATM    1  C7  UNL     1     -23.065 -34.400  -3.936  1.00  0.00     0.218 C 
HETATM    2  O2  UNL     1     -24.130 -33.839  -4.315  1.00  0.00    -0.274 OA
HETATM    3  N2  UNL     1     -22.933 -35.792  -4.193  1.00  0.00    -0.356 N 
ATOM      4  H2  UNL     1     -22.082 -36.270  -3.897  1.00  0.00     0.162 HD
ENDROOT
BRANCH   1   5
HETATM    5  C6  UNL     1     -22.009 -33.642  -3.259  1.00  0.00     0.112 C 
BRANCH   5   6
HETATM    6  C5  UNL     1     -21.161 -34.443  -2.318  1.00  0.00     0.112 C 
BRANCH   6   7
HETATM    7  C4  UNL     1     -21.471 -34.022  -0.927  1.00  0.00     0.220 C 
HETATM    8  N1  UNL     1     -22.261 -34.889  -0.134  1.00  0.00    -0.349 N 
HETATM    9  C3  UNL     1     -22.746 -36.135  -0.657  1.00  0.00     0.158 C 
HETATM   10  C18 UNL     1     -22.577 -34.507   1.217  1.00  0.00     0.153 C 
HETATM   11  C2  UNL     1     -22.376 -37.210   0.375  1.00  0.00     0.199 C 
HETATM   12  C1  UNL     1     -22.700 -38.591  -0.125  1.00  0.00     0.041 C 
HETATM   13  N3  UNL     1     -23.110 -36.873   1.576  1.00  0.00    -0.068 N 
HETATM   14  C19 UNL     1     -22.551 -35.692   2.159  1.00  0.00     0.252 C 
ATOM     15  H32 UNL     1     -24.111 -36.781   1.403  1.00  0.00     0.277 HD
ATOM     16  H31 UNL     1     -23.147 -37.650   2.236  1.00  0.00     0.277 HD
HETATM   17  O1  UNL     1     -21.039 -32.921  -0.472  1.00  0.00    -0.273 OA
ENDBRANCH   6   7
ENDBRANCH   5   6
ENDBRANCH   1   5
BRANCH   3  18
HETATM   18  C8  UNL     1     -23.970 -36.551  -4.861  1.00  0.00     0.092 C 
HETATM   19  C9  UNL     1     -24.311 -37.785  -4.081  1.00  0.00     0.009 C 
HETATM   20  C10 UNL     1     -23.119 -38.700  -3.964  1.00  0.00     0.011 C 
HETATM   21  C14 UNL     1     -25.394 -38.556  -4.811  1.00  0.00     0.011 C 
HETATM   22  C11 UNL     1     -22.661 -39.052  -5.351  1.00  0.00    -0.013 C 
HETATM   23  C12 UNL     1     -23.734 -39.811  -6.072  1.00  0.00     0.009 C 
HETATM   24  C17 UNL     1     -22.286 -37.851  -6.169  1.00  0.00     0.011 C 
HETATM   25  C13 UNL     1     -24.934 -38.887  -6.217  1.00  0.00    -0.013 C 
HETATM   26  C15 UNL     1     -24.587 -37.642  -6.975  1.00  0.00     0.011 C 
HETATM   27  C16 UNL     1     -23.481 -36.924  -6.231  1.00  0.00     0.009 C 
ENDBRANCH   3  18
TORSDOF 4
ENDMDL
MODEL 4
REMARK VINA RESULT: -7.510399818      2.863      4.147
REMARK  4 active torsions:
REMARK  status: ('A' for Active; 'I' for Inactive)
REMARK       I    between atoms: N1_4  and  C4_5 
REMARK    1  A    between atoms: C4_5  and  C5_7 
REMARK    2  A    between atoms: C5_7  and  C6_8 
REMARK    3  A    between atoms: C6_8  and  C7_9 
REMARK       I    between atoms: C7_9  and  N2_11 
REMARK    4  A    between atoms: N2_11  and  C8_13 
ROOT
HETATM    1  C7  UNL     1     -20.556 -34.165  -4.047  1.00  0.00     0.218 C 
HETATM    2  O2  UNL     1     -19.371 -33.733  -4.027  1.00  0.00    -0.274 OA
HETATM    3  N2  UNL     1     -21.501 -33.445  -4.828  1.00  0.00    -0.356 N 
ATOM      4  H2  UNL     1     -22.466 -33.773  -4.862  1.00  0.00     0.162 HD
ENDROOT
BRANCH   1   5
HETATM    5  C6  UNL     1     -20.939 -35.363  -3.294  1.00  0.00     0.112 C 
BRANCH   5   6
HETATM    6  C5  UNL     1     -22.282 -35.292  -2.635  1.00  0.00     0.112 C 
BRANCH   6   7
HETATM    7  C4  UNL     1     -22.664 -36.658  -2.192  1.00  0.00     0.220 C 
HETATM    8  N1  UNL     1     -22.499 -36.979  -0.823  1.00  0.00    -0.349 N 
HETATM    9  C3  UNL     1     -21.980 -36.016   0.106  1.00  0.00     0.158 C 
HETATM   10  C18 UNL     1     -22.861 -38.295  -0.365  1.00  0.00     0.153 C 
HETATM   11  C2  UNL     1     -22.953 -35.995   1.293  1.00  0.00     0.199 C 
HETATM   12  C1  UNL     1     -22.600 -34.913   2.277  1.00  0.00     0.041 C 
HETATM   13  N3  UNL     1     -22.887 -37.316   1.882  1.00  0.00    -0.068 N 
HETATM   14  C19 UNL     1     -23.509 -38.258   1.003  1.00  0.00     0.252 C 
ATOM     15  H32 UNL     1     -21.933 -37.583   2.123  1.00  0.00     0.277 HD
ATOM     16  H31 UNL     1     -23.287 -37.341   2.819  1.00  0.00     0.277 HD
HETATM   17  O1  UNL     1     -23.123 -37.503  -3.018  1.00  0.00    -0.273 OA
ENDBRANCH   6   7
ENDBRANCH   5   6
ENDBRANCH   1   5
BRANCH   3  18
HETATM   18  C8  UNL     1     -21.134 -32.260  -5.576  1.00  0.00     0.092 C 
HETATM   19  C9  UNL     1     -22.297 -31.320  -5.684  1.00  0.00     0.009 C 
HETATM   20  C10 UNL     1     -23.443 -31.957  -6.427  1.00  0.00     0.011 C 
HETATM   21  C14 UNL     1     -21.880 -30.095  -6.476  1.00  0.00     0.011 C 
HETATM   22  C11 UNL     1     -22.953 -32.361  -7.788  1.00  0.00    -0.013 C 
HETATM   23  C12 UNL     1     -22.537 -31.150  -8.567  1.00  0.00     0.009 C 
HETATM   24  C17 UNL     1     -21.800 -33.321  -7.736  1.00  0.00     0.011 C 
HETATM   25  C13 UNL     1     -21.364 -30.513  -7.839  1.00  0.00    -0.013 C 
HETATM   26  C15 UNL     1     -20.211 -31.460  -7.708  1.00  0.00     0.011 C 
HETATM   27  C16 UNL     1     -20.680 -32.680  -6.944  1.00  0.00     0.009 C 
ENDBRANCH   3  18
TORSDOF 4
ENDMDL
MODEL 5
REMARK VINA RESULT: -7.375019264      2.870      4.311
REMARK  4 active torsions:
REMARK  status: ('A' for Active; 'I' for Inactive)
REMARK       I    between atoms: N1_4  and  C4_5 
REMARK    1  A    between atoms: C4_5  and  C5_7 
REMARK    2  A    between atoms: C5_7  and  C6_8 
REMARK    3  A    between atoms: C6_8  and  C7_9 
REMARK       I    between atoms: C7_9  and  N2_11 
REMARK    4  A    between atoms: N2_11  and  C8_13 
ROOT
HETATM    1  C7  UNL     1     -21.146 -34.479  -4.917  1.00  0.00     0.218 C 
HETATM    2  O2  UNL     1     -21.571 -35.492  -5.538  1.00  0.00    -0.274 OA
HETATM    3  N2  UNL     1     -21.212 -33.226  -5.587  1.00  0.00    -0.356 N 
ATOM      4  H2  UNL     1     -20.876 -32.391  -5.107  1.00  0.00     0.162 HD
ENDROOT
BRANCH   1   5
HETATM    5  C6  UNL     1     -20.607 -34.593  -3.559  1.00  0.00     0.112 C 
BRANCH   5   6
HETATM    6  C5  UNL     1     -21.504 -34.072  -2.478  1.00  0.00     0.112 C 
BRANCH   6   7
HETATM    7  C4  UNL     1     -22.035 -35.226  -1.707  1.00  0.00     0.220 C 
HETATM    8  N1  UNL     1     -21.916 -35.189  -0.297  1.00  0.00    -0.349 N 
HETATM    9  C3  UNL     1     -21.302 -34.074   0.366  1.00  0.00     0.158 C 
HETATM   10  C18 UNL     1     -22.421 -36.293   0.477  1.00  0.00     0.153 C 
HETATM   11  C2  UNL     1     -22.275 -33.640   1.471  1.00  0.00     0.199 C 
HETATM   12  C1  UNL     1     -21.814 -32.378   2.150  1.00  0.00     0.041 C 
HETATM   13  N3  UNL     1     -22.357 -34.758   2.387  1.00  0.00    -0.068 N 
HETATM   14  C19 UNL     1     -23.071 -35.830   1.764  1.00  0.00     0.252 C 
ATOM     15  H32 UNL     1     -21.439 -35.049   2.723  1.00  0.00     0.277 HD
ATOM     16  H31 UNL     1     -22.764 -34.493   3.283  1.00  0.00     0.277 HD
HETATM   17  O1  UNL     1     -22.577 -36.207  -2.298  1.00  0.00    -0.273 OA
ENDBRANCH   6   7
ENDBRANCH   5   6
ENDBRANCH   1   5
BRANCH   3  18
HETATM   18  C8  UNL     1     -21.743 -33.101  -6.929  1.00  0.00     0.092 C 
HETATM   19  C9  UNL     1     -20.641 -32.846  -7.913  1.00  0.00     0.009 C 
HETATM   20  C10 UNL     1     -19.931 -31.552  -7.611  1.00  0.00     0.011 C 
HETATM   21  C14 UNL     1     -21.232 -32.717  -9.305  1.00  0.00     0.011 C 
HETATM   22  C11 UNL     1     -20.945 -30.443  -7.643  1.00  0.00    -0.013 C 
HETATM   23  C12 UNL     1     -21.530 -30.319  -9.018  1.00  0.00     0.009 C 
HETATM   24  C17 UNL     1     -22.061 -30.639  -6.659  1.00  0.00     0.011 C 
HETATM   25  C13 UNL     1     -22.270 -31.612  -9.323  1.00  0.00    -0.013 C 
HETATM   26  C15 UNL     1     -23.355 -31.880  -8.325  1.00  0.00     0.011 C 
HETATM   27  C16 UNL     1     -22.727 -31.967  -6.950  1.00  0.00     0.009 C 
ENDBRANCH   3  18
TORSDOF 4
ENDMDL
