MODEL 1
REMARK VINA RESULT: -8.284953936      0.000      0.000
REMARK  4 active torsions:
REMARK  status: ('A' for Active; 'I' for Inactive)
REMARK    1  A    between atoms: C3_3  and  C4_4 
REMARK    2  A    between atoms: C4_4  and  N1_5 
REMARK       I    between atoms: N1_5  and  C5_7 
REMARK    3  A    between atoms: C5_7  and  C6_9 
REMARK       I    between atoms: N2_14  and  C11_15 
REMARK    4  A    between atoms: C11_15  and  C12_17 
ROOT
HETATM    1  C1  UNL     1     -21.517 -31.953  -3.180  1.00  0.00     0.012 C 
HETATM    2  C2  UNL     1     -22.145 -31.612  -4.151  1.00  0.00    -0.116 C 
HETATM    3  C3  UNL     1     -22.934 -31.202  -5.339  1.00  0.00     0.112 C 
ENDROOT
BRANCH   3   4
HETATM    4  C4  UNL     1     -22.727 -32.213  -6.461  1.00  0.00     0.134 C 
BRANCH   4   5
HETATM    5  N1  UNL     1     -22.626 -33.553  -5.950  1.00  0.00    -0.358 N 
HETATM    6  C5  UNL     1     -22.012 -34.646  -6.569  1.00  0.00     0.240 C 
HETATM    7  O1  UNL     1     -21.476 -34.480  -7.705  1.00  0.00    -0.271 OA
ATOM      8  H1  UNL     1     -23.048 -33.726  -5.037  1.00  0.00     0.162 HD
BRANCH   6   9
HETATM    9  C6  UNL     1     -21.941 -36.002  -5.989  1.00  0.00     0.179 C 
HETATM   10  C7  UNL     1     -22.216 -37.103  -6.981  1.00  0.00     0.035 C 
HETATM   11  C8  UNL     1     -23.669 -37.205  -7.290  1.00  0.00     0.004 C 
HETATM   12  C9  UNL     1     -24.421 -37.532  -6.026  1.00  0.00     0.020 C 
HETATM   13  C10 UNL     1     -24.192 -36.483  -4.950  1.00  0.00     0.127 C 
HETATM   14  N2  UNL     1     -22.817 -36.127  -4.825  1.00  0.00    -0.338 N 
HETATM   15  C11 UNL     1     -22.237 -35.894  -3.557  1.00  0.00     0.224 C 
HETATM   16  O2  UNL     1     -20.990 -35.600  -3.460  1.00  0.00    -0.273 OA
BRANCH  15  17
HETATM   17  C12 UNL     1     -23.017 -35.974  -2.304  1.00  0.00     0.078 C 
HETATM   18  C13 UNL     1     -22.964 -37.426  -1.842  1.00  0.00     0.016 C 
HETATM   19  C14 UNL     1     -23.355 -37.631  -0.422  1.00  0.00     0.034 C 
HETATM   20  C15 UNL     1     -22.520 -36.720   0.485  1.00  0.00     0.190 C 
HETATM   21  N3  UNL     1     -22.739 -37.025   1.883  1.00  0.00    -0.070 N 
HETATM   22  C19 UNL     1     -22.911 -35.329   0.119  1.00  0.00     0.017 C 
HETATM   23  C16 UNL     1     -21.970 -36.079   2.655  1.00  0.00     0.232 C 
ATOM     24  H32 UNL     1     -23.727 -37.038   2.137  1.00  0.00     0.277 HD
ATOM     25  H31 UNL     1     -22.530 -37.995   2.116  1.00  0.00     0.277 HD
HETATM   26  C17 UNL     1     -22.642 -34.720   2.499  1.00  0.00     0.028 C 
HETATM   27  C18 UNL     1     -22.440 -34.282   1.063  1.00  0.00     0.008 C 
HETATM   28  C20 UNL     1     -22.356 -35.071  -1.288  1.00  0.00     0.020 C 
ENDBRANCH  15  17
ENDBRANCH   6   9
ENDBRANCH   4   5
ENDBRANCH   3   4
TORSDOF 4
ENDMDL
MODEL 2
REMARK VINA RESULT: -8.058153471      2.767      8.455
REMARK  4 active torsions:
REMARK  status: ('A' for Active; 'I' for Inactive)
REMARK    1  A    between atoms: C3_3  and  C4_4 
REMARK    2  A    between atoms: C4_4  and  N1_5 
REMARK       I    between atoms: N1_5  and  C5_7 
REMARK    3  A    between atoms: C5_7  and  C6_9 
REMARK       I    between atoms: N2_14  and  C11_15 
REMARK    4  A    between atoms: C11_15  and  C12_17 
ROOT
HETATM    1  C1  UNL     1     -22.265 -33.829   1.892  1.00  0.00     0.012 C 
HETATM    2  C2  UNL     1     -22.269 -34.833   1.227  1.00  0.00    -0.116 C 
HETATM    3  C3  UNL     1     -22.253 -36.068   0.403  1.00  0.00     0.112 C 
ENDROOT
BRANCH   3   4
HETATM    4  C4  UNL     1     -22.621 -35.725  -1.036  1.00  0.00     0.134 C 
BRANCH   4   5
HETATM    5  N1  UNL     1     -21.804 -34.658  -1.548  1.00  0.00    -0.358 N 
HETATM    6  C5  UNL     1     -21.963 -33.986  -2.764  1.00  0.00     0.240 C 
HETATM    7  O1  UNL     1     -22.917 -34.324  -3.526  1.00  0.00    -0.271 OA
ATOM      8  H1  UNL     1     -21.025 -34.360  -0.962  1.00  0.00     0.162 HD
BRANCH   6   9
HETATM    9  C6  UNL     1     -21.087 -32.895  -3.233  1.00  0.00     0.179 C 
HETATM   10  C7  UNL     1     -20.604 -31.986  -2.132  1.00  0.00     0.035 C 
HETATM   11  C8  UNL     1     -21.680 -31.061  -1.680  1.00  0.00     0.004 C 
HETATM   12  C9  UNL     1     -22.101 -30.191  -2.836  1.00  0.00     0.020 C 
HETATM   13  C10 UNL     1     -22.590 -31.020  -4.012  1.00  0.00     0.127 C 
HETATM   14  N2  UNL     1     -21.727 -32.120  -4.296  1.00  0.00    -0.338 N 
HETATM   15  C11 UNL     1     -21.442 -32.499  -5.628  1.00  0.00     0.224 C 
HETATM   16  O2  UNL     1     -20.643 -33.476  -5.865  1.00  0.00    -0.273 OA
BRANCH  15  17
HETATM   17  C12 UNL     1     -22.037 -31.807  -6.791  1.00  0.00     0.078 C 
HETATM   18  C13 UNL     1     -20.982 -30.843  -7.319  1.00  0.00     0.016 C 
HETATM   19  C14 UNL     1     -21.242 -30.346  -8.697  1.00  0.00     0.034 C 
HETATM   20  C15 UNL     1     -21.452 -31.530  -9.648  1.00  0.00     0.190 C 
HETATM   21  N3  UNL     1     -21.522 -31.092 -11.025  1.00  0.00    -0.070 N 
HETATM   22  C19 UNL     1     -22.700 -32.199  -9.179  1.00  0.00     0.017 C 
HETATM   23  C16 UNL     1     -21.788 -32.257 -11.834  1.00  0.00     0.232 C 
ATOM     24  H32 UNL     1     -22.199 -30.343 -11.171  1.00  0.00     0.277 HD
ATOM     25  H31 UNL     1     -20.692 -30.580 -11.323  1.00  0.00     0.277 HD
HETATM   26  C17 UNL     1     -23.221 -32.687 -11.545  1.00  0.00     0.028 C 
HETATM   27  C18 UNL     1     -23.257 -33.204 -10.121  1.00  0.00     0.008 C 
HETATM   28  C20 UNL     1     -22.370 -32.852  -7.831  1.00  0.00     0.020 C 
ENDBRANCH  15  17
ENDBRANCH   6   9
ENDBRANCH   4   5
ENDBRANCH   3   4
TORSDOF 4
ENDMDL
MODEL 3
REMARK VINA RESULT: -8.040044992      1.581      2.034
REMARK  4 active torsions:
REMARK  status: ('A' for Active; 'I' for Inactive)
REMARK    1  A    between atoms: C3_3  and  C4_4 
REMARK    2  A    between atoms: C4_4  and  N1_5 
REMARK       I    between atoms: N1_5  and  C5_7 
REMARK    3  A    between atoms: C5_7  and  C6_9 
REMARK       I    between atoms: N2_14  and  C11_15 
REMARK    4  A    between atoms: C11_15  and  C12_17 
ROOT
HETATM    1  C1  UNL     1     -22.624 -30.728  -4.782  1.00  0.00     0.012 C 
HETATM    2  C2  UNL     1     -22.377 -30.870  -5.953  1.00  0.00    -0.116 C 
HETATM    3  C3  UNL     1     -22.089 -31.034  -7.400  1.00  0.00     0.112 C 
ENDROOT
BRANCH   3   4
HETATM    4  C4  UNL     1     -22.774 -32.293  -7.916  1.00  0.00     0.134 C 
BRANCH   4   5
HETATM    5  N1  UNL     1     -22.573 -33.405  -7.026  1.00  0.00    -0.358 N 
HETATM    6  C5  UNL     1     -22.016 -34.647  -7.343  1.00  0.00     0.240 C 
HETATM    7  O1  UNL     1     -21.635 -34.857  -8.533  1.00  0.00    -0.271 OA
ATOM      8  H1  UNL     1     -22.869 -33.273  -6.059  1.00  0.00     0.162 HD
BRANCH   6   9
HETATM    9  C6  UNL     1     -21.836 -35.751  -6.379  1.00  0.00     0.179 C 
HETATM   10  C7  UNL     1     -22.268 -37.095  -6.906  1.00  0.00     0.035 C 
HETATM   11  C8  UNL     1     -23.752 -37.220  -6.922  1.00  0.00     0.004 C 
HETATM   12  C9  UNL     1     -24.273 -37.094  -5.514  1.00  0.00     0.020 C 
HETATM   13  C10 UNL     1     -23.872 -35.770  -4.884  1.00  0.00     0.127 C 
HETATM   14  N2  UNL     1     -22.498 -35.459  -5.108  1.00  0.00    -0.338 N 
HETATM   15  C11 UNL     1     -21.711 -34.863  -4.096  1.00  0.00     0.224 C 
HETATM   16  O2  UNL     1     -20.468 -34.613  -4.307  1.00  0.00    -0.273 OA
BRANCH  15  17
HETATM   17  C12 UNL     1     -22.263 -34.505  -2.773  1.00  0.00     0.078 C 
HETATM   18  C13 UNL     1     -22.080 -35.721  -1.873  1.00  0.00     0.016 C 
HETATM   19  C14 UNL     1     -22.216 -35.433  -0.420  1.00  0.00     0.034 C 
HETATM   20  C15 UNL     1     -21.273 -34.292  -0.024  1.00  0.00     0.190 C 
HETATM   21  N3  UNL     1     -21.242 -34.109   1.411  1.00  0.00    -0.070 N 
HETATM   22  C19 UNL     1     -21.772 -33.093  -0.758  1.00  0.00     0.017 C 
HETATM   23  C16 UNL     1     -20.388 -32.978   1.682  1.00  0.00     0.232 C 
ATOM     24  H32 UNL     1     -22.170 -34.015   1.821  1.00  0.00     0.277 HD
ATOM     25  H31 UNL     1     -20.960 -34.951   1.913  1.00  0.00     0.277 HD
HETATM   26  C17 UNL     1     -21.126 -31.733   1.202  1.00  0.00     0.028 C 
HETATM   27  C18 UNL     1     -21.186 -31.802  -0.310  1.00  0.00     0.008 C 
HETATM   28  C20 UNL     1     -21.473 -33.330  -2.243  1.00  0.00     0.020 C 
ENDBRANCH  15  17
ENDBRANCH   6   9
ENDBRANCH   4   5
ENDBRANCH   3   4
TORSDOF 4
ENDMDL
MODEL 4
REMARK VINA RESULT: -7.786152563      1.868      6.921
REMARK  4 active torsions:
REMARK  status: ('A' for Active; 'I' for Inactive)
REMARK    1  A    between atoms: C3_3  and  C4_4 
REMARK    2  A    between atoms: C4_4  and  N1_5 
REMARK       I    between atoms: N1_5  and  C5_7 
REMARK    3  A    between atoms: C5_7  and  C6_9 
REMARK       I    between atoms: N2_14  and  C11_15 
REMARK    4  A    between atoms: C11_15  and  C12_17 
ROOT
HETATM    1  C1  UNL     1     -23.420 -38.350  -2.183  1.00  0.00     0.012 C 
HETATM    2  C2  UNL     1     -22.986 -37.825  -1.189  1.00  0.00    -0.116 C 
HETATM    3  C3  UNL     1     -22.469 -37.182   0.045  1.00  0.00     0.112 C 
ENDROOT
BRANCH   3   4
HETATM    4  C4  UNL     1     -22.693 -35.677  -0.034  1.00  0.00     0.134 C 
BRANCH   4   5
HETATM    5  N1  UNL     1     -22.207 -35.136  -1.275  1.00  0.00    -0.358 N 
HETATM    6  C5  UNL     1     -21.541 -33.922  -1.462  1.00  0.00     0.240 C 
HETATM    7  O1  UNL     1     -21.321 -33.187  -0.453  1.00  0.00    -0.271 OA
ATOM      8  H1  UNL     1     -22.367 -35.700  -2.111  1.00  0.00     0.162 HD
BRANCH   6   9
HETATM    9  C6  UNL     1     -21.065 -33.423  -2.767  1.00  0.00     0.179 C 
HETATM   10  C7  UNL     1     -20.685 -31.965  -2.759  1.00  0.00     0.035 C 
HETATM   11  C8  UNL     1     -21.890 -31.090  -2.753  1.00  0.00     0.004 C 
HETATM   12  C9  UNL     1     -22.692 -31.345  -4.003  1.00  0.00     0.020 C 
HETATM   13  C10 UNL     1     -23.110 -32.801  -4.113  1.00  0.00     0.127 C 
HETATM   14  N2  UNL     1     -22.037 -33.696  -3.826  1.00  0.00    -0.338 N 
HETATM   15  C11 UNL     1     -21.860 -34.886  -4.569  1.00  0.00     0.224 C 
HETATM   16  O2  UNL     1     -20.874 -35.667  -4.312  1.00  0.00    -0.273 OA
BRANCH  15  17
HETATM   17  C12 UNL     1     -22.782 -35.284  -5.654  1.00  0.00     0.078 C 
HETATM   18  C13 UNL     1     -21.958 -35.341  -6.934  1.00  0.00     0.016 C 
HETATM   19  C14 UNL     1     -22.606 -36.087  -8.046  1.00  0.00     0.034 C 
HETATM   20  C15 UNL     1     -23.007 -37.488  -7.571  1.00  0.00     0.190 C 
HETATM   21  N3  UNL     1     -23.470 -38.304  -8.672  1.00  0.00    -0.070 N 
HETATM   22  C19 UNL     1     -24.046 -37.269  -6.524  1.00  0.00     0.017 C 
HETATM   23  C16 UNL     1     -23.887 -39.572  -8.122  1.00  0.00     0.232 C 
ATOM     24  H32 UNL     1     -24.197 -37.852  -9.226  1.00  0.00     0.277 HD
ATOM     25  H31 UNL     1     -22.778 -38.400  -9.415  1.00  0.00     0.277 HD
HETATM   26  C17 UNL     1     -25.165 -39.320  -7.331  1.00  0.00     0.028 C 
HETATM   27  C18 UNL     1     -24.788 -38.492  -6.120  1.00  0.00     0.008 C 
HETATM   28  C20 UNL     1     -23.332 -36.651  -5.316  1.00  0.00     0.020 C 
ENDBRANCH  15  17
ENDBRANCH   6   9
ENDBRANCH   4   5
ENDBRANCH   3   4
TORSDOF 4
ENDMDL
MODEL 5
REMARK VINA RESULT: -7.776793905      2.189      4.568
REMARK  4 active torsions:
REMARK  status: ('A' for Active; 'I' for Inactive)
REMARK    1  A    between atoms: C3_3  and  C4_4 
REMARK    2  A    between atoms: C4_4  and  N1_5 
REMARK       I    between atoms: N1_5  and  C5_7 
REMARK    3  A    between atoms: C5_7  and  C6_9 
REMARK       I    between atoms: N2_14  and  C11_15 
REMARK    4  A    between atoms: C11_15  and  C12_17 
ROOT
HETATM    1  C1  UNL     1     -22.974 -37.367  -3.186  1.00  0.00     0.012 C 
HETATM    2  C2  UNL     1     -22.936 -37.774  -4.319  1.00  0.00    -0.116 C 
HETATM    3  C3  UNL     1     -22.875 -38.290  -5.711  1.00  0.00     0.112 C 
ENDROOT
BRANCH   3   4
HETATM    4  C4  UNL     1     -21.868 -37.474  -6.512  1.00  0.00     0.134 C 
BRANCH   4   5
HETATM    5  N1  UNL     1     -22.020 -36.064  -6.270  1.00  0.00    -0.358 N 
HETATM    6  C5  UNL     1     -22.378 -35.085  -7.201  1.00  0.00     0.240 C 
HETATM    7  O1  UNL     1     -22.600 -35.435  -8.398  1.00  0.00    -0.271 OA
ATOM      8  H1  UNL     1     -21.848 -35.745  -5.317  1.00  0.00     0.162 HD
BRANCH   6   9
HETATM    9  C6  UNL     1     -22.519 -33.649  -6.887  1.00  0.00     0.179 C 
HETATM   10  C7  UNL     1     -22.371 -32.748  -8.086  1.00  0.00     0.035 C 
HETATM   11  C8  UNL     1     -20.945 -32.619  -8.497  1.00  0.00     0.004 C 
HETATM   12  C9  UNL     1     -20.160 -32.006  -7.367  1.00  0.00     0.020 C 
HETATM   13  C10 UNL     1     -20.261 -32.837  -6.098  1.00  0.00     0.127 C 
HETATM   14  N2  UNL     1     -21.600 -33.245  -5.824  1.00  0.00    -0.338 N 
HETATM   15  C11 UNL     1     -22.101 -33.262  -4.502  1.00  0.00     0.224 C 
HETATM   16  O2  UNL     1     -23.317 -33.608  -4.276  1.00  0.00    -0.273 OA
BRANCH  15  17
HETATM   17  C12 UNL     1     -21.270 -32.891  -3.337  1.00  0.00     0.078 C 
HETATM   18  C13 UNL     1     -21.558 -31.425  -3.037  1.00  0.00     0.016 C 
HETATM   19  C14 UNL     1     -21.121 -30.979  -1.687  1.00  0.00     0.034 C 
HETATM   20  C15 UNL     1     -21.715 -31.901  -0.616  1.00  0.00     0.190 C 
HETATM   21  N3  UNL     1     -21.466 -31.391   0.715  1.00  0.00    -0.070 N 
HETATM   22  C19 UNL     1     -21.100 -33.238  -0.857  1.00  0.00     0.017 C 
HETATM   23  C16 UNL     1     -21.997 -32.352   1.651  1.00  0.00     0.232 C 
ATOM     24  H32 UNL     1     -20.483 -31.174   0.881  1.00  0.00     0.277 HD
ATOM     25  H31 UNL     1     -21.834 -30.450   0.856  1.00  0.00     0.277 HD
HETATM   26  C17 UNL     1     -21.099 -33.582   1.590  1.00  0.00     0.028 C 
HETATM   27  C18 UNL     1     -21.309 -34.225   0.234  1.00  0.00     0.008 C 
HETATM   28  C20 UNL     1     -21.687 -33.762  -2.174  1.00  0.00     0.020 C 
ENDBRANCH  15  17
ENDBRANCH   6   9
ENDBRANCH   4   5
ENDBRANCH   3   4
TORSDOF 4
ENDMDL
