MODEL 1
REMARK VINA RESULT: -8.146945802      0.000      0.000
REMARK  2 active torsions:
REMARK  status: ('A' for Active; 'I' for Inactive)
REMARK    1  A    between atoms: O1_1  and  C1_3 
REMARK    2  A    between atoms: C2_4  and  C3_5 
ROOT
HETATM    1  C1  UNL     1      -0.962   0.018  -9.521  1.00  0.00     0.175 C 
HETATM    2  C2  UNL     1       0.158   0.520  -8.678  1.00  0.00     0.116 C 
HETATM    3  N1  UNL     1       1.367   0.677  -9.341  1.00  0.00    -0.393 N 
ATOM      4  H1  UNL     1       1.736   1.620  -9.462  1.00  0.00     0.159 HD
HETATM    5  C13 UNL     1       2.096  -0.386  -9.846  1.00  0.00     0.082 C 
HETATM    6  C14 UNL     1       1.423  -1.583 -10.351  1.00  0.00     0.213 C 
HETATM    7  O2  UNL     1       0.187  -1.541 -10.825  1.00  0.00    -0.372 OA
HETATM    8  C15 UNL     1      -0.554  -0.447 -10.904  1.00  0.00     0.089 C 
HETATM    9  C16 UNL     1      -1.901  -0.869 -11.542  1.00  0.00     0.041 C 
HETATM   10  C17 UNL     1      -1.637  -0.892 -13.010  1.00  0.00     0.003 C 
HETATM   11  C18 UNL     1      -0.493   0.051 -13.205  1.00  0.00     0.003 C 
HETATM   12  C19 UNL     1      -0.157   0.634 -11.828  1.00  0.00     0.041 C 
ENDROOT
BRANCH   2  13
HETATM   13  C3  UNL     1       0.221  -0.270  -7.376  1.00  0.00     0.011 C 
HETATM   14  C4  UNL     1       0.929   0.473  -6.295  1.00  0.00     0.007 C 
HETATM   15  C5  UNL     1       1.879  -0.250  -5.414  1.00  0.00     0.000 C 
HETATM   16  C6  UNL     1       1.848  -0.023  -3.957  1.00  0.00     0.000 C 
HETATM   17  C7  UNL     1       0.579  -0.004  -3.201  1.00  0.00     0.000 C 
HETATM   18  C8  UNL     1      -0.299  -1.200  -3.190  1.00  0.00     0.000 C 
HETATM   19  C9  UNL     1      -1.775  -1.003  -3.342  1.00  0.00     0.000 C 
HETATM   20  C10 UNL     1      -2.343  -1.327  -4.752  1.00  0.00     0.000 C 
HETATM   21  C11 UNL     1      -1.419  -0.563  -5.635  1.00  0.00     0.000 C 
HETATM   22  C12 UNL     1      -1.259  -0.630  -7.065  1.00  0.00     0.007 C 
ENDBRANCH   2  13
BRANCH   1  23
HETATM   23  O1  UNL     1      -2.014   0.944  -9.663  1.00  0.00    -0.390 OA
ATOM     24  H1  UNL     1      -2.776   0.586 -10.104  1.00  0.00     0.210 HD
ENDBRANCH   1  23
TORSDOF 2
ENDMDL
MODEL 2
REMARK VINA RESULT: -7.914629640      1.640      2.212
REMARK  2 active torsions:
REMARK  status: ('A' for Active; 'I' for Inactive)
REMARK    1  A    between atoms: O1_1  and  C1_3 
REMARK    2  A    between atoms: C2_4  and  C3_5 
ROOT
HETATM    1  C1  UNL     1      -0.681  -1.894  -9.564  1.00  0.00     0.175 C 
HETATM    2  C2  UNL     1      -0.983  -0.998  -8.414  1.00  0.00     0.116 C 
HETATM    3  N1  UNL     1      -1.376   0.288  -8.758  1.00  0.00    -0.393 N 
ATOM      4  H1  UNL     1      -2.333   0.576  -8.552  1.00  0.00     0.159 HD
HETATM    5  C13 UNL     1      -0.531   1.198  -9.369  1.00  0.00     0.082 C 
HETATM    6  C14 UNL     1       0.511   0.750 -10.293  1.00  0.00     0.213 C 
HETATM    7  O2  UNL     1       0.399  -0.380 -10.976  1.00  0.00    -0.372 OA
HETATM    8  C15 UNL     1      -0.637  -1.202 -10.911  1.00  0.00     0.089 C 
HETATM    9  C16 UNL     1      -0.343  -2.363 -11.892  1.00  0.00     0.041 C 
HETATM   10  C17 UNL     1      -0.740  -1.842 -13.232  1.00  0.00     0.003 C 
HETATM   11  C18 UNL     1      -1.754  -0.782 -12.941  1.00  0.00     0.003 C 
HETATM   12  C19 UNL     1      -1.949  -0.757 -11.421  1.00  0.00     0.041 C 
ENDROOT
BRANCH   2  13
HETATM   13  C3  UNL     1       0.132  -1.089  -7.378  1.00  0.00     0.011 C 
HETATM   14  C4  UNL     1       0.662   0.250  -6.997  1.00  0.00     0.007 C 
HETATM   15  C5  UNL     1       2.126   0.437  -6.838  1.00  0.00     0.000 C 
HETATM   16  C6  UNL     1       2.651   1.185  -5.680  1.00  0.00     0.000 C 
HETATM   17  C7  UNL     1       2.155   0.941  -4.310  1.00  0.00     0.000 C 
HETATM   18  C8  UNL     1       2.288  -0.405  -3.699  1.00  0.00     0.000 C 
HETATM   19  C9  UNL     1       1.129  -0.957  -2.930  1.00  0.00     0.000 C 
HETATM   20  C10 UNL     1       0.289  -2.028  -3.680  1.00  0.00     0.000 C 
HETATM   21  C11 UNL     1       0.035  -1.357  -4.985  1.00  0.00     0.000 C 
HETATM   22  C12 UNL     1      -0.486  -1.908  -6.210  1.00  0.00     0.007 C 
ENDBRANCH   2  13
BRANCH   1  23
HETATM   23  O1  UNL     1      -1.557  -2.992  -9.664  1.00  0.00    -0.390 OA
ATOM     24  H1  UNL     1      -1.132  -3.790  -9.955  1.00  0.00     0.210 HD
ENDBRANCH   1  23
TORSDOF 2
ENDMDL
MODEL 3
REMARK VINA RESULT: -7.695213796      1.138      1.168
REMARK  2 active torsions:
REMARK  status: ('A' for Active; 'I' for Inactive)
REMARK    1  A    between atoms: O1_1  and  C1_3 
REMARK    2  A    between atoms: C2_4  and  C3_5 
ROOT
HETATM    1  C1  UNL     1      -0.331   1.013  -8.850  1.00  0.00     0.175 C 
HETATM    2  C2  UNL     1       0.929   0.638  -8.149  1.00  0.00     0.116 C 
HETATM    3  N1  UNL     1       1.944   0.175  -8.975  1.00  0.00    -0.393 N 
ATOM      4  H1  UNL     1       2.788   0.740  -9.071  1.00  0.00     0.159 HD
HETATM    5  C13 UNL     1       1.865  -1.016  -9.674  1.00  0.00     0.082 C 
HETATM    6  C14 UNL     1       0.581  -1.512 -10.169  1.00  0.00     0.213 C 
HETATM    7  O2  UNL     1      -0.424  -0.692 -10.442  1.00  0.00    -0.372 OA
HETATM    8  C15 UNL     1      -0.380   0.625 -10.314  1.00  0.00     0.089 C 
HETATM    9  C16 UNL     1      -1.760   1.160 -10.770  1.00  0.00     0.041 C 
HETATM   10  C17 UNL     1      -1.671   1.223 -12.258  1.00  0.00     0.003 C 
HETATM   11  C18 UNL     1      -0.209   1.355 -12.546  1.00  0.00     0.003 C 
HETATM   12  C19 UNL     1       0.508   1.411 -11.192  1.00  0.00     0.041 C 
ENDROOT
BRANCH   2  13
HETATM   13  C3  UNL     1       0.612  -0.239  -6.944  1.00  0.00     0.011 C 
HETATM   14  C4  UNL     1       1.074   0.366  -5.664  1.00  0.00     0.007 C 
HETATM   15  C5  UNL     1       1.723  -0.493  -4.643  1.00  0.00     0.000 C 
HETATM   16  C6  UNL     1       1.343  -0.362  -3.223  1.00  0.00     0.000 C 
HETATM   17  C7  UNL     1      -0.070  -0.284  -2.801  1.00  0.00     0.000 C 
HETATM   18  C8  UNL     1      -1.001  -1.399  -3.109  1.00  0.00     0.000 C 
HETATM   19  C9  UNL     1      -2.375  -1.067  -3.599  1.00  0.00     0.000 C 
HETATM   20  C10 UNL     1      -2.593  -1.246  -5.128  1.00  0.00     0.000 C 
HETATM   21  C11 UNL     1      -1.429  -0.507  -5.689  1.00  0.00     0.000 C 
HETATM   22  C12 UNL     1      -0.920  -0.491  -7.037  1.00  0.00     0.007 C 
ENDBRANCH   2  13
BRANCH   1  23
HETATM   23  O1  UNL     1      -0.641   2.383  -8.749  1.00  0.00    -0.390 OA
ATOM     24  H1  UNL     1      -1.574   2.561  -8.767  1.00  0.00     0.210 HD
ENDBRANCH   1  23
TORSDOF 2
ENDMDL
MODEL 4
REMARK VINA RESULT: -7.541368843      1.326      1.614
REMARK  2 active torsions:
REMARK  status: ('A' for Active; 'I' for Inactive)
REMARK    1  A    between atoms: O1_1  and  C1_3 
REMARK    2  A    between atoms: C2_4  and  C3_5 
ROOT
HETATM    1  C1  UNL     1      -0.244  -1.694  -9.739  1.00  0.00     0.175 C 
HETATM    2  C2  UNL     1      -0.297  -0.506  -8.844  1.00  0.00     0.116 C 
HETATM    3  N1  UNL     1       0.474   0.573  -9.254  1.00  0.00    -0.393 N 
ATOM      4  H1  UNL     1      -0.001   1.429  -9.541  1.00  0.00     0.159 HD
HETATM    5  C13 UNL     1       1.857   0.543  -9.293  1.00  0.00     0.082 C 
HETATM    6  C14 UNL     1       2.572  -0.699  -9.590  1.00  0.00     0.213 C 
HETATM    7  O2  UNL     1       2.020  -1.666 -10.308  1.00  0.00    -0.372 OA
HETATM    8  C15 UNL     1       0.804  -1.619 -10.831  1.00  0.00     0.089 C 
HETATM    9  C16 UNL     1       0.602  -2.946 -11.602  1.00  0.00     0.041 C 
HETATM   10  C17 UNL     1       1.262  -2.726 -12.921  1.00  0.00     0.003 C 
HETATM   11  C18 UNL     1       1.239  -1.242 -13.114  1.00  0.00     0.003 C 
HETATM   12  C19 UNL     1       0.512  -0.647 -11.903  1.00  0.00     0.041 C 
ENDROOT
BRANCH   2  13
HETATM   13  C3  UNL     1      -0.101  -0.939  -7.395  1.00  0.00     0.011 C 
HETATM   14  C4  UNL     1       0.661   0.065  -6.601  1.00  0.00     0.007 C 
HETATM   15  C5  UNL     1       1.704  -0.396  -5.651  1.00  0.00     0.000 C 
HETATM   16  C6  UNL     1       1.780   0.193  -4.300  1.00  0.00     0.000 C 
HETATM   17  C7  UNL     1       0.574   0.382  -3.467  1.00  0.00     0.000 C 
HETATM   18  C8  UNL     1      -0.255  -0.787  -3.082  1.00  0.00     0.000 C 
HETATM   19  C9  UNL     1      -1.744  -0.659  -3.150  1.00  0.00     0.000 C 
HETATM   20  C10 UNL     1      -2.409  -1.339  -4.380  1.00  0.00     0.000 C 
HETATM   21  C11 UNL     1      -1.587  -0.809  -5.502  1.00  0.00     0.000 C 
HETATM   22  C12 UNL     1      -1.538  -1.233  -6.878  1.00  0.00     0.007 C 
ENDBRANCH   2  13
BRANCH   1  23
HETATM   23  O1  UNL     1      -1.481  -1.997 -10.341  1.00  0.00    -0.390 OA
ATOM     24  H1  UNL     1      -1.756  -2.897 -10.209  1.00  0.00     0.210 HD
ENDBRANCH   1  23
TORSDOF 2
ENDMDL
MODEL 5
REMARK VINA RESULT: -7.533947356      1.669      3.306
REMARK  2 active torsions:
REMARK  status: ('A' for Active; 'I' for Inactive)
REMARK    1  A    between atoms: O1_1  and  C1_3 
REMARK    2  A    between atoms: C2_4  and  C3_5 
ROOT
HETATM    1  C1  UNL     1       1.617  -0.223  -8.702  1.00  0.00     0.175 C 
HETATM    2  C2  UNL     1       0.529  -1.104  -8.198  1.00  0.00     0.116 C 
HETATM    3  N1  UNL     1      -0.357  -1.555  -9.166  1.00  0.00    -0.393 N 
ATOM      4  H1  UNL     1      -0.372  -2.552  -9.385  1.00  0.00     0.159 HD
HETATM    5  C13 UNL     1      -1.221  -0.717  -9.849  1.00  0.00     0.082 C 
HETATM    6  C14 UNL     1      -0.845   0.665 -10.148  1.00  0.00     0.213 C 
HETATM    7  O2  UNL     1       0.423   1.032 -10.267  1.00  0.00    -0.372 OA
HETATM    8  C15 UNL     1       1.459   0.218 -10.143  1.00  0.00     0.089 C 
HETATM    9  C16 UNL     1       2.726   1.074 -10.388  1.00  0.00     0.041 C 
HETATM   10  C17 UNL     1       2.859   1.144 -11.872  1.00  0.00     0.003 C 
HETATM   11  C18 UNL     1       2.153  -0.075 -12.374  1.00  0.00     0.003 C 
HETATM   12  C19 UNL     1       1.669  -0.848 -11.142  1.00  0.00     0.041 C 
ENDROOT
BRANCH   2  13
HETATM   13  C3  UNL     1      -0.111  -0.485  -6.961  1.00  0.00     0.011 C 
HETATM   14  C4  UNL     1      -0.951  -1.457  -6.208  1.00  0.00     0.007 C 
HETATM   15  C5  UNL     1      -2.262  -1.022  -5.666  1.00  0.00     0.000 C 
HETATM   16  C6  UNL     1      -2.650  -1.395  -4.292  1.00  0.00     0.000 C 
HETATM   17  C7  UNL     1      -1.713  -1.258  -3.158  1.00  0.00     0.000 C 
HETATM   18  C8  UNL     1      -1.157   0.073  -2.808  1.00  0.00     0.000 C 
HETATM   19  C9  UNL     1       0.296   0.171  -2.466  1.00  0.00     0.000 C 
HETATM   20  C10 UNL     1       1.201   0.745  -3.592  1.00  0.00     0.000 C 
HETATM   21  C11 UNL     1       0.790  -0.079  -4.762  1.00  0.00     0.000 C 
HETATM   22  C12 UNL     1       1.083   0.110  -6.161  1.00  0.00     0.007 C 
ENDBRANCH   2  13
BRANCH   1  23
HETATM   23  O1  UNL     1       2.903  -0.778  -8.552  1.00  0.00    -0.390 OA
ATOM     24  H1  UNL     1       2.979  -1.657  -8.906  1.00  0.00     0.210 HD
ENDBRANCH   1  23
TORSDOF 2
ENDMDL
