MODEL 1
REMARK VINA RESULT: -8.061516779      0.000      0.000
REMARK  6 active torsions:
REMARK  status: ('A' for Active; 'I' for Inactive)
REMARK    1  A    between atoms: C1_2  and  C2_4 
REMARK    2  A    between atoms: C2_4  and  N2_5 
REMARK       I    between atoms: N2_5  and  C3_7 
REMARK    3  A    between atoms: C3_7  and  C4_9 
REMARK    4  A    between atoms: C12_17  and  N3_18 
REMARK       I    between atoms: N3_18  and  C13_20 
REMARK    5  A    between atoms: N5_22  and  C14_24 
REMARK    6  A    between atoms: C14_24  and  N6_26 
ROOT
HETATM    1  C4  UNL     1      13.528  -0.238   8.625  1.00  0.00     0.062 C 
HETATM    2  C5  UNL     1      14.640   0.317   9.528  1.00  0.00     0.026 C 
HETATM    3  C6  UNL     1      14.578  -0.259  10.903  1.00  0.00    -0.013 C 
HETATM    4  C7  UNL     1      13.223  -0.001  11.539  1.00  0.00     0.009 C 
HETATM    5  C8  UNL     1      12.126  -0.517  10.669  1.00  0.00    -0.013 C 
HETATM    6  C9  UNL     1      12.255  -2.025  10.565  1.00  0.00     0.011 C 
HETATM    7  C10 UNL     1      13.596  -2.297   9.963  1.00  0.00     0.010 C 
HETATM    8  C11 UNL     1      14.718  -1.764  10.779  1.00  0.00     0.011 C 
HETATM    9  C12 UNL     1      13.584  -1.711   8.538  1.00  0.00     0.106 C 
HETATM   10  C20 UNL     1      12.217   0.139   9.339  1.00  0.00     0.026 C 
ENDROOT
BRANCH   9  11
HETATM   11  N3  UNL     1      14.608  -2.324   7.781  1.00  0.00    -0.358 N 
HETATM   12  C13 UNL     1      14.569  -2.590   6.409  1.00  0.00     0.190 C 
HETATM   13  N4  UNL     1      13.489  -3.326   5.861  1.00  0.00    -0.063 NA
HETATM   14  N5  UNL     1      15.533  -2.191   5.612  1.00  0.00    -0.307 N 
ATOM     15  H5  UNL     1      16.330  -1.676   5.986  1.00  0.00     0.171 HD
ATOM     16  H3  UNL     1      15.454  -2.597   8.282  1.00  0.00     0.162 HD
BRANCH  14  17
HETATM   17  C14 UNL     1      15.458  -2.479   4.245  1.00  0.00     0.176 C 
HETATM   18  S1  UNL     1      14.789  -1.403   3.228  1.00  0.00    -0.041 SA
BRANCH  17  19
HETATM   19  N6  UNL     1      15.983  -3.697   3.750  1.00  0.00    -0.358 N 
HETATM   20  C15 UNL     1      15.163  -4.688   3.112  1.00  0.00     0.125 C 
HETATM   21  C16 UNL     1      15.567  -6.070   3.635  1.00  0.00     0.020 C 
HETATM   22  C17 UNL     1      16.206  -5.838   5.000  1.00  0.00     0.003 C 
HETATM   23  C18 UNL     1      17.592  -5.255   4.730  1.00  0.00     0.020 C 
HETATM   24  C19 UNL     1      17.406  -4.014   3.870  1.00  0.00     0.125 C 
ENDBRANCH  17  19
ENDBRANCH  14  17
ENDBRANCH   9  11
BRANCH   1  25
HETATM   25  C3  UNL     1      13.606   0.521   7.365  1.00  0.00     0.228 C 
HETATM   26  N2  UNL     1      12.447   1.056   6.751  1.00  0.00    -0.352 N 
ATOM     27  H2  UNL     1      11.549   0.885   7.205  1.00  0.00     0.162 HD
HETATM   28  O2  UNL     1      14.709   0.719   6.800  1.00  0.00    -0.273 OA
BRANCH  26  29
HETATM   29  C2  UNL     1      12.442   1.819   5.538  1.00  0.00     0.222 C 
BRANCH  29  30
HETATM   30  C1  UNL     1      11.085   2.337   5.167  1.00  0.00     0.248 C 
HETATM   31  N1  UNL     1       9.983   1.449   5.027  1.00  0.00    -0.061 NA
HETATM   32  O1  UNL     1      10.893   3.561   4.976  1.00  0.00    -0.275 OA
ENDBRANCH  29  30
ENDBRANCH  26  29
ENDBRANCH   1  25
TORSDOF 6
ENDMDL
MODEL 2
REMARK VINA RESULT: -7.910387039      1.067      1.512
REMARK  6 active torsions:
REMARK  status: ('A' for Active; 'I' for Inactive)
REMARK    1  A    between atoms: C1_2  and  C2_4 
REMARK    2  A    between atoms: C2_4  and  N2_5 
REMARK       I    between atoms: N2_5  and  C3_7 
REMARK    3  A    between atoms: C3_7  and  C4_9 
REMARK    4  A    between atoms: C12_17  and  N3_18 
REMARK       I    between atoms: N3_18  and  C13_20 
REMARK    5  A    between atoms: N5_22  and  C14_24 
REMARK    6  A    between atoms: C14_24  and  N6_26 
ROOT
HETATM    1  C4  UNL     1      13.614  -0.329   8.689  1.00  0.00     0.062 C 
HETATM    2  C5  UNL     1      14.561   0.376   9.671  1.00  0.00     0.026 C 
HETATM    3  C6  UNL     1      14.379  -0.117  11.068  1.00  0.00    -0.013 C 
HETATM    4  C7  UNL     1      12.942   0.060  11.524  1.00  0.00     0.009 C 
HETATM    5  C8  UNL     1      12.002  -0.602  10.573  1.00  0.00    -0.013 C 
HETATM    6  C9  UNL     1      12.262  -2.097  10.593  1.00  0.00     0.011 C 
HETATM    7  C10 UNL     1      13.684  -2.287  10.170  1.00  0.00     0.010 C 
HETATM    8  C11 UNL     1      14.653  -1.609  11.069  1.00  0.00     0.011 C 
HETATM    9  C12 UNL     1      13.797  -1.795   8.715  1.00  0.00     0.106 C 
HETATM   10  C20 UNL     1      12.201  -0.025   9.218  1.00  0.00     0.026 C 
ENDROOT
BRANCH   9  11
HETATM   11  N3  UNL     1      14.951  -2.361   8.127  1.00  0.00    -0.358 N 
HETATM   12  C13 UNL     1      14.984  -3.130   6.960  1.00  0.00     0.190 C 
HETATM   13  N4  UNL     1      14.154  -4.273   6.841  1.00  0.00    -0.063 NA
HETATM   14  N5  UNL     1      15.795  -2.830   5.971  1.00  0.00    -0.307 N 
ATOM     15  H5  UNL     1      16.415  -2.024   6.042  1.00  0.00     0.171 HD
ATOM     16  H3  UNL     1      15.840  -2.193   8.597  1.00  0.00     0.162 HD
BRANCH  14  17
HETATM   17  C14 UNL     1      15.801  -3.626   4.821  1.00  0.00     0.176 C 
HETATM   18  S1  UNL     1      14.864  -3.225   3.556  1.00  0.00    -0.041 SA
BRANCH  17  19
HETATM   19  N6  UNL     1      16.636  -4.768   4.757  1.00  0.00    -0.358 N 
HETATM   20  C15 UNL     1      18.033  -4.722   5.090  1.00  0.00     0.125 C 
HETATM   21  C16 UNL     1      18.813  -5.526   4.046  1.00  0.00     0.020 C 
HETATM   22  C17 UNL     1      17.949  -5.542   2.788  1.00  0.00     0.003 C 
HETATM   23  C18 UNL     1      16.811  -6.523   3.064  1.00  0.00     0.020 C 
HETATM   24  C19 UNL     1      16.113  -6.067   4.337  1.00  0.00     0.125 C 
ENDBRANCH  17  19
ENDBRANCH  14  17
ENDBRANCH   9  11
BRANCH   1  25
HETATM   25  C3  UNL     1      13.782   0.355   7.395  1.00  0.00     0.228 C 
HETATM   26  N2  UNL     1      12.734   1.114   6.817  1.00  0.00    -0.352 N 
ATOM     27  H2  UNL     1      11.849   1.160   7.324  1.00  0.00     0.162 HD
HETATM   28  O2  UNL     1      14.866   0.285   6.766  1.00  0.00    -0.273 OA
BRANCH  26  29
HETATM   29  C2  UNL     1      12.826   1.821   5.575  1.00  0.00     0.222 C 
BRANCH  29  30
HETATM   30  C1  UNL     1      11.573   1.745   4.755  1.00  0.00     0.248 C 
HETATM   31  N1  UNL     1      10.508   2.662   4.972  1.00  0.00    -0.061 NA
HETATM   32  O1  UNL     1      11.439   0.876   3.862  1.00  0.00    -0.275 OA
ENDBRANCH  29  30
ENDBRANCH  26  29
ENDBRANCH   1  25
TORSDOF 6
ENDMDL
MODEL 3
REMARK VINA RESULT: -7.727846420      2.311      6.762
REMARK  6 active torsions:
REMARK  status: ('A' for Active; 'I' for Inactive)
REMARK    1  A    between atoms: C1_2  and  C2_4 
REMARK    2  A    between atoms: C2_4  and  N2_5 
REMARK       I    between atoms: N2_5  and  C3_7 
REMARK    3  A    between atoms: C3_7  and  C4_9 
REMARK    4  A    between atoms: C12_17  and  N3_18 
REMARK       I    between atoms: N3_18  and  C13_20 
REMARK    5  A    between atoms: N5_22  and  C14_24 
REMARK    6  A    between atoms: C14_24  and  N6_26 
ROOT
HETATM    1  C4  UNL     1      15.877  -3.556   4.157  1.00  0.00     0.062 C 
HETATM    2  C5  UNL     1      14.877  -3.832   3.024  1.00  0.00     0.026 C 
HETATM    3  C6  UNL     1      15.197  -5.097   2.298  1.00  0.00    -0.013 C 
HETATM    4  C7  UNL     1      16.610  -5.061   1.741  1.00  0.00     0.009 C 
HETATM    5  C8  UNL     1      17.596  -4.775   2.823  1.00  0.00    -0.013 C 
HETATM    6  C9  UNL     1      17.573  -5.919   3.819  1.00  0.00     0.011 C 
HETATM    7  C10 UNL     1      16.180  -5.984   4.359  1.00  0.00     0.010 C 
HETATM    8  C11 UNL     1      15.160  -6.229   3.308  1.00  0.00     0.011 C 
HETATM    9  C12 UNL     1      15.925  -4.671   5.124  1.00  0.00     0.106 C 
HETATM   10  C20 UNL     1      17.248  -3.478   3.462  1.00  0.00     0.026 C 
ENDROOT
BRANCH   9  11
HETATM   11  N3  UNL     1      14.848  -4.862   6.018  1.00  0.00    -0.358 N 
HETATM   12  C13 UNL     1      14.757  -4.349   7.316  1.00  0.00     0.190 C 
HETATM   13  N4  UNL     1      15.798  -4.592   8.248  1.00  0.00    -0.063 NA
HETATM   14  N5  UNL     1      13.707  -3.663   7.703  1.00  0.00    -0.307 N 
ATOM     15  H5  UNL     1      12.937  -3.491   7.056  1.00  0.00     0.171 HD
ATOM     16  H3  UNL     1      14.065  -5.426   5.687  1.00  0.00     0.162 HD
BRANCH  14  17
HETATM   17  C14 UNL     1      13.653  -3.168   9.010  1.00  0.00     0.176 C 
HETATM   18  S1  UNL     1      13.115  -4.120  10.212  1.00  0.00    -0.041 SA
BRANCH  17  19
HETATM   19  N6  UNL     1      14.084  -1.848   9.284  1.00  0.00    -0.358 N 
HETATM   20  C15 UNL     1      14.450  -1.413  10.603  1.00  0.00     0.125 C 
HETATM   21  C16 UNL     1      13.845  -0.027  10.848  1.00  0.00     0.020 C 
HETATM   22  C17 UNL     1      12.647   0.087   9.910  1.00  0.00     0.003 C 
HETATM   23  C18 UNL     1      13.220   0.305   8.511  1.00  0.00     0.020 C 
HETATM   24  C19 UNL     1      14.175  -0.845   8.224  1.00  0.00     0.125 C 
ENDBRANCH  17  19
ENDBRANCH  14  17
ENDBRANCH   9  11
BRANCH   1  25
HETATM   25  C3  UNL     1      15.545  -2.218   4.678  1.00  0.00     0.228 C 
HETATM   26  N2  UNL     1      14.522  -1.430   4.094  1.00  0.00    -0.352 N 
ATOM     27  H2  UNL     1      14.030  -1.815   3.288  1.00  0.00     0.162 HD
HETATM   28  O2  UNL     1      16.161  -1.738   5.660  1.00  0.00    -0.273 OA
BRANCH  26  29
HETATM   29  C2  UNL     1      14.129  -0.131   4.553  1.00  0.00     0.222 C 
BRANCH  29  30
HETATM   30  C1  UNL     1      12.657   0.123   4.426  1.00  0.00     0.248 C 
HETATM   31  N1  UNL     1      11.945  -0.298   3.270  1.00  0.00    -0.061 NA
HETATM   32  O1  UNL     1      12.024   0.710   5.336  1.00  0.00    -0.275 OA
ENDBRANCH  29  30
ENDBRANCH  26  29
ENDBRANCH   1  25
TORSDOF 6
ENDMDL
MODEL 4
REMARK VINA RESULT: -7.583584861      1.422      2.202
REMARK  6 active torsions:
REMARK  status: ('A' for Active; 'I' for Inactive)
REMARK    1  A    between atoms: C1_2  and  C2_4 
REMARK    2  A    between atoms: C2_4  and  N2_5 
REMARK       I    between atoms: N2_5  and  C3_7 
REMARK    3  A    between atoms: C3_7  and  C4_9 
REMARK    4  A    between atoms: C12_17  and  N3_18 
REMARK       I    between atoms: N3_18  and  C13_20 
REMARK    5  A    between atoms: N5_22  and  C14_24 
REMARK    6  A    between atoms: C14_24  and  N6_26 
ROOT
HETATM    1  C4  UNL     1      13.679  -0.408   8.609  1.00  0.00     0.062 C 
HETATM    2  C5  UNL     1      14.648   0.295   9.572  1.00  0.00     0.026 C 
HETATM    3  C6  UNL     1      14.462  -0.165  10.980  1.00  0.00    -0.013 C 
HETATM    4  C7  UNL     1      13.031   0.055  11.439  1.00  0.00     0.009 C 
HETATM    5  C8  UNL     1      12.071  -0.604  10.506  1.00  0.00    -0.013 C 
HETATM    6  C9  UNL     1      12.296  -2.104  10.555  1.00  0.00     0.011 C 
HETATM    7  C10 UNL     1      13.711  -2.336  10.130  1.00  0.00     0.010 C 
HETATM    8  C11 UNL     1      14.700  -1.663  11.010  1.00  0.00     0.011 C 
HETATM    9  C12 UNL     1      13.828  -1.876   8.664  1.00  0.00     0.106 C 
HETATM   10  C20 UNL     1      12.276  -0.059   9.138  1.00  0.00     0.026 C 
ENDROOT
BRANCH   9  11
HETATM   11  N3  UNL     1      14.965  -2.481   8.083  1.00  0.00    -0.358 N 
HETATM   12  C13 UNL     1      15.007  -3.133   6.847  1.00  0.00     0.190 C 
HETATM   13  N4  UNL     1      14.094  -4.182   6.568  1.00  0.00    -0.063 NA
HETATM   14  N5  UNL     1      15.898  -2.811   5.938  1.00  0.00    -0.307 N 
ATOM     15  H5  UNL     1      16.577  -2.072   6.122  1.00  0.00     0.171 HD
ATOM     16  H3  UNL     1      15.835  -2.438   8.613  1.00  0.00     0.162 HD
BRANCH  14  17
HETATM   17  C14 UNL     1      15.908  -3.488   4.714  1.00  0.00     0.176 C 
HETATM   18  S1  UNL     1      16.823  -4.819   4.535  1.00  0.00    -0.041 SA
BRANCH  17  19
HETATM   19  N6  UNL     1      15.108  -3.024   3.642  1.00  0.00    -0.358 N 
HETATM   20  C15 UNL     1      15.273  -1.720   3.064  1.00  0.00     0.125 C 
HETATM   21  C16 UNL     1      13.889  -1.104   2.837  1.00  0.00     0.020 C 
HETATM   22  C17 UNL     1      12.950  -1.796   3.820  1.00  0.00     0.003 C 
HETATM   23  C18 UNL     1      12.699  -3.195   3.260  1.00  0.00     0.020 C 
HETATM   24  C19 UNL     1      14.055  -3.859   3.066  1.00  0.00     0.125 C 
ENDBRANCH  17  19
ENDBRANCH  14  17
ENDBRANCH   9  11
BRANCH   1  25
HETATM   25  C3  UNL     1      13.857   0.246   7.300  1.00  0.00     0.228 C 
HETATM   26  N2  UNL     1      12.781   0.894   6.645  1.00  0.00    -0.352 N 
ATOM     27  H2  UNL     1      11.870   0.881   7.105  1.00  0.00     0.162 HD
HETATM   28  O2  UNL     1      14.974   0.248   6.729  1.00  0.00    -0.273 OA
BRANCH  26  29
HETATM   29  C2  UNL     1      12.878   1.565   5.383  1.00  0.00     0.222 C 
BRANCH  29  30
HETATM   30  C1  UNL     1      11.580   1.611   4.634  1.00  0.00     0.248 C 
HETATM   31  N1  UNL     1      10.346   1.744   5.328  1.00  0.00    -0.061 NA
HETATM   32  O1  UNL     1      11.556   1.536   3.383  1.00  0.00    -0.275 OA
ENDBRANCH  29  30
ENDBRANCH  26  29
ENDBRANCH   1  25
TORSDOF 6
ENDMDL
MODEL 5
REMARK VINA RESULT: -7.126393312      3.019      7.491
REMARK  6 active torsions:
REMARK  status: ('A' for Active; 'I' for Inactive)
REMARK    1  A    between atoms: C1_2  and  C2_4 
REMARK    2  A    between atoms: C2_4  and  N2_5 
REMARK       I    between atoms: N2_5  and  C3_7 
REMARK    3  A    between atoms: C3_7  and  C4_9 
REMARK    4  A    between atoms: C12_17  and  N3_18 
REMARK       I    between atoms: N3_18  and  C13_20 
REMARK    5  A    between atoms: N5_22  and  C14_24 
REMARK    6  A    between atoms: C14_24  and  N6_26 
ROOT
HETATM    1  C4  UNL     1      15.994  -4.205   4.109  1.00  0.00     0.062 C 
HETATM    2  C5  UNL     1      17.502  -4.410   3.899  1.00  0.00     0.026 C 
HETATM    3  C6  UNL     1      17.782  -5.438   2.855  1.00  0.00    -0.013 C 
HETATM    4  C7  UNL     1      17.127  -6.762   3.206  1.00  0.00     0.009 C 
HETATM    5  C8  UNL     1      15.663  -6.582   3.432  1.00  0.00    -0.013 C 
HETATM    6  C9  UNL     1      15.021  -6.134   2.133  1.00  0.00     0.011 C 
HETATM    7  C10 UNL     1      15.674  -4.842   1.759  1.00  0.00     0.010 C 
HETATM    8  C11 UNL     1      17.141  -4.968   1.563  1.00  0.00     0.011 C 
HETATM    9  C12 UNL     1      15.318  -3.818   2.854  1.00  0.00     0.106 C 
HETATM   10  C20 UNL     1      15.462  -5.590   4.519  1.00  0.00     0.026 C 
ENDROOT
BRANCH   9  11
HETATM   11  N3  UNL     1      15.502  -2.514   2.339  1.00  0.00    -0.358 N 
HETATM   12  C13 UNL     1      14.580  -1.466   2.413  1.00  0.00     0.190 C 
HETATM   13  N4  UNL     1      13.256  -1.651   1.938  1.00  0.00    -0.063 NA
HETATM   14  N5  UNL     1      14.922  -0.292   2.892  1.00  0.00    -0.307 N 
ATOM     15  H5  UNL     1      15.873  -0.128   3.221  1.00  0.00     0.171 HD
ATOM     16  H3  UNL     1      16.387  -2.321   1.872  1.00  0.00     0.162 HD
BRANCH  14  17
HETATM   17  C14 UNL     1      13.971   0.732   2.946  1.00  0.00     0.176 C 
HETATM   18  S1  UNL     1      13.845   1.784   1.714  1.00  0.00    -0.041 SA
BRANCH  17  19
HETATM   19  N6  UNL     1      13.110   0.838   4.065  1.00  0.00    -0.358 N 
HETATM   20  C15 UNL     1      11.705   1.107   3.935  1.00  0.00     0.125 C 
HETATM   21  C16 UNL     1      11.304   2.141   4.993  1.00  0.00     0.020 C 
HETATM   22  C17 UNL     1      12.577   2.906   5.343  1.00  0.00     0.003 C 
HETATM   23  C18 UNL     1      13.415   1.969   6.211  1.00  0.00     0.020 C 
HETATM   24  C19 UNL     1      13.616   0.680   5.428  1.00  0.00     0.125 C 
ENDBRANCH  17  19
ENDBRANCH  14  17
ENDBRANCH   9  11
BRANCH   1  25
HETATM   25  C3  UNL     1      15.860  -3.296   5.261  1.00  0.00     0.228 C 
HETATM   26  N2  UNL     1      15.140  -3.673   6.421  1.00  0.00    -0.352 N 
ATOM     27  H2  UNL     1      14.702  -4.595   6.427  1.00  0.00     0.162 HD
HETATM   28  O2  UNL     1      16.387  -2.157   5.247  1.00  0.00    -0.273 OA
BRANCH  26  29
HETATM   29  C2  UNL     1      14.981  -2.855   7.586  1.00  0.00     0.222 C 
BRANCH  29  30
HETATM   30  C1  UNL     1      15.118  -3.618   8.870  1.00  0.00     0.248 C 
HETATM   31  N1  UNL     1      16.160  -4.570   9.040  1.00  0.00    -0.061 NA
HETATM   32  O1  UNL     1      14.320  -3.430   9.819  1.00  0.00    -0.275 OA
ENDBRANCH  29  30
ENDBRANCH  26  29
ENDBRANCH   1  25
TORSDOF 6
ENDMDL
