MODEL 1
REMARK VINA RESULT: -8.129573026      0.000      0.000
REMARK  5 active torsions:
REMARK  status: ('A' for Active; 'I' for Inactive)
REMARK       I    between atoms: N1_2  and  C2_4 
REMARK       I    between atoms: N3_6  and  C3_8 
REMARK    1  A    between atoms: C3_8  and  C4_10 
REMARK    2  A    between atoms: C4_10  and  N4_12 
REMARK       I    between atoms: N4_12  and  C6_14 
REMARK       I    between atoms: C6_14  and  N5_16 
REMARK    3  A    between atoms: C9_19  and  C10_20 
REMARK    4  A    between atoms: C14_24  and  C15_25 
REMARK       I    between atoms: C15_25  and  N6_27 
REMARK    5  A    between atoms: N6_27  and  N7_29 
REMARK       I    between atoms: N7_29  and  C16_31 
ROOT
HETATM    1  N4  UNL     1      13.851  -0.450   5.133  1.00  0.00    -0.330 N 
ATOM      2  H4  UNL     1      13.050  -0.833   4.631  1.00  0.00     0.165 HD
HETATM    3  C6  UNL     1      14.774  -1.338   5.704  1.00  0.00     0.319 C 
HETATM    4  O2  UNL     1      15.759  -0.882   6.323  1.00  0.00    -0.247 OA
HETATM    5  N5  UNL     1      14.617  -2.729   5.596  1.00  0.00    -0.320 N 
HETATM    6  C7  UNL     1      13.516  -3.377   4.896  1.00  0.00     0.129 C 
HETATM    7  C8  UNL     1      13.971  -4.738   4.507  1.00  0.00     0.028 C 
HETATM    8  C9  UNL     1      15.231  -4.953   5.288  1.00  0.00     0.027 C 
HETATM    9  C14 UNL     1      15.484  -3.778   6.149  1.00  0.00     0.187 C 
ENDROOT
BRANCH   9  10
HETATM   10  C15 UNL     1      15.100  -4.075   7.553  1.00  0.00     0.259 C 
HETATM   11  O3  UNL     1      16.002  -4.233   8.442  1.00  0.00    -0.269 OA
HETATM   12  N6  UNL     1      13.757  -4.195   7.977  1.00  0.00    -0.266 N 
ATOM     13  H6  UNL     1      13.020  -4.071   7.283  1.00  0.00     0.190 HD
BRANCH  12  14
HETATM   14  N7  UNL     1      13.386  -4.473   9.290  1.00  0.00    -0.268 N 
HETATM   15  C16 UNL     1      12.946  -3.416  10.150  1.00  0.00     0.232 C 
HETATM   16  C17 UNL     1      12.542  -3.665  11.549  1.00  0.00     0.119 C 
HETATM   17  O4  UNL     1      12.890  -2.215   9.717  1.00  0.00    -0.272 OA
ATOM     18  H7  UNL     1      13.429  -5.430   9.640  1.00  0.00     0.190 HD
ENDBRANCH  12  14
ENDBRANCH   9  10
BRANCH   1  19
HETATM   19  C4  UNL     1      13.988   0.996   5.226  1.00  0.00     0.174 C 
HETATM   20  C5  UNL     1      13.296   1.465   6.495  1.00  0.00     0.042 C 
BRANCH  19  21
HETATM   21  C3  UNL     1      13.336   1.600   4.044  1.00  0.00     0.246 C 
HETATM   22  N3  UNL     1      11.974   1.974   4.018  1.00  0.00    -0.300 N 
HETATM   23  C2  UNL     1      11.048   1.280   3.474  1.00  0.00     0.190 C 
ATOM     24  H3  UNL     1      11.712   2.854   4.462  1.00  0.00     0.171 HD
HETATM   25  N1  UNL     1       9.690   1.690   3.469  1.00  0.00    -0.369 N 
HETATM   26  N2  UNL     1      11.426   0.044   2.853  1.00  0.00    -0.063 NA
HETATM   27  C1  UNL     1       8.697   0.803   4.030  1.00  0.00     0.148 C 
ATOM     28  H1  UNL     1       9.420   2.593   3.078  1.00  0.00     0.161 HD
HETATM   29  O1  UNL     1      14.006   1.806   2.987  1.00  0.00    -0.271 OA
ENDBRANCH  19  21
ENDBRANCH   1  19
BRANCH   8  30
HETATM   30  C10 UNL     1      16.351  -5.260   4.321  1.00  0.00    -0.045 C 
HETATM   31  C11 UNL     1      17.651  -5.138   5.125  1.00  0.00     0.015 C 
HETATM   32  C12 UNL     1      16.294  -6.660   3.801  1.00  0.00     0.015 C 
HETATM   33  C13 UNL     1      16.445  -4.300   3.186  1.00  0.00     0.015 C 
ENDBRANCH   8  30
TORSDOF 5
ENDMDL
MODEL 2
REMARK VINA RESULT: -7.974103090      2.209      4.943
REMARK  5 active torsions:
REMARK  status: ('A' for Active; 'I' for Inactive)
REMARK       I    between atoms: N1_2  and  C2_4 
REMARK       I    between atoms: N3_6  and  C3_8 
REMARK    1  A    between atoms: C3_8  and  C4_10 
REMARK    2  A    between atoms: C4_10  and  N4_12 
REMARK       I    between atoms: N4_12  and  C6_14 
REMARK       I    between atoms: C6_14  and  N5_16 
REMARK    3  A    between atoms: C9_19  and  C10_20 
REMARK    4  A    between atoms: C14_24  and  C15_25 
REMARK       I    between atoms: C15_25  and  N6_27 
REMARK    5  A    between atoms: N6_27  and  N7_29 
REMARK       I    between atoms: N7_29  and  C16_31 
ROOT
HETATM    1  N4  UNL     1      13.170   1.303   5.418  1.00  0.00    -0.330 N 
ATOM      2  H4  UNL     1      13.825   1.975   5.818  1.00  0.00     0.165 HD
HETATM    3  C6  UNL     1      13.067   0.034   6.006  1.00  0.00     0.319 C 
HETATM    4  O2  UNL     1      12.270  -0.800   5.527  1.00  0.00    -0.247 OA
HETATM    5  N5  UNL     1      13.840  -0.322   7.124  1.00  0.00    -0.320 N 
HETATM    6  C7  UNL     1      14.796   0.565   7.774  1.00  0.00     0.129 C 
HETATM    7  C8  UNL     1      14.967   0.090   9.172  1.00  0.00     0.028 C 
HETATM    8  C9  UNL     1      14.336  -1.268   9.191  1.00  0.00     0.027 C 
HETATM    9  C14 UNL     1      13.853  -1.607   7.836  1.00  0.00     0.187 C 
ENDROOT
BRANCH   9  10
HETATM   10  C15 UNL     1      14.792  -2.550   7.174  1.00  0.00     0.259 C 
HETATM   11  O3  UNL     1      15.625  -3.218   7.874  1.00  0.00    -0.269 OA
HETATM   12  N6  UNL     1      14.819  -2.760   5.777  1.00  0.00    -0.266 N 
ATOM     13  H6  UNL     1      14.161  -2.238   5.198  1.00  0.00     0.190 HD
BRANCH  12  14
HETATM   14  N7  UNL     1      15.694  -3.641   5.147  1.00  0.00    -0.268 N 
HETATM   15  C16 UNL     1      15.282  -4.983   4.866  1.00  0.00     0.232 C 
HETATM   16  C17 UNL     1      16.177  -5.951   4.199  1.00  0.00     0.119 C 
HETATM   17  O4  UNL     1      14.111  -5.378   5.191  1.00  0.00    -0.272 OA
ATOM     18  H7  UNL     1      16.629  -3.330   4.886  1.00  0.00     0.190 HD
ENDBRANCH  12  14
ENDBRANCH   9  10
BRANCH   1  19
HETATM   19  C4  UNL     1      12.382   1.701   4.261  1.00  0.00     0.174 C 
HETATM   20  C5  UNL     1      13.072   2.877   3.590  1.00  0.00     0.042 C 
BRANCH  19  21
HETATM   21  C3  UNL     1      11.040   2.106   4.732  1.00  0.00     0.246 C 
HETATM   22  N3  UNL     1       9.997   1.187   4.982  1.00  0.00    -0.300 N 
HETATM   23  C2  UNL     1       9.030   0.960   4.177  1.00  0.00     0.190 C 
ATOM     24  H3  UNL     1      10.017   0.670   5.861  1.00  0.00     0.171 HD
HETATM   25  N1  UNL     1       8.001   0.026   4.465  1.00  0.00    -0.369 N 
HETATM   26  N2  UNL     1       9.011   1.690   2.943  1.00  0.00    -0.063 NA
HETATM   27  C1  UNL     1       7.760  -1.049   3.530  1.00  0.00     0.148 C 
ATOM     28  H1  UNL     1       7.443   0.112   5.315  1.00  0.00     0.161 HD
HETATM   29  O1  UNL     1      10.782   3.332   4.930  1.00  0.00    -0.271 OA
ENDBRANCH  19  21
ENDBRANCH   1  19
BRANCH   8  30
HETATM   30  C10 UNL     1      13.258  -1.283  10.250  1.00  0.00    -0.045 C 
HETATM   31  C11 UNL     1      13.867  -0.607  11.485  1.00  0.00     0.015 C 
HETATM   32  C12 UNL     1      12.060  -0.479   9.863  1.00  0.00     0.015 C 
HETATM   33  C13 UNL     1      12.839  -2.652  10.661  1.00  0.00     0.015 C 
ENDBRANCH   8  30
TORSDOF 5
ENDMDL
MODEL 3
REMARK VINA RESULT: -7.935151581      1.067      1.115
REMARK  5 active torsions:
REMARK  status: ('A' for Active; 'I' for Inactive)
REMARK       I    between atoms: N1_2  and  C2_4 
REMARK       I    between atoms: N3_6  and  C3_8 
REMARK    1  A    between atoms: C3_8  and  C4_10 
REMARK    2  A    between atoms: C4_10  and  N4_12 
REMARK       I    between atoms: N4_12  and  C6_14 
REMARK       I    between atoms: C6_14  and  N5_16 
REMARK    3  A    between atoms: C9_19  and  C10_20 
REMARK    4  A    between atoms: C14_24  and  C15_25 
REMARK       I    between atoms: C15_25  and  N6_27 
REMARK    5  A    between atoms: N6_27  and  N7_29 
REMARK       I    between atoms: N7_29  and  C16_31 
ROOT
HETATM    1  N4  UNL     1      13.802  -0.045   5.192  1.00  0.00    -0.330 N 
ATOM      2  H4  UNL     1      13.036  -0.530   4.724  1.00  0.00     0.165 HD
HETATM    3  C6  UNL     1      14.676  -0.789   5.997  1.00  0.00     0.319 C 
HETATM    4  O2  UNL     1      15.618  -0.208   6.577  1.00  0.00    -0.247 OA
HETATM    5  N5  UNL     1      14.519  -2.175   6.166  1.00  0.00    -0.320 N 
HETATM    6  C7  UNL     1      13.467  -2.962   5.537  1.00  0.00     0.129 C 
HETATM    7  C8  UNL     1      13.940  -4.369   5.469  1.00  0.00     0.028 C 
HETATM    8  C9  UNL     1      15.140  -4.409   6.364  1.00  0.00     0.027 C 
HETATM    9  C14 UNL     1      15.339  -3.081   6.982  1.00  0.00     0.187 C 
ENDROOT
BRANCH   9  10
HETATM   10  C15 UNL     1      14.854  -3.087   8.386  1.00  0.00     0.259 C 
HETATM   11  O3  UNL     1      15.552  -3.640   9.300  1.00  0.00    -0.269 OA
HETATM   12  N6  UNL     1      13.632  -2.499   8.784  1.00  0.00    -0.266 N 
ATOM     13  H6  UNL     1      13.058  -2.050   8.070  1.00  0.00     0.190 HD
BRANCH  12  14
HETATM   14  N7  UNL     1      13.168  -2.499  10.097  1.00  0.00    -0.268 N 
HETATM   15  C16 UNL     1      12.598  -3.687  10.656  1.00  0.00     0.232 C 
HETATM   16  C17 UNL     1      12.095  -3.733  12.044  1.00  0.00     0.119 C 
HETATM   17  O4  UNL     1      12.512  -4.752   9.954  1.00  0.00    -0.272 OA
ATOM     18  H7  UNL     1      13.235  -1.652  10.661  1.00  0.00     0.190 HD
ENDBRANCH  12  14
ENDBRANCH   9  10
BRANCH   1  19
HETATM   19  C4  UNL     1      13.940   1.390   4.997  1.00  0.00     0.174 C 
HETATM   20  C5  UNL     1      13.299   2.101   6.177  1.00  0.00     0.042 C 
BRANCH  19  21
HETATM   21  C3  UNL     1      13.241   1.757   3.747  1.00  0.00     0.246 C 
HETATM   22  N3  UNL     1      11.862   2.058   3.691  1.00  0.00    -0.300 N 
HETATM   23  C2  UNL     1      10.963   1.241   3.293  1.00  0.00     0.190 C 
ATOM     24  H3  UNL     1      11.564   2.987   3.988  1.00  0.00     0.171 HD
HETATM   25  N1  UNL     1       9.586   1.583   3.252  1.00  0.00    -0.369 N 
HETATM   26  N2  UNL     1      11.391  -0.063   2.878  1.00  0.00    -0.063 NA
HETATM   27  C1  UNL     1       8.646   0.758   3.978  1.00  0.00     0.148 C 
ATOM     28  H1  UNL     1       9.266   2.394   2.722  1.00  0.00     0.161 HD
HETATM   29  O1  UNL     1      13.883   1.813   2.655  1.00  0.00    -0.271 OA
ENDBRANCH  19  21
ENDBRANCH   1  19
BRANCH   8  30
HETATM   30  C10 UNL     1      16.324  -4.898   5.562  1.00  0.00    -0.045 C 
HETATM   31  C11 UNL     1      17.275  -5.558   6.569  1.00  0.00     0.015 C 
HETATM   32  C12 UNL     1      15.950  -5.949   4.567  1.00  0.00     0.015 C 
HETATM   33  C13 UNL     1      17.084  -3.809   4.889  1.00  0.00     0.015 C 
ENDBRANCH   8  30
TORSDOF 5
ENDMDL
MODEL 4
REMARK VINA RESULT: -7.878839669      1.788      1.884
REMARK  5 active torsions:
REMARK  status: ('A' for Active; 'I' for Inactive)
REMARK       I    between atoms: N1_2  and  C2_4 
REMARK       I    between atoms: N3_6  and  C3_8 
REMARK    1  A    between atoms: C3_8  and  C4_10 
REMARK    2  A    between atoms: C4_10  and  N4_12 
REMARK       I    between atoms: N4_12  and  C6_14 
REMARK       I    between atoms: C6_14  and  N5_16 
REMARK    3  A    between atoms: C9_19  and  C10_20 
REMARK    4  A    between atoms: C14_24  and  C15_25 
REMARK       I    between atoms: C15_25  and  N6_27 
REMARK    5  A    between atoms: N6_27  and  N7_29 
REMARK       I    between atoms: N7_29  and  C16_31 
ROOT
HETATM    1  N4  UNL     1      12.817  -0.538   4.353  1.00  0.00    -0.330 N 
ATOM      2  H4  UNL     1      12.071  -1.199   4.135  1.00  0.00     0.165 HD
HETATM    3  C6  UNL     1      13.956  -1.008   5.022  1.00  0.00     0.319 C 
HETATM    4  O2  UNL     1      14.877  -0.210   5.297  1.00  0.00    -0.247 OA
HETATM    5  N5  UNL     1      14.088  -2.357   5.390  1.00  0.00    -0.320 N 
HETATM    6  C7  UNL     1      13.087  -3.380   5.118  1.00  0.00     0.129 C 
HETATM    7  C8  UNL     1      13.780  -4.695   5.116  1.00  0.00     0.028 C 
HETATM    8  C9  UNL     1      15.125  -4.415   5.713  1.00  0.00     0.027 C 
HETATM    9  C14 UNL     1      15.205  -2.991   6.102  1.00  0.00     0.187 C 
ENDROOT
BRANCH   9  10
HETATM   10  C15 UNL     1      15.028  -2.847   7.569  1.00  0.00     0.259 C 
HETATM   11  O3  UNL     1      15.394  -3.785   8.353  1.00  0.00    -0.269 OA
HETATM   12  N6  UNL     1      14.461  -1.699   8.169  1.00  0.00    -0.266 N 
ATOM     13  H6  UNL     1      14.162  -0.936   7.562  1.00  0.00     0.190 HD
BRANCH  12  14
HETATM   14  N7  UNL     1      14.290  -1.553   9.544  1.00  0.00    -0.268 N 
HETATM   15  C16 UNL     1      13.836  -0.307  10.081  1.00  0.00     0.232 C 
HETATM   16  C17 UNL     1      13.639  -0.108  11.533  1.00  0.00     0.119 C 
HETATM   17  O4  UNL     1      13.586   0.676   9.305  1.00  0.00    -0.272 OA
ATOM     18  H7  UNL     1      14.488  -2.336  10.167  1.00  0.00     0.190 HD
ENDBRANCH  12  14
ENDBRANCH   9  10
BRANCH   1  19
HETATM   19  C4  UNL     1      12.654   0.853   3.958  1.00  0.00     0.174 C 
HETATM   20  C5  UNL     1      11.758   1.541   4.975  1.00  0.00     0.042 C 
BRANCH  19  21
HETATM   21  C3  UNL     1      12.018   0.884   2.623  1.00  0.00     0.246 C 
HETATM   22  N3  UNL     1      10.644   1.148   2.426  1.00  0.00    -0.300 N 
HETATM   23  C2  UNL     1       9.763   0.249   2.206  1.00  0.00     0.190 C 
ATOM     24  H3  UNL     1      10.336   2.119   2.462  1.00  0.00     0.171 HD
HETATM   25  N1  UNL     1       8.391   0.557   2.014  1.00  0.00    -0.369 N 
HETATM   26  N2  UNL     1      10.206  -1.114   2.158  1.00  0.00    -0.063 NA
HETATM   27  C1  UNL     1       7.414  -0.065   2.879  1.00  0.00     0.148 C 
ATOM     28  H1  UNL     1       8.100   1.203   1.280  1.00  0.00     0.161 HD
HETATM   29  O1  UNL     1      12.713   0.665   1.586  1.00  0.00    -0.271 OA
ENDBRANCH  19  21
ENDBRANCH   1  19
BRANCH   8  30
HETATM   30  C10 UNL     1      16.188  -4.844   4.727  1.00  0.00    -0.045 C 
HETATM   31  C11 UNL     1      17.466  -5.058   5.548  1.00  0.00     0.015 C 
HETATM   32  C12 UNL     1      15.872  -6.150   4.072  1.00  0.00     0.015 C 
HETATM   33  C13 UNL     1      16.497  -3.820   3.692  1.00  0.00     0.015 C 
ENDBRANCH   8  30
TORSDOF 5
ENDMDL
MODEL 5
REMARK VINA RESULT: -7.871546584      1.214      1.322
REMARK  5 active torsions:
REMARK  status: ('A' for Active; 'I' for Inactive)
REMARK       I    between atoms: N1_2  and  C2_4 
REMARK       I    between atoms: N3_6  and  C3_8 
REMARK    1  A    between atoms: C3_8  and  C4_10 
REMARK    2  A    between atoms: C4_10  and  N4_12 
REMARK       I    between atoms: N4_12  and  C6_14 
REMARK       I    between atoms: C6_14  and  N5_16 
REMARK    3  A    between atoms: C9_19  and  C10_20 
REMARK    4  A    between atoms: C14_24  and  C15_25 
REMARK       I    between atoms: C15_25  and  N6_27 
REMARK    5  A    between atoms: N6_27  and  N7_29 
REMARK       I    between atoms: N7_29  and  C16_31 
ROOT
HETATM    1  N4  UNL     1      13.300  -0.597   5.850  1.00  0.00    -0.330 N 
ATOM      2  H4  UNL     1      12.560  -1.046   5.310  1.00  0.00     0.165 HD
HETATM    3  C6  UNL     1      14.302  -1.398   6.414  1.00  0.00     0.319 C 
HETATM    4  O2  UNL     1      15.214  -0.861   7.078  1.00  0.00    -0.247 OA
HETATM    5  N5  UNL     1      14.308  -2.793   6.249  1.00  0.00    -0.320 N 
HETATM    6  C7  UNL     1      13.305  -3.530   5.491  1.00  0.00     0.129 C 
HETATM    7  C8  UNL     1      13.921  -4.815   5.065  1.00  0.00     0.028 C 
HETATM    8  C9  UNL     1      15.177  -4.919   5.874  1.00  0.00     0.027 C 
HETATM    9  C14 UNL     1      15.274  -3.759   6.786  1.00  0.00     0.187 C 
ENDROOT
BRANCH   9  10
HETATM   10  C15 UNL     1      14.891  -4.155   8.166  1.00  0.00     0.259 C 
HETATM   11  O3  UNL     1      15.788  -4.289   9.064  1.00  0.00    -0.269 OA
HETATM   12  N6  UNL     1      13.555  -4.398   8.556  1.00  0.00    -0.266 N 
ATOM     13  H6  UNL     1      12.821  -4.296   7.855  1.00  0.00     0.190 HD
BRANCH  12  14
HETATM   14  N7  UNL     1      13.185  -4.770   9.846  1.00  0.00    -0.268 N 
HETATM   15  C16 UNL     1      12.599  -3.808  10.729  1.00  0.00     0.232 C 
HETATM   16  C17 UNL     1      12.191  -4.158  12.106  1.00  0.00     0.119 C 
HETATM   17  O4  UNL     1      12.412  -2.605  10.339  1.00  0.00    -0.272 OA
ATOM     18  H7  UNL     1      13.332  -5.728  10.162  1.00  0.00     0.190 HD
ENDBRANCH  12  14
ENDBRANCH   9  10
BRANCH   1  19
HETATM   19  C4  UNL     1      13.269   0.850   6.002  1.00  0.00     0.174 C 
HETATM   20  C5  UNL     1      12.947   1.176   7.452  1.00  0.00     0.042 C 
BRANCH  19  21
HETATM   21  C3  UNL     1      12.213   1.387   5.118  1.00  0.00     0.246 C 
HETATM   22  N3  UNL     1      11.231   0.578   4.505  1.00  0.00    -0.300 N 
HETATM   23  C2  UNL     1      11.273   0.193   3.287  1.00  0.00     0.190 C 
ATOM     24  H3  UNL     1      10.437   0.280   5.072  1.00  0.00     0.171 HD
HETATM   25  N1  UNL     1      10.266  -0.621   2.708  1.00  0.00    -0.369 N 
HETATM   26  N2  UNL     1      12.394   0.616   2.499  1.00  0.00    -0.063 NA
HETATM   27  C1  UNL     1      10.651  -1.879   2.109  1.00  0.00     0.148 C 
ATOM     28  H1  UNL     1       9.289  -0.326   2.715  1.00  0.00     0.161 HD
HETATM   29  O1  UNL     1      12.160   2.631   4.878  1.00  0.00    -0.271 OA
ENDBRANCH  19  21
ENDBRANCH   1  19
BRANCH   8  30
HETATM   30  C10 UNL     1      16.348  -5.058   4.929  1.00  0.00    -0.045 C 
HETATM   31  C11 UNL     1      17.604  -5.080   5.810  1.00  0.00     0.015 C 
HETATM   32  C12 UNL     1      16.328  -6.347   4.173  1.00  0.00     0.015 C 
HETATM   33  C13 UNL     1      16.496  -3.917   3.983  1.00  0.00     0.015 C 
ENDBRANCH   8  30
TORSDOF 5
ENDMDL
