MODEL 1
REMARK VINA RESULT: -7.378966745      0.000      0.000
REMARK  3 active torsions:
REMARK  status: ('A' for Active; 'I' for Inactive)
REMARK    1  A    between atoms: N1_1  and  C1_4 
REMARK    2  A    between atoms: C6_16  and  C7_17 
REMARK    3  A    between atoms: C7_17  and  N5_18 
ROOT
HETATM    1  C1  UNL     1       7.483 -11.155   5.529  1.00  0.00     0.680 A 
HETATM    2  N2  UNL     1       7.050 -10.145   4.756  1.00  0.00    -0.155 N 
ATOM      3  H2  UNL     1       7.060  -9.184   5.097  1.00  0.00     0.187 HD
HETATM    4  C2  UNL     1       6.597 -10.440   3.501  1.00  0.00     0.275 A 
HETATM    5  O1  UNL     1       6.201  -9.495   2.797  1.00  0.00    -0.267 OA
HETATM    6  C3  UNL     1       6.589 -11.749   3.053  1.00  0.00     0.097 A 
HETATM    7  C4  UNL     1       7.048 -12.763   3.894  1.00  0.00     0.134 A 
HETATM    8  N3  UNL     1       7.484 -12.427   5.116  1.00  0.00    -0.176 N 
ATOM      9  H3  UNL     1       7.823 -13.155   5.743  1.00  0.00     0.186 HD
HETATM   10  N4  UNL     1       7.110 -14.006   3.649  1.00  0.00    -0.375 N 
ATOM     11  H4  UNL     1       7.486 -14.533   4.436  1.00  0.00     0.161 HD
HETATM   12  C5  UNL     1       6.787 -14.843   2.555  1.00  0.00     0.128 C 
HETATM   13  C6  UNL     1       5.614 -14.352   1.740  1.00  0.00     0.034 C 
HETATM   14  C8  UNL     1       5.953 -13.101   0.972  1.00  0.00     0.063 C 
HETATM   15  C9  UNL     1       6.132 -11.901   1.826  1.00  0.00     0.044 C 
HETATM   16  N6  UNL     1       5.729 -10.729   1.157  1.00  0.00    -0.106 NA
ENDROOT
BRANCH  13  17
HETATM   17  C7  UNL     1       5.305 -15.423   0.714  1.00  0.00     0.236 C 
BRANCH  17  18
HETATM   18  N5  UNL     1       5.621 -14.909  -0.605  1.00  0.00    -0.079 N 
ATOM     19  H53 UNL     1       4.883 -15.093  -1.283  1.00  0.00     0.274 HD
ATOM     20  H52 UNL     1       5.597 -13.890  -0.642  1.00  0.00     0.274 HD
ATOM     21  H51 UNL     1       6.522 -15.288  -0.896  1.00  0.00     0.274 HD
ENDBRANCH  17  18
ENDBRANCH  13  17
BRANCH   1  22
HETATM   22  N1  UNL     1       7.906 -10.829   6.715  1.00  0.00    -0.234 N 
ATOM     23  H12 UNL     1       8.882 -10.589   6.882  1.00  0.00     0.174 HD
ATOM     24  H11 UNL     1       7.206 -10.831   7.458  1.00  0.00     0.174 HD
ENDBRANCH   1  22
TORSDOF 3
ENDMDL
MODEL 2
REMARK VINA RESULT: -6.722433477      1.419      1.491
REMARK  3 active torsions:
REMARK  status: ('A' for Active; 'I' for Inactive)
REMARK    1  A    between atoms: N1_1  and  C1_4 
REMARK    2  A    between atoms: C6_16  and  C7_17 
REMARK    3  A    between atoms: C7_17  and  N5_18 
ROOT
HETATM    1  C1  UNL     1       6.875 -11.070   5.041  1.00  0.00     0.680 A 
HETATM    2  N2  UNL     1       6.250 -10.401   4.058  1.00  0.00    -0.155 N 
ATOM      3  H2  UNL     1       6.042  -9.407   4.153  1.00  0.00     0.187 HD
HETATM    4  C2  UNL     1       5.900 -11.087   2.930  1.00  0.00     0.275 A 
HETATM    5  O1  UNL     1       5.322 -10.454   2.029  1.00  0.00    -0.267 OA
HETATM    6  C3  UNL     1       6.187 -12.435   2.817  1.00  0.00     0.097 A 
HETATM    7  C4  UNL     1       6.837 -13.087   3.866  1.00  0.00     0.134 A 
HETATM    8  N3  UNL     1       7.162 -12.373   4.953  1.00  0.00    -0.176 N 
ATOM      9  H3  UNL     1       7.638 -12.833   5.728  1.00  0.00     0.186 HD
HETATM   10  N4  UNL     1       7.174 -14.307   3.931  1.00  0.00    -0.375 N 
ATOM     11  H4  UNL     1       7.638 -14.530   4.812  1.00  0.00     0.161 HD
HETATM   12  C5  UNL     1       7.065 -15.438   3.088  1.00  0.00     0.128 C 
HETATM   13  C6  UNL     1       5.831 -15.429   2.217  1.00  0.00     0.034 C 
HETATM   14  C8  UNL     1       5.906 -14.364   1.154  1.00  0.00     0.063 C 
HETATM   15  C9  UNL     1       5.802 -12.981   1.681  1.00  0.00     0.044 C 
HETATM   16  N6  UNL     1       5.167 -12.127   0.758  1.00  0.00    -0.106 NA
ENDROOT
BRANCH  13  17
HETATM   17  C7  UNL     1       5.786 -16.761   1.495  1.00  0.00     0.236 C 
BRANCH  17  18
HETATM   18  N5  UNL     1       6.166 -17.807   2.424  1.00  0.00    -0.079 N 
ATOM     19  H53 UNL     1       5.969 -17.559   3.393  1.00  0.00     0.274 HD
ATOM     20  H52 UNL     1       5.559 -18.625   2.361  1.00  0.00     0.274 HD
ATOM     21  H51 UNL     1       7.148 -18.038   2.273  1.00  0.00     0.274 HD
ENDBRANCH  17  18
ENDBRANCH  13  17
BRANCH   1  22
HETATM   22  N1  UNL     1       7.190 -10.378   6.096  1.00  0.00    -0.234 N 
ATOM     23  H12 UNL     1       7.722  -9.511   6.022  1.00  0.00     0.174 HD
ATOM     24  H11 UNL     1       6.876 -10.754   6.991  1.00  0.00     0.174 HD
ENDBRANCH   1  22
TORSDOF 3
ENDMDL
MODEL 3
REMARK VINA RESULT: -6.640283384      2.846      5.135
REMARK  3 active torsions:
REMARK  status: ('A' for Active; 'I' for Inactive)
REMARK    1  A    between atoms: N1_1  and  C1_4 
REMARK    2  A    between atoms: C6_16  and  C7_17 
REMARK    3  A    between atoms: C7_17  and  N5_18 
ROOT
HETATM    1  C1  UNL     1       7.569 -17.611   3.021  1.00  0.00     0.680 A 
HETATM    2  N2  UNL     1       6.823 -17.836   1.926  1.00  0.00    -0.155 N 
ATOM      3  H2  UNL     1       6.822 -18.750   1.473  1.00  0.00     0.187 HD
HETATM    4  C2  UNL     1       6.068 -16.809   1.435  1.00  0.00     0.275 A 
HETATM    5  O1  UNL     1       5.383 -17.032   0.422  1.00  0.00    -0.267 OA
HETATM    6  C3  UNL     1       6.081 -15.574   2.060  1.00  0.00     0.097 A 
HETATM    7  C4  UNL     1       6.872 -15.390   3.194  1.00  0.00     0.134 A 
HETATM    8  N3  UNL     1       7.596 -16.426   3.640  1.00  0.00    -0.176 N 
ATOM      9  H3  UNL     1       8.179 -16.309   4.468  1.00  0.00     0.186 HD
HETATM   10  N4  UNL     1       7.004 -14.335   3.885  1.00  0.00    -0.375 N 
ATOM     11  H4  UNL     1       7.645 -14.467   4.667  1.00  0.00     0.161 HD
HETATM   12  C5  UNL     1       6.483 -13.021   3.842  1.00  0.00     0.128 C 
HETATM   13  C6  UNL     1       6.197 -12.527   2.443  1.00  0.00     0.034 C 
HETATM   14  C8  UNL     1       5.030 -13.250   1.825  1.00  0.00     0.063 C 
HETATM   15  C9  UNL     1       5.309 -14.669   1.493  1.00  0.00     0.044 C 
HETATM   16  N6  UNL     1       4.590 -15.082   0.355  1.00  0.00    -0.106 NA
ENDROOT
BRANCH  13  17
HETATM   17  C7  UNL     1       5.794 -11.070   2.559  1.00  0.00     0.236 C 
BRANCH  17  18
HETATM   18  N5  UNL     1       4.697 -10.817   1.646  1.00  0.00    -0.079 N 
ATOM     19  H53 UNL     1       4.757  -9.897   1.209  1.00  0.00     0.274 HD
ATOM     20  H52 UNL     1       4.757 -11.381   0.797  1.00  0.00     0.274 HD
ATOM     21  H51 UNL     1       3.818 -10.955   2.144  1.00  0.00     0.274 HD
ENDBRANCH  17  18
ENDBRANCH  13  17
BRANCH   1  22
HETATM   22  N1  UNL     1       8.271 -18.616   3.453  1.00  0.00    -0.234 N 
ATOM     23  H12 UNL     1       9.153 -18.876   3.011  1.00  0.00     0.174 HD
ATOM     24  H11 UNL     1       7.889 -19.122   4.252  1.00  0.00     0.174 HD
ENDBRANCH   1  22
TORSDOF 3
ENDMDL
MODEL 4
REMARK VINA RESULT: -6.631649144      2.109      5.648
REMARK  3 active torsions:
REMARK  status: ('A' for Active; 'I' for Inactive)
REMARK    1  A    between atoms: N1_1  and  C1_4 
REMARK    2  A    between atoms: C6_16  and  C7_17 
REMARK    3  A    between atoms: C7_17  and  N5_18 
ROOT
HETATM    1  C1  UNL     1       6.035 -15.042  -0.427  1.00  0.00     0.680 A 
HETATM    2  N2  UNL     1       6.029 -16.012   0.502  1.00  0.00    -0.155 N 
ATOM      3  H2  UNL     1       5.868 -16.985   0.241  1.00  0.00     0.187 HD
HETATM    4  C2  UNL     1       6.245 -15.662   1.805  1.00  0.00     0.275 A 
HETATM    5  O1  UNL     1       6.237 -16.570   2.653  1.00  0.00    -0.267 OA
HETATM    6  C3  UNL     1       6.461 -14.338   2.143  1.00  0.00     0.097 A 
HETATM    7  C4  UNL     1       6.457 -13.366   1.142  1.00  0.00     0.134 A 
HETATM    8  N3  UNL     1       6.242 -13.756  -0.122  1.00  0.00    -0.176 N 
ATOM      9  H3  UNL     1       6.236 -13.059  -0.866  1.00  0.00     0.186 HD
HETATM   10  N4  UNL     1       6.635 -12.117   1.272  1.00  0.00    -0.375 N 
ATOM     11  H4  UNL     1       6.583 -11.628   0.379  1.00  0.00     0.161 HD
HETATM   12  C5  UNL     1       6.888 -11.234   2.348  1.00  0.00     0.128 C 
HETATM   13  C6  UNL     1       6.257 -11.666   3.650  1.00  0.00     0.034 C 
HETATM   14  C8  UNL     1       6.922 -12.896   4.210  1.00  0.00     0.063 C 
HETATM   15  C9  UNL     1       6.659 -14.130   3.429  1.00  0.00     0.044 C 
HETATM   16  N6  UNL     1       6.627 -15.267   4.260  1.00  0.00    -0.106 NA
ENDROOT
BRANCH  13  17
HETATM   17  C7  UNL     1       6.491 -10.552   4.650  1.00  0.00     0.236 C 
BRANCH  17  18
HETATM   18  N5  UNL     1       7.656 -10.879   5.448  1.00  0.00    -0.079 N 
ATOM     19  H53 UNL     1       7.414 -11.356   6.316  1.00  0.00     0.274 HD
ATOM     20  H52 UNL     1       8.219 -11.621   5.031  1.00  0.00     0.274 HD
ATOM     21  H51 UNL     1       8.193 -10.027   5.608  1.00  0.00     0.274 HD
ENDBRANCH  17  18
ENDBRANCH  13  17
BRANCH   1  22
HETATM   22  N1  UNL     1       5.827 -15.420  -1.654  1.00  0.00    -0.234 N 
ATOM     23  H12 UNL     1       5.643 -16.396  -1.884  1.00  0.00     0.174 HD
ATOM     24  H11 UNL     1       5.858 -14.687  -2.363  1.00  0.00     0.174 HD
ENDBRANCH   1  22
TORSDOF 3
ENDMDL
MODEL 5
REMARK VINA RESULT: -6.603078636      1.686      2.148
REMARK  3 active torsions:
REMARK  status: ('A' for Active; 'I' for Inactive)
REMARK    1  A    between atoms: N1_1  and  C1_4 
REMARK    2  A    between atoms: C6_16  and  C7_17 
REMARK    3  A    between atoms: C7_17  and  N5_18 
ROOT
HETATM    1  C1  UNL     1       7.147 -12.354   4.273  1.00  0.00     0.680 A 
HETATM    2  N2  UNL     1       5.993 -11.758   3.930  1.00  0.00    -0.155 N 
ATOM      3  H2  UNL     1       5.654 -10.942   4.438  1.00  0.00     0.187 HD
HETATM    4  C2  UNL     1       5.285 -12.274   2.881  1.00  0.00     0.275 A 
HETATM    5  O1  UNL     1       4.220 -11.712   2.574  1.00  0.00    -0.267 OA
HETATM    6  C3  UNL     1       5.757 -13.383   2.201  1.00  0.00     0.097 A 
HETATM    7  C4  UNL     1       6.961 -13.967   2.596  1.00  0.00     0.134 A 
HETATM    8  N3  UNL     1       7.620 -13.426   3.629  1.00  0.00    -0.176 N 
ATOM      9  H3  UNL     1       8.502 -13.841   3.931  1.00  0.00     0.186 HD
HETATM   10  N4  UNL     1       7.535 -14.979   2.091  1.00  0.00    -0.375 N 
ATOM     11  H4  UNL     1       8.408 -15.202   2.568  1.00  0.00     0.161 HD
HETATM   12  C5  UNL     1       7.266 -15.875   1.030  1.00  0.00     0.128 C 
HETATM   13  C6  UNL     1       5.793 -16.119   0.800  1.00  0.00     0.034 C 
HETATM   14  C8  UNL     1       5.107 -14.900   0.241  1.00  0.00     0.063 C 
HETATM   15  C9  UNL     1       4.987 -13.782   1.209  1.00  0.00     0.044 C 
HETATM   16  N6  UNL     1       3.816 -13.032   0.984  1.00  0.00    -0.106 NA
ENDROOT
BRANCH  13  17
HETATM   17  C7  UNL     1       5.680 -17.203  -0.253  1.00  0.00     0.236 C 
BRANCH  17  18
HETATM   18  N5  UNL     1       6.146 -16.672  -1.519  1.00  0.00    -0.079 N 
ATOM     19  H53 UNL     1       5.380 -16.371  -2.122  1.00  0.00     0.274 HD
ATOM     20  H52 UNL     1       6.609 -15.768  -1.417  1.00  0.00     0.274 HD
ATOM     21  H51 UNL     1       6.744 -17.367  -1.966  1.00  0.00     0.274 HD
ENDBRANCH  17  18
ENDBRANCH  13  17
BRANCH   1  22
HETATM   22  N1  UNL     1       7.787 -11.830   5.276  1.00  0.00    -0.234 N 
ATOM     23  H12 UNL     1       8.013 -12.378   6.106  1.00  0.00     0.174 HD
ATOM     24  H11 UNL     1       8.045 -10.847   5.181  1.00  0.00     0.174 HD
ENDBRANCH   1  22
TORSDOF 3
ENDMDL
