MODEL 1
REMARK VINA RESULT: -7.451650522      0.000      0.000
REMARK  8 active torsions:
REMARK  status: ('A' for Active; 'I' for Inactive)
REMARK    1  A    between atoms: C2_2  and  O1_3 
REMARK    2  A    between atoms: C2_2  and  C3_5 
REMARK    3  A    between atoms: C3_5  and  N1_6 
REMARK    4  A    between atoms: C3_5  and  C4_10 
REMARK    5  A    between atoms: C5_13  and  N3_14 
REMARK    6  A    between atoms: N3_14  and  N4_15 
REMARK    7  A    between atoms: C8_20  and  N5_21 
REMARK    8  A    between atoms: N5_21  and  N6_23 
ROOT
HETATM    1  C4  UNL     1       6.745 -12.576   3.885  1.00  0.00     0.118 C 
HETATM    2  N2  UNL     1       5.673 -12.236   3.164  1.00  0.00    -0.317 N 
ATOM      3  H2  UNL     1       5.158 -11.439   3.538  1.00  0.00     0.170 HD
HETATM    4  C5  UNL     1       5.134 -12.761   2.014  1.00  0.00     0.204 C 
HETATM    5  C6  UNL     1       5.374 -14.109   1.658  1.00  0.00     0.070 C 
HETATM    6  C7  UNL     1       5.982 -15.113   2.371  1.00  0.00     0.055 C 
HETATM    7  C8  UNL     1       6.804 -14.989   3.467  1.00  0.00     0.120 C 
HETATM    8  N7  UNL     1       7.214 -13.828   4.022  1.00  0.00    -0.329 N 
ATOM      9  H7  UNL     1       8.013 -13.916   4.651  1.00  0.00     0.168 HD
ENDROOT
BRANCH   1  10
HETATM   10  C3  UNL     1       7.476 -11.522   4.584  1.00  0.00     0.278 C 
BRANCH  10  11
HETATM   11  C2  UNL     1       6.598 -10.606   5.404  1.00  0.00     0.152 C 
HETATM   12  C1  UNL     1       7.359  -9.988   6.561  1.00  0.00     0.042 C 
BRANCH  11  13
HETATM   13  O1  UNL     1       5.965  -9.660   4.614  1.00  0.00    -0.393 OA
ATOM     14  H1  UNL     1       6.100  -9.807   3.685  1.00  0.00     0.210 HD
ENDBRANCH  11  13
ENDBRANCH  10  11
BRANCH  10  15
HETATM   15  N1  UNL     1       8.483 -12.058   5.484  1.00  0.00    -0.066 N 
ATOM     16  H13 UNL     1       8.996 -11.336   5.989  1.00  0.00     0.275 HD
ATOM     17  H12 UNL     1       8.085 -12.526   6.299  1.00  0.00     0.275 HD
ATOM     18  H11 UNL     1       9.085 -12.664   4.928  1.00  0.00     0.275 HD
ENDBRANCH  10  15
ENDBRANCH   1  10
BRANCH   4  19
HETATM   19  N3  UNL     1       4.463 -12.140   1.285  1.00  0.00    -0.314 NA
BRANCH  19  20
HETATM   20  N4  UNL     1       3.728 -11.460   0.488  1.00  0.00    -0.278 N 
ATOM     21  H42 UNL     1       4.349 -12.017   1.075  1.00  0.00     0.191 HD
ATOM     22  H41 UNL     1       3.143 -10.917  -0.146  1.00  0.00     0.191 HD
ENDBRANCH  19  20
ENDBRANCH   4  19
BRANCH   7  23
HETATM   23  N5  UNL     1       7.230 -16.064   4.024  1.00  0.00    -0.292 N 
ATOM     24  H5  UNL     1       7.148 -16.188   5.033  1.00  0.00     0.188 HD
BRANCH  23  25
HETATM   25  N6  UNL     1       7.805 -17.053   3.239  1.00  0.00    -0.344 N 
ATOM     26  H62 UNL     1       7.205 -17.737   2.778  1.00  0.00     0.176 HD
ATOM     27  H61 UNL     1       8.819 -17.082   3.135  1.00  0.00     0.176 HD
ENDBRANCH  23  25
ENDBRANCH   7  23
TORSDOF 8
ENDMDL
MODEL 2
REMARK VINA RESULT: -7.241803790      0.599      3.634
REMARK  8 active torsions:
REMARK  status: ('A' for Active; 'I' for Inactive)
REMARK    1  A    between atoms: C2_2  and  O1_3 
REMARK    2  A    between atoms: C2_2  and  C3_5 
REMARK    3  A    between atoms: C3_5  and  N1_6 
REMARK    4  A    between atoms: C3_5  and  C4_10 
REMARK    5  A    between atoms: C5_13  and  N3_14 
REMARK    6  A    between atoms: N3_14  and  N4_15 
REMARK    7  A    between atoms: C8_20  and  N5_21 
REMARK    8  A    between atoms: N5_21  and  N6_23 
ROOT
HETATM    1  C4  UNL     1       7.114 -12.189   3.463  1.00  0.00     0.118 C 
HETATM    2  N2  UNL     1       7.540 -13.452   3.367  1.00  0.00    -0.317 N 
ATOM      3  H2  UNL     1       8.521 -13.579   3.616  1.00  0.00     0.170 HD
HETATM    4  C5  UNL     1       6.903 -14.612   2.994  1.00  0.00     0.204 C 
HETATM    5  C6  UNL     1       5.764 -14.569   2.156  1.00  0.00     0.070 C 
HETATM    6  C7  UNL     1       5.210 -13.510   1.477  1.00  0.00     0.055 C 
HETATM    7  C8  UNL     1       5.413 -12.169   1.700  1.00  0.00     0.120 C 
HETATM    8  N7  UNL     1       6.173 -11.634   2.680  1.00  0.00    -0.329 N 
ATOM      9  H7  UNL     1       6.005 -10.643   2.856  1.00  0.00     0.168 HD
ENDROOT
BRANCH   1  10
HETATM   10  C3  UNL     1       7.703 -11.333   4.488  1.00  0.00     0.278 C 
BRANCH  10  11
HETATM   11  C2  UNL     1       6.688 -10.604   5.337  1.00  0.00     0.152 C 
HETATM   12  C1  UNL     1       7.316 -10.030   6.593  1.00  0.00     0.042 C 
BRANCH  11  13
HETATM   13  O1  UNL     1       5.995  -9.654   4.604  1.00  0.00    -0.393 OA
ATOM     14  H1  UNL     1       5.303 -10.033   4.074  1.00  0.00     0.210 HD
ENDBRANCH  11  13
ENDBRANCH  10  11
BRANCH  10  15
HETATM   15  N1  UNL     1       8.558 -12.077   5.399  1.00  0.00    -0.066 N 
ATOM     16  H13 UNL     1       8.887 -11.519   6.186  1.00  0.00     0.275 HD
ATOM     17  H12 UNL     1       8.052 -12.778   5.940  1.00  0.00     0.275 HD
ATOM     18  H11 UNL     1       9.314 -12.470   4.840  1.00  0.00     0.275 HD
ENDBRANCH  10  15
ENDBRANCH   1  10
BRANCH   4  19
HETATM   19  N3  UNL     1       7.258 -15.672   3.339  1.00  0.00    -0.314 NA
BRANCH  19  20
HETATM   20  N4  UNL     1       7.645 -16.832   3.714  1.00  0.00    -0.278 N 
ATOM     21  H42 UNL     1       7.285 -15.915   3.449  1.00  0.00     0.191 HD
ATOM     22  H41 UNL     1       7.956 -17.756   4.013  1.00  0.00     0.191 HD
ENDBRANCH  19  20
ENDBRANCH   4  19
BRANCH   7  23
HETATM   23  N5  UNL     1       4.836 -11.335   0.914  1.00  0.00    -0.292 N 
ATOM     24  H5  UNL     1       5.349 -10.533   0.546  1.00  0.00     0.188 HD
BRANCH  23  25
HETATM   25  N6  UNL     1       3.506 -11.535   0.570  1.00  0.00    -0.344 N 
ATOM     26  H62 UNL     1       3.279 -12.129  -0.227  1.00  0.00     0.176 HD
ATOM     27  H61 UNL     1       2.775 -11.083   1.121  1.00  0.00     0.176 HD
ENDBRANCH  23  25
ENDBRANCH   7  23
TORSDOF 8
ENDMDL
MODEL 3
REMARK VINA RESULT: -6.932589830      1.024      1.398
REMARK  8 active torsions:
REMARK  status: ('A' for Active; 'I' for Inactive)
REMARK    1  A    between atoms: C2_2  and  O1_3 
REMARK    2  A    between atoms: C2_2  and  C3_5 
REMARK    3  A    between atoms: C3_5  and  N1_6 
REMARK    4  A    between atoms: C3_5  and  C4_10 
REMARK    5  A    between atoms: C5_13  and  N3_14 
REMARK    6  A    between atoms: N3_14  and  N4_15 
REMARK    7  A    between atoms: C8_20  and  N5_21 
REMARK    8  A    between atoms: N5_21  and  N6_23 
ROOT
HETATM    1  C4  UNL     1       6.640 -12.500   3.784  1.00  0.00     0.118 C 
HETATM    2  N2  UNL     1       5.548 -12.215   3.070  1.00  0.00    -0.317 N 
ATOM      3  H2  UNL     1       5.018 -11.418   3.424  1.00  0.00     0.170 HD
HETATM    4  C5  UNL     1       5.004 -12.794   1.949  1.00  0.00     0.204 C 
HETATM    5  C6  UNL     1       5.274 -14.147   1.637  1.00  0.00     0.070 C 
HETATM    6  C7  UNL     1       5.920 -15.110   2.375  1.00  0.00     0.055 C 
HETATM    7  C8  UNL     1       6.756 -14.925   3.451  1.00  0.00     0.120 C 
HETATM    8  N7  UNL     1       7.144 -13.734   3.958  1.00  0.00    -0.329 N 
ATOM      9  H7  UNL     1       7.954 -13.779   4.576  1.00  0.00     0.168 HD
ENDROOT
BRANCH   1  10
HETATM   10  C3  UNL     1       7.354 -11.404   4.433  1.00  0.00     0.278 C 
BRANCH  10  11
HETATM   11  C2  UNL     1       7.592 -10.211   3.537  1.00  0.00     0.152 C 
HETATM   12  C1  UNL     1       8.360 -10.594   2.286  1.00  0.00     0.042 C 
BRANCH  11  13
HETATM   13  O1  UNL     1       6.414  -9.538   3.255  1.00  0.00    -0.393 OA
ATOM     14  H1  UNL     1       5.872  -9.994   2.622  1.00  0.00     0.210 HD
ENDBRANCH  11  13
ENDBRANCH  10  11
BRANCH  10  15
HETATM   15  N1  UNL     1       6.654 -10.915   5.609  1.00  0.00    -0.066 N 
ATOM     16  H13 UNL     1       6.111 -10.070   5.431  1.00  0.00     0.275 HD
ATOM     17  H12 UNL     1       5.875 -11.511   5.890  1.00  0.00     0.275 HD
ATOM     18  H11 UNL     1       7.353 -10.796   6.341  1.00  0.00     0.275 HD
ENDBRANCH  10  15
ENDBRANCH   1  10
BRANCH   4  19
HETATM   19  N3  UNL     1       4.305 -12.218   1.209  1.00  0.00    -0.314 NA
BRANCH  19  20
HETATM   20  N4  UNL     1       3.540 -11.588   0.400  1.00  0.00    -0.278 N 
ATOM     21  H42 UNL     1       4.129 -12.054   1.091  1.00  0.00     0.191 HD
ATOM     22  H41 UNL     1       2.930 -11.087  -0.245  1.00  0.00     0.191 HD
ENDBRANCH  19  20
ENDBRANCH   4  19
BRANCH   7  23
HETATM   23  N5  UNL     1       7.219 -15.967   4.039  1.00  0.00    -0.292 N 
ATOM     24  H5  UNL     1       7.183 -16.045   5.056  1.00  0.00     0.188 HD
BRANCH  23  25
HETATM   25  N6  UNL     1       7.770 -16.988   3.276  1.00  0.00    -0.344 N 
ATOM     26  H62 UNL     1       7.159 -17.573   2.708  1.00  0.00     0.176 HD
ATOM     27  H61 UNL     1       8.779 -17.136   3.297  1.00  0.00     0.176 HD
ENDBRANCH  23  25
ENDBRANCH   7  23
TORSDOF 8
ENDMDL
MODEL 4
REMARK VINA RESULT: -6.619284231      2.197      4.507
REMARK  8 active torsions:
REMARK  status: ('A' for Active; 'I' for Inactive)
REMARK    1  A    between atoms: C2_2  and  O1_3 
REMARK    2  A    between atoms: C2_2  and  C3_5 
REMARK    3  A    between atoms: C3_5  and  N1_6 
REMARK    4  A    between atoms: C3_5  and  C4_10 
REMARK    5  A    between atoms: C5_13  and  N3_14 
REMARK    6  A    between atoms: N3_14  and  N4_15 
REMARK    7  A    between atoms: C8_20  and  N5_21 
REMARK    8  A    between atoms: N5_21  and  N6_23 
ROOT
HETATM    1  C4  UNL     1       6.478 -14.002   3.273  1.00  0.00     0.118 C 
HETATM    2  N2  UNL     1       5.923 -13.368   2.236  1.00  0.00    -0.317 N 
ATOM      3  H2  UNL     1       5.951 -13.897   1.364  1.00  0.00     0.170 HD
HETATM    4  C5  UNL     1       5.321 -12.138   2.124  1.00  0.00     0.204 C 
HETATM    5  C6  UNL     1       5.635 -11.100   3.033  1.00  0.00     0.070 C 
HETATM    6  C7  UNL     1       6.608 -11.041   4.001  1.00  0.00     0.055 C 
HETATM    7  C8  UNL     1       7.302 -12.088   4.561  1.00  0.00     0.120 C 
HETATM    8  N7  UNL     1       7.114 -13.398   4.291  1.00  0.00    -0.329 N 
ATOM      9  H7  UNL     1       7.524 -14.036   4.974  1.00  0.00     0.168 HD
ENDROOT
BRANCH   1  10
HETATM   10  C3  UNL     1       6.397 -15.459   3.322  1.00  0.00     0.278 C 
BRANCH  10  11
HETATM   11  C2  UNL     1       6.654 -16.133   1.995  1.00  0.00     0.152 C 
HETATM   12  C1  UNL     1       7.315 -17.487   2.173  1.00  0.00     0.042 C 
BRANCH  11  13
HETATM   13  O1  UNL     1       5.507 -16.196   1.220  1.00  0.00    -0.393 OA
ATOM     14  H1  UNL     1       5.332 -17.071   0.895  1.00  0.00     0.210 HD
ENDBRANCH  11  13
ENDBRANCH  10  11
BRANCH  10  15
HETATM   15  N1  UNL     1       7.337 -16.028   4.274  1.00  0.00    -0.066 N 
ATOM     16  H13 UNL     1       8.261 -16.194   3.875  1.00  0.00     0.275 HD
ATOM     17  H12 UNL     1       7.626 -15.368   4.996  1.00  0.00     0.275 HD
ATOM     18  H11 UNL     1       6.904 -16.871   4.650  1.00  0.00     0.275 HD
ENDBRANCH  10  15
ENDBRANCH   1  10
BRANCH   4  19
HETATM   19  N3  UNL     1       4.537 -11.885   1.294  1.00  0.00    -0.314 NA
BRANCH  19  20
HETATM   20  N4  UNL     1       3.679 -11.607   0.386  1.00  0.00    -0.278 N 
ATOM     21  H42 UNL     1       4.326 -11.802   1.151  1.00  0.00     0.191 HD
ATOM     22  H41 UNL     1       2.996 -11.387  -0.338  1.00  0.00     0.191 HD
ENDBRANCH  19  20
ENDBRANCH   4  19
BRANCH   7  23
HETATM   23  N5  UNL     1       8.215 -11.813   5.420  1.00  0.00    -0.292 N 
ATOM     24  H5  UNL     1       9.069 -12.370   5.461  1.00  0.00     0.188 HD
BRANCH  23  25
HETATM   25  N6  UNL     1       8.028 -10.751   6.293  1.00  0.00    -0.344 N 
ATOM     26  H62 UNL     1       7.366 -10.014   6.050  1.00  0.00     0.176 HD
ATOM     27  H61 UNL     1       8.556 -10.723   7.165  1.00  0.00     0.176 HD
ENDBRANCH  23  25
ENDBRANCH   7  23
TORSDOF 8
ENDMDL
MODEL 5
REMARK VINA RESULT: -6.571360318      2.623      3.394
REMARK  8 active torsions:
REMARK  status: ('A' for Active; 'I' for Inactive)
REMARK    1  A    between atoms: C2_2  and  O1_3 
REMARK    2  A    between atoms: C2_2  and  C3_5 
REMARK    3  A    between atoms: C3_5  and  N1_6 
REMARK    4  A    between atoms: C3_5  and  C4_10 
REMARK    5  A    between atoms: C5_13  and  N3_14 
REMARK    6  A    between atoms: N3_14  and  N4_15 
REMARK    7  A    between atoms: C8_20  and  N5_21 
REMARK    8  A    between atoms: N5_21  and  N6_23 
ROOT
HETATM    1  C4  UNL     1       6.534 -13.011   1.304  1.00  0.00     0.118 C 
HETATM    2  N2  UNL     1       6.186 -13.631   0.173  1.00  0.00    -0.317 N 
ATOM      3  H2  UNL     1       5.507 -13.117  -0.389  1.00  0.00     0.170 HD
HETATM    4  C5  UNL     1       6.570 -14.832  -0.374  1.00  0.00     0.204 C 
HETATM    5  C6  UNL     1       7.063 -15.871   0.450  1.00  0.00     0.070 C 
HETATM    6  C7  UNL     1       7.106 -15.964   1.820  1.00  0.00     0.055 C 
HETATM    7  C8  UNL     1       6.994 -14.945   2.736  1.00  0.00     0.120 C 
HETATM    8  N7  UNL     1       6.868 -13.631   2.449  1.00  0.00    -0.329 N 
ATOM      9  H7  UNL     1       7.057 -13.004   3.231  1.00  0.00     0.168 HD
ENDROOT
BRANCH   1  10
HETATM   10  C3  UNL     1       6.561 -11.551   1.316  1.00  0.00     0.278 C 
BRANCH  10  11
HETATM   11  C2  UNL     1       5.380 -10.922   2.018  1.00  0.00     0.152 C 
HETATM   12  C1  UNL     1       4.065 -11.348   1.395  1.00  0.00     0.042 C 
BRANCH  11  13
HETATM   13  O1  UNL     1       5.420 -11.141   3.386  1.00  0.00    -0.393 OA
ATOM     14  H1  UNL     1       5.616 -12.044   3.607  1.00  0.00     0.210 HD
ENDBRANCH  11  13
ENDBRANCH  10  11
BRANCH  10  15
HETATM   15  N1  UNL     1       7.758 -11.030   1.955  1.00  0.00    -0.066 N 
ATOM     16  H13 UNL     1       7.911 -11.407   2.890  1.00  0.00     0.275 HD
ATOM     17  H12 UNL     1       8.620 -11.377   1.535  1.00  0.00     0.275 HD
ATOM     18  H11 UNL     1       7.684 -10.014   1.939  1.00  0.00     0.275 HD
ENDBRANCH  10  15
ENDBRANCH   1  10
BRANCH   4  19
HETATM   19  N3  UNL     1       6.512 -15.058  -1.520  1.00  0.00    -0.314 NA
BRANCH  19  20
HETATM   20  N4  UNL     1       6.450 -15.304  -2.774  1.00  0.00    -0.278 N 
ATOM     21  H42 UNL     1       6.548 -15.071  -1.785  1.00  0.00     0.191 HD
ATOM     22  H41 UNL     1       6.399 -15.501  -3.773  1.00  0.00     0.191 HD
ENDBRANCH  19  20
ENDBRANCH   4  19
BRANCH   7  23
HETATM   23  N5  UNL     1       7.008 -15.251   3.982  1.00  0.00    -0.292 N 
ATOM     24  H5  UNL     1       7.684 -14.819   4.612  1.00  0.00     0.188 HD
BRANCH  23  25
HETATM   25  N6  UNL     1       6.093 -16.177   4.463  1.00  0.00    -0.344 N 
ATOM     26  H62 UNL     1       5.169 -16.237   4.035  1.00  0.00     0.176 HD
ATOM     27  H61 UNL     1       6.359 -16.785   5.238  1.00  0.00     0.176 HD
ENDBRANCH  23  25
ENDBRANCH   7  23
TORSDOF 8
ENDMDL
