MODEL 1
REMARK VINA RESULT: -7.697976745      0.000      0.000
REMARK  11 active torsions:
REMARK  status: ('A' for Active; 'I' for Inactive)
REMARK    1  A    between atoms: C2_2  and  O2_4 
REMARK    2  A    between atoms: O2_4  and  C3_5 
REMARK    3  A    between atoms: C5_7  and  O3_8 
REMARK    4  A    between atoms: O3_8  and  C6_9 
REMARK    5  A    between atoms: C6_9  and  O4_11 
REMARK    6  A    between atoms: C6_9  and  C8_13 
REMARK    7  A    between atoms: C9_14  and  C10_15 
REMARK    8  A    between atoms: C10_15  and  N1_16 
REMARK    9  A    between atoms: C14_20  and  C15_21 
REMARK   10  A    between atoms: C15_21  and  O5_22 
REMARK   11  A    between atoms: O5_22  and  C16_23 
ROOT
HETATM    1  C3  UNL     1      27.186  29.829  25.164  1.00  0.00     0.171 C 
HETATM    2  C4  UNL     1      26.531  29.019  24.059  1.00  0.00     0.074 C 
HETATM    3  C5  UNL     1      26.115  27.745  24.887  1.00  0.00     0.162 C 
HETATM    4  C13 UNL     1      25.561  28.426  26.068  1.00  0.00    -0.009 A 
HETATM    5  C14 UNL     1      24.544  28.033  26.963  1.00  0.00    -0.022 A 
HETATM    6  C17 UNL     1      24.189  28.844  28.022  1.00  0.00     0.049 A 
HETATM    7  C18 UNL     1      24.832  30.044  28.205  1.00  0.00     0.106 A 
HETATM    8  C19 UNL     1      25.827  30.427  27.328  1.00  0.00     0.114 A 
HETATM    9  C20 UNL     1      26.200  29.638  26.261  1.00  0.00     0.017 A 
HETATM   10  O7  UNL     1      26.289  31.676  27.764  1.00  0.00    -0.322 OA
HETATM   11  C21 UNL     1      25.891  31.787  29.117  1.00  0.00     0.352 C 
HETATM   12  O8  UNL     1      24.692  31.038  29.156  1.00  0.00    -0.323 OA
ENDROOT
BRANCH   3  13
HETATM   13  O3  UNL     1      27.260  27.072  25.198  1.00  0.00    -0.342 OA
BRANCH  13  14
HETATM   14  C6  UNL     1      27.452  25.823  24.719  1.00  0.00     0.177 C 
HETATM   15  C7  UNL     1      26.230  24.937  25.016  1.00  0.00     0.083 C 
BRANCH  14  16
HETATM   16  O4  UNL     1      28.564  25.284  25.398  1.00  0.00    -0.362 OA
ATOM     17  H4  UNL     1      28.226  24.747  26.106  1.00  0.00     0.213 HD
ENDBRANCH  14  16
BRANCH  14  18
HETATM   18  C8  UNL     1      27.650  25.756  23.266  1.00  0.00     0.038 C 
HETATM   19  C9  UNL     1      27.565  24.624  22.579  1.00  0.00     0.004 C 
BRANCH  19  20
HETATM   20  C10 UNL     1      27.763  24.544  21.120  1.00  0.00     0.298 C 
BRANCH  20  21
HETATM   21  N1  UNL     1      27.646  23.162  20.652  1.00  0.00     0.083 N 
HETATM   22  C11 UNL     1      28.942  22.531  20.637  1.00  0.00     0.309 C 
HETATM   23  C12 UNL     1      26.767  22.403  21.497  1.00  0.00     0.309 C 
ENDBRANCH  20  21
ENDBRANCH  19  20
ENDBRANCH  14  18
ENDBRANCH  13  14
ENDBRANCH   3  13
BRANCH   1  24
HETATM   24  O2  UNL     1      28.474  29.429  25.462  1.00  0.00    -0.311 OA
BRANCH  24  25
HETATM   25  C2  UNL     1      29.620  30.161  25.212  1.00  0.00     0.255 C 
HETATM   26  C1  UNL     1      29.573  31.516  24.626  1.00  0.00     0.126 C 
HETATM   27  O1  UNL     1      30.716  29.654  25.493  1.00  0.00    -0.266 OA
ENDBRANCH  24  25
ENDBRANCH   1  24
BRANCH   5  28
HETATM   28  C15 UNL     1      23.813  26.753  26.811  1.00  0.00     0.219 C 
BRANCH  28  29
HETATM   29  O5  UNL     1      22.396  26.982  26.905  1.00  0.00    -0.302 OA
BRANCH  29  30
HETATM   30  C16 UNL     1      21.729  26.113  27.778  1.00  0.00     0.372 C 
HETATM   31  N2  UNL     1      20.352  25.839  27.586  1.00  0.00    -0.032 NA
HETATM   32  O6  UNL     1      22.316  25.559  28.741  1.00  0.00    -0.242 OA
ENDBRANCH  29  30
ENDBRANCH  28  29
ENDBRANCH   5  28
TORSDOF 11
ENDMDL
MODEL 2
REMARK VINA RESULT: -7.672414380      1.002      1.450
REMARK  11 active torsions:
REMARK  status: ('A' for Active; 'I' for Inactive)
REMARK    1  A    between atoms: C2_2  and  O2_4 
REMARK    2  A    between atoms: O2_4  and  C3_5 
REMARK    3  A    between atoms: C5_7  and  O3_8 
REMARK    4  A    between atoms: O3_8  and  C6_9 
REMARK    5  A    between atoms: C6_9  and  O4_11 
REMARK    6  A    between atoms: C6_9  and  C8_13 
REMARK    7  A    between atoms: C9_14  and  C10_15 
REMARK    8  A    between atoms: C10_15  and  N1_16 
REMARK    9  A    between atoms: C14_20  and  C15_21 
REMARK   10  A    between atoms: C15_21  and  O5_22 
REMARK   11  A    between atoms: O5_22  and  C16_23 
ROOT
HETATM    1  C3  UNL     1      27.023  29.920  25.189  1.00  0.00     0.171 C 
HETATM    2  C4  UNL     1      26.332  29.153  24.074  1.00  0.00     0.074 C 
HETATM    3  C5  UNL     1      25.949  27.844  24.862  1.00  0.00     0.162 C 
HETATM    4  C13 UNL     1      25.434  28.473  26.089  1.00  0.00    -0.009 A 
HETATM    5  C14 UNL     1      24.449  28.038  27.000  1.00  0.00    -0.022 A 
HETATM    6  C17 UNL     1      24.128  28.803  28.105  1.00  0.00     0.049 A 
HETATM    7  C18 UNL     1      24.774  29.998  28.315  1.00  0.00     0.106 A 
HETATM    8  C19 UNL     1      25.736  30.421  27.421  1.00  0.00     0.114 A 
HETATM    9  C20 UNL     1      26.076  29.679  26.310  1.00  0.00     0.017 A 
HETATM   10  O7  UNL     1      26.209  31.653  27.893  1.00  0.00    -0.322 OA
HETATM   11  C21 UNL     1      25.857  31.706  29.262  1.00  0.00     0.352 C 
HETATM   12  O8  UNL     1      24.663  30.950  29.311  1.00  0.00    -0.323 OA
ENDROOT
BRANCH   3  13
HETATM   13  O3  UNL     1      27.106  27.164  25.106  1.00  0.00    -0.342 OA
BRANCH  13  14
HETATM   14  C6  UNL     1      27.638  26.383  24.139  1.00  0.00     0.177 C 
HETATM   15  C7  UNL     1      29.147  26.650  24.000  1.00  0.00     0.083 C 
BRANCH  14  16
HETATM   16  O4  UNL     1      27.013  26.739  22.926  1.00  0.00    -0.362 OA
ATOM     17  H4  UNL     1      26.131  27.022  23.138  1.00  0.00     0.213 HD
ENDBRANCH  14  16
BRANCH  14  18
HETATM   18  C8  UNL     1      27.508  24.942  24.385  1.00  0.00     0.038 C 
HETATM   19  C9  UNL     1      27.331  24.058  23.412  1.00  0.00     0.004 C 
BRANCH  19  20
HETATM   20  C10 UNL     1      27.198  22.609  23.647  1.00  0.00     0.298 C 
BRANCH  20  21
HETATM   21  N1  UNL     1      27.458  21.854  22.420  1.00  0.00     0.083 N 
HETATM   22  C11 UNL     1      26.216  21.430  21.825  1.00  0.00     0.309 C 
HETATM   23  C12 UNL     1      28.184  22.649  21.469  1.00  0.00     0.309 C 
ENDBRANCH  20  21
ENDBRANCH  19  20
ENDBRANCH  14  18
ENDBRANCH  13  14
ENDBRANCH   3  13
BRANCH   1  24
HETATM   24  O2  UNL     1      28.322  29.514  25.426  1.00  0.00    -0.311 OA
BRANCH  24  25
HETATM   25  C2  UNL     1      29.459  30.212  25.065  1.00  0.00     0.255 C 
HETATM   26  C1  UNL     1      30.760  29.986  25.725  1.00  0.00     0.126 C 
HETATM   27  O1  UNL     1      29.372  31.051  24.157  1.00  0.00    -0.266 OA
ENDBRANCH  24  25
ENDBRANCH   1  24
BRANCH   5  28
HETATM   28  C15 UNL     1      23.717  26.762  26.821  1.00  0.00     0.219 C 
BRANCH  28  29
HETATM   29  O5  UNL     1      22.302  26.987  26.936  1.00  0.00    -0.302 OA
BRANCH  29  30
HETATM   30  C16 UNL     1      21.643  26.086  27.783  1.00  0.00     0.372 C 
HETATM   31  N2  UNL     1      20.257  25.842  27.613  1.00  0.00    -0.032 NA
HETATM   32  O6  UNL     1      22.245  25.476  28.702  1.00  0.00    -0.242 OA
ENDBRANCH  29  30
ENDBRANCH  28  29
ENDBRANCH   5  28
TORSDOF 11
ENDMDL
MODEL 3
REMARK VINA RESULT: -7.621185527      1.924      2.311
REMARK  11 active torsions:
REMARK  status: ('A' for Active; 'I' for Inactive)
REMARK    1  A    between atoms: C2_2  and  O2_4 
REMARK    2  A    between atoms: O2_4  and  C3_5 
REMARK    3  A    between atoms: C5_7  and  O3_8 
REMARK    4  A    between atoms: O3_8  and  C6_9 
REMARK    5  A    between atoms: C6_9  and  O4_11 
REMARK    6  A    between atoms: C6_9  and  C8_13 
REMARK    7  A    between atoms: C9_14  and  C10_15 
REMARK    8  A    between atoms: C10_15  and  N1_16 
REMARK    9  A    between atoms: C14_20  and  C15_21 
REMARK   10  A    between atoms: C15_21  and  O5_22 
REMARK   11  A    between atoms: O5_22  and  C16_23 
ROOT
HETATM    1  C3  UNL     1      26.908  29.848  25.339  1.00  0.00     0.171 C 
HETATM    2  C4  UNL     1      26.206  29.143  24.192  1.00  0.00     0.074 C 
HETATM    3  C5  UNL     1      25.734  27.841  24.940  1.00  0.00     0.162 C 
HETATM    4  C13 UNL     1      25.221  28.470  26.167  1.00  0.00    -0.009 A 
HETATM    5  C14 UNL     1      24.192  28.071  27.045  1.00  0.00    -0.022 A 
HETATM    6  C17 UNL     1      23.884  28.829  28.158  1.00  0.00     0.049 A 
HETATM    7  C18 UNL     1      24.587  29.982  28.411  1.00  0.00     0.106 A 
HETATM    8  C19 UNL     1      25.594  30.371  27.550  1.00  0.00     0.114 A 
HETATM    9  C20 UNL     1      25.921  29.636  26.432  1.00  0.00     0.017 A 
HETATM   10  O7  UNL     1      26.119  31.566  28.061  1.00  0.00    -0.322 OA
HETATM   11  C21 UNL     1      25.736  31.609  29.422  1.00  0.00     0.352 C 
HETATM   12  O8  UNL     1      24.502  30.918  29.425  1.00  0.00    -0.323 OA
ENDROOT
BRANCH   3  13
HETATM   13  O3  UNL     1      26.846  27.095  25.197  1.00  0.00    -0.342 OA
BRANCH  13  14
HETATM   14  C6  UNL     1      27.065  25.960  24.496  1.00  0.00     0.177 C 
HETATM   15  C7  UNL     1      28.460  25.393  24.810  1.00  0.00     0.083 C 
BRANCH  14  16
HETATM   16  O4  UNL     1      27.024  26.301  23.129  1.00  0.00    -0.362 OA
ATOM     17  H4  UNL     1      26.138  26.139  22.826  1.00  0.00     0.213 HD
ENDBRANCH  14  16
BRANCH  14  18
HETATM   18  C8  UNL     1      26.119  24.876  24.787  1.00  0.00     0.038 C 
HETATM   19  C9  UNL     1      25.423  24.254  23.845  1.00  0.00     0.004 C 
BRANCH  19  20
HETATM   20  C10 UNL     1      24.469  23.166  24.125  1.00  0.00     0.298 C 
BRANCH  20  21
HETATM   21  N1  UNL     1      24.996  22.258  25.145  1.00  0.00     0.083 N 
HETATM   22  C11 UNL     1      23.916  21.688  25.909  1.00  0.00     0.309 C 
HETATM   23  C12 UNL     1      25.756  21.196  24.548  1.00  0.00     0.309 C 
ENDBRANCH  20  21
ENDBRANCH  19  20
ENDBRANCH  14  18
ENDBRANCH  13  14
ENDBRANCH   3  13
BRANCH   1  24
HETATM   24  O2  UNL     1      28.177  29.368  25.599  1.00  0.00    -0.311 OA
BRANCH  24  25
HETATM   25  C2  UNL     1      29.261  30.133  25.988  1.00  0.00     0.255 C 
HETATM   26  C1  UNL     1      30.616  29.905  25.448  1.00  0.00     0.126 C 
HETATM   27  O1  UNL     1      29.077  31.036  26.817  1.00  0.00    -0.266 OA
ENDBRANCH  24  25
ENDBRANCH   1  24
BRANCH   5  28
HETATM   28  C15 UNL     1      23.398  26.840  26.819  1.00  0.00     0.219 C 
BRANCH  28  29
HETATM   29  O5  UNL     1      22.000  27.113  27.021  1.00  0.00    -0.302 OA
BRANCH  29  30
HETATM   30  C16 UNL     1      21.330  26.149  27.786  1.00  0.00     0.372 C 
HETATM   31  N2  UNL     1      21.990  25.530  28.877  1.00  0.00    -0.032 NA
HETATM   32  O6  UNL     1      20.147  25.809  27.536  1.00  0.00    -0.242 OA
ENDBRANCH  29  30
ENDBRANCH  28  29
ENDBRANCH   5  28
TORSDOF 11
ENDMDL
MODEL 4
REMARK VINA RESULT: -7.502394197      2.000      2.732
REMARK  11 active torsions:
REMARK  status: ('A' for Active; 'I' for Inactive)
REMARK    1  A    between atoms: C2_2  and  O2_4 
REMARK    2  A    between atoms: O2_4  and  C3_5 
REMARK    3  A    between atoms: C5_7  and  O3_8 
REMARK    4  A    between atoms: O3_8  and  C6_9 
REMARK    5  A    between atoms: C6_9  and  O4_11 
REMARK    6  A    between atoms: C6_9  and  C8_13 
REMARK    7  A    between atoms: C9_14  and  C10_15 
REMARK    8  A    between atoms: C10_15  and  N1_16 
REMARK    9  A    between atoms: C14_20  and  C15_21 
REMARK   10  A    between atoms: C15_21  and  O5_22 
REMARK   11  A    between atoms: O5_22  and  C16_23 
ROOT
HETATM    1  C3  UNL     1      26.548  29.735  25.805  1.00  0.00     0.171 C 
HETATM    2  C4  UNL     1      26.608  29.504  24.305  1.00  0.00     0.074 C 
HETATM    3  C5  UNL     1      26.689  27.932  24.290  1.00  0.00     0.162 C 
HETATM    4  C13 UNL     1      25.644  27.651  25.286  1.00  0.00    -0.009 A 
HETATM    5  C14 UNL     1      24.777  26.547  25.423  1.00  0.00    -0.022 A 
HETATM    6  C17 UNL     1      23.865  26.495  26.459  1.00  0.00     0.049 A 
HETATM    7  C18 UNL     1      23.801  27.528  27.362  1.00  0.00     0.106 A 
HETATM    8  C19 UNL     1      24.650  28.608  27.225  1.00  0.00     0.114 A 
HETATM    9  C20 UNL     1      25.569  28.687  26.201  1.00  0.00     0.017 A 
HETATM   10  O7  UNL     1      24.355  29.487  28.277  1.00  0.00    -0.322 OA
HETATM   11  C21 UNL     1      23.679  28.714  29.251  1.00  0.00     0.352 C 
HETATM   12  O8  UNL     1      23.008  27.743  28.474  1.00  0.00    -0.323 OA
ENDROOT
BRANCH   3  13
HETATM   13  O3  UNL     1      27.922  27.585  24.758  1.00  0.00    -0.342 OA
BRANCH  13  14
HETATM   14  C6  UNL     1      28.597  26.569  24.175  1.00  0.00     0.177 C 
HETATM   15  C7  UNL     1      28.669  25.357  25.118  1.00  0.00     0.083 C 
BRANCH  14  16
HETATM   16  O4  UNL     1      29.911  27.024  23.939  1.00  0.00    -0.362 OA
ATOM     17  H4  UNL     1      30.463  26.648  24.615  1.00  0.00     0.213 HD
ENDBRANCH  14  16
BRANCH  14  18
HETATM   18  C8  UNL     1      27.991  26.074  22.933  1.00  0.00     0.038 C 
HETATM   19  C9  UNL     1      27.981  24.790  22.598  1.00  0.00     0.004 C 
BRANCH  19  20
HETATM   20  C10 UNL     1      27.376  24.280  21.355  1.00  0.00     0.298 C 
BRANCH  20  21
HETATM   21  N1  UNL     1      27.574  22.835  21.231  1.00  0.00     0.083 N 
HETATM   22  C11 UNL     1      28.883  22.557  20.695  1.00  0.00     0.309 C 
HETATM   23  C12 UNL     1      27.443  22.185  22.505  1.00  0.00     0.309 C 
ENDBRANCH  20  21
ENDBRANCH  19  20
ENDBRANCH  14  18
ENDBRANCH  13  14
ENDBRANCH   3  13
BRANCH   1  24
HETATM   24  O2  UNL     1      27.776  29.652  26.433  1.00  0.00    -0.311 OA
BRANCH  24  25
HETATM   25  C2  UNL     1      28.812  30.556  26.292  1.00  0.00     0.255 C 
HETATM   26  C1  UNL     1      30.155  30.145  25.838  1.00  0.00     0.126 C 
HETATM   27  O1  UNL     1      28.595  31.747  26.557  1.00  0.00    -0.266 OA
ENDBRANCH  24  25
ENDBRANCH   1  24
BRANCH   5  28
HETATM   28  C15 UNL     1      24.798  25.407  24.477  1.00  0.00     0.219 C 
BRANCH  28  29
HETATM   29  O5  UNL     1      25.291  24.228  25.138  1.00  0.00    -0.302 OA
BRANCH  29  30
HETATM   30  C16 UNL     1      24.646  23.044  24.759  1.00  0.00     0.372 C 
HETATM   31  N2  UNL     1      24.741  21.894  25.582  1.00  0.00    -0.032 NA
HETATM   32  O6  UNL     1      23.976  22.962  23.700  1.00  0.00    -0.242 OA
ENDBRANCH  29  30
ENDBRANCH  28  29
ENDBRANCH   5  28
TORSDOF 11
ENDMDL
MODEL 5
REMARK VINA RESULT: -7.343179351      2.465      5.050
REMARK  11 active torsions:
REMARK  status: ('A' for Active; 'I' for Inactive)
REMARK    1  A    between atoms: C2_2  and  O2_4 
REMARK    2  A    between atoms: O2_4  and  C3_5 
REMARK    3  A    between atoms: C5_7  and  O3_8 
REMARK    4  A    between atoms: O3_8  and  C6_9 
REMARK    5  A    between atoms: C6_9  and  O4_11 
REMARK    6  A    between atoms: C6_9  and  C8_13 
REMARK    7  A    between atoms: C9_14  and  C10_15 
REMARK    8  A    between atoms: C10_15  and  N1_16 
REMARK    9  A    between atoms: C14_20  and  C15_21 
REMARK   10  A    between atoms: C15_21  and  O5_22 
REMARK   11  A    between atoms: O5_22  and  C16_23 
ROOT
HETATM    1  C3  UNL     1      25.661  26.149  26.308  1.00  0.00     0.171 C 
HETATM    2  C4  UNL     1      27.180  26.105  26.311  1.00  0.00     0.074 C 
HETATM    3  C5  UNL     1      27.480  27.542  25.742  1.00  0.00     0.162 C 
HETATM    4  C13 UNL     1      26.517  28.303  26.554  1.00  0.00    -0.009 A 
HETATM    5  C14 UNL     1      26.553  29.635  27.015  1.00  0.00    -0.022 A 
HETATM    6  C17 UNL     1      25.515  30.145  27.770  1.00  0.00     0.049 A 
HETATM    7  C18 UNL     1      24.439  29.347  28.075  1.00  0.00     0.106 A 
HETATM    8  C19 UNL     1      24.407  28.042  27.624  1.00  0.00     0.114 A 
HETATM    9  C20 UNL     1      25.429  27.507  26.870  1.00  0.00     0.017 A 
HETATM   10  O7  UNL     1      23.206  27.487  28.085  1.00  0.00    -0.322 OA
HETATM   11  C21 UNL     1      22.365  28.582  28.396  1.00  0.00     0.352 C 
HETATM   12  O8  UNL     1      23.282  29.582  28.794  1.00  0.00    -0.323 OA
ENDROOT
BRANCH   3  13
HETATM   13  O3  UNL     1      27.122  27.540  24.426  1.00  0.00    -0.342 OA
BRANCH  13  14
HETATM   14  C6  UNL     1      28.063  27.338  23.478  1.00  0.00     0.177 C 
HETATM   15  C7  UNL     1      29.339  26.747  24.101  1.00  0.00     0.083 C 
BRANCH  14  16
HETATM   16  O4  UNL     1      28.382  28.599  22.933  1.00  0.00    -0.362 OA
ATOM     17  H4  UNL     1      28.659  28.454  22.035  1.00  0.00     0.213 HD
ENDBRANCH  14  16
BRANCH  14  18
HETATM   18  C8  UNL     1      27.665  26.403  22.420  1.00  0.00     0.038 C 
HETATM   19  C9  UNL     1      28.390  25.344  22.083  1.00  0.00     0.004 C 
BRANCH  19  20
HETATM   20  C10 UNL     1      28.001  24.397  21.022  1.00  0.00     0.298 C 
BRANCH  20  21
HETATM   21  N1  UNL     1      28.249  23.016  21.436  1.00  0.00     0.083 N 
HETATM   22  C11 UNL     1      27.036  22.243  21.341  1.00  0.00     0.309 C 
HETATM   23  C12 UNL     1      29.258  22.404  20.617  1.00  0.00     0.309 C 
ENDBRANCH  20  21
ENDBRANCH  19  20
ENDBRANCH  14  18
ENDBRANCH  13  14
ENDBRANCH   3  13
BRANCH   1  24
HETATM   24  O2  UNL     1      25.098  25.929  25.066  1.00  0.00    -0.311 OA
BRANCH  24  25
HETATM   25  C2  UNL     1      24.888  24.690  24.488  1.00  0.00     0.255 C 
HETATM   26  C1  UNL     1      24.215  23.593  25.210  1.00  0.00     0.126 C 
HETATM   27  O1  UNL     1      25.282  24.507  23.327  1.00  0.00    -0.266 OA
ENDBRANCH  24  25
ENDBRANCH   1  24
BRANCH   5  28
HETATM   28  C15 UNL     1      27.689  30.540  26.721  1.00  0.00     0.219 C 
BRANCH  28  29
HETATM   29  O5  UNL     1      27.868  30.658  25.299  1.00  0.00    -0.302 OA
BRANCH  29  30
HETATM   30  C16 UNL     1      29.170  30.997  24.908  1.00  0.00     0.372 C 
HETATM   31  N2  UNL     1      30.222  30.063  25.075  1.00  0.00    -0.032 NA
HETATM   32  O6  UNL     1      29.443  32.116  24.407  1.00  0.00    -0.242 OA
ENDBRANCH  29  30
ENDBRANCH  28  29
ENDBRANCH   5  28
TORSDOF 11
ENDMDL
