MODEL 1
REMARK VINA RESULT: -8.200970329      0.000      0.000
REMARK  12 active torsions:
REMARK  status: ('A' for Active; 'I' for Inactive)
REMARK    1  A    between atoms: C2_2  and  C3_3 
REMARK    2  A    between atoms: C3_3  and  C4_4 
REMARK    3  A    between atoms: C4_4  and  C5_5 
REMARK    4  A    between atoms: C5_5  and  C6_6 
REMARK    5  A    between atoms: C6_6  and  C7_7 
REMARK    6  A    between atoms: C7_7  and  C8_8 
REMARK    7  A    between atoms: C8_8  and  O2_10 
REMARK    8  A    between atoms: O2_10  and  C9_11 
REMARK    9  A    between atoms: C9_11  and  C10_12 
REMARK   10  A    between atoms: C13_17  and  O5_18 
REMARK   11  A    between atoms: C14_20  and  O6_21 
REMARK   12  A    between atoms: C19_27  and  O7_28 
ROOT
HETATM    1  C10 UNL     1      27.130  26.390  24.593  1.00  0.00     0.139 C 
HETATM    2  C11 UNL     1      26.124  25.319  24.469  1.00  0.00     0.268 C 
HETATM    3  O3  UNL     1      25.023  25.651  24.945  1.00  0.00    -0.265 OA
HETATM    4  O4  UNL     1      26.134  24.049  23.948  1.00  0.00    -0.309 OA
HETATM    5  C12 UNL     1      27.006  23.013  23.612  1.00  0.00     0.208 C 
HETATM    6  C13 UNL     1      26.291  21.711  23.855  1.00  0.00     0.180 C 
HETATM    7  C14 UNL     1      26.838  20.580  23.052  1.00  0.00     0.153 C 
HETATM    8  C15 UNL     1      26.851  20.886  21.585  1.00  0.00     0.020 C 
HETATM    9  C16 UNL     1      28.075  20.275  20.986  1.00  0.00     0.013 C 
HETATM   10  C17 UNL     1      26.681  22.358  21.275  1.00  0.00     0.035 C 
HETATM   11  C18 UNL     1      26.928  22.567  19.823  1.00  0.00     0.014 C 
HETATM   12  C19 UNL     1      27.568  23.125  22.195  1.00  0.00     0.178 C 
HETATM   13  C20 UNL     1      27.683  24.561  21.909  1.00  0.00     0.297 C 
HETATM   14  O8  UNL     1      27.269  24.902  20.791  1.00  0.00    -0.262 OA
HETATM   15  O9  UNL     1      28.159  25.637  22.622  1.00  0.00    -0.313 OA
HETATM   16  C21 UNL     1      28.429  26.008  23.960  1.00  0.00     0.143 C 
HETATM   17  C22 UNL     1      29.428  27.107  24.013  1.00  0.00     0.041 C 
ENDROOT
BRANCH   1  18
HETATM   18  C9  UNL     1      26.566  27.615  23.907  1.00  0.00     0.196 C 
BRANCH  18  19
HETATM   19  O2  UNL     1      26.610  28.773  24.702  1.00  0.00    -0.321 OA
BRANCH  19  20
HETATM   20  C8  UNL     1      26.202  28.843  26.005  1.00  0.00     0.258 C 
HETATM   21  O1  UNL     1      25.059  28.417  26.307  1.00  0.00    -0.265 OA
BRANCH  20  22
HETATM   22  C7  UNL     1      27.033  29.400  27.109  1.00  0.00     0.111 C 
BRANCH  22  23
HETATM   23  C6  UNL     1      26.437  30.677  27.654  1.00  0.00     0.010 C 
BRANCH  23  24
HETATM   24  C5  UNL     1      27.089  31.879  27.022  1.00  0.00     0.000 C 
BRANCH  24  25
HETATM   25  C4  UNL     1      28.516  31.667  26.654  1.00  0.00     0.000 C 
BRANCH  25  26
HETATM   26  C3  UNL     1      28.850  32.083  25.245  1.00  0.00    -0.000 C 
BRANCH  26  27
HETATM   27  C2  UNL     1      29.635  30.944  24.602  1.00  0.00    -0.005 C 
HETATM   28  C1  UNL     1      30.372  30.154  25.670  1.00  0.00     0.005 C 
ENDBRANCH  26  27
ENDBRANCH  25  26
ENDBRANCH  24  25
ENDBRANCH  23  24
ENDBRANCH  22  23
ENDBRANCH  20  22
ENDBRANCH  19  20
ENDBRANCH  18  19
ENDBRANCH   1  18
BRANCH   6  29
HETATM   29  O5  UNL     1      24.922  21.896  23.726  1.00  0.00    -0.390 OA
ATOM     30  H5  UNL     1      24.473  21.064  23.826  1.00  0.00     0.210 HD
ENDBRANCH   6  29
BRANCH  12  31
HETATM   31  O7  UNL     1      28.892  22.630  22.168  1.00  0.00    -0.377 OA
ATOM     32  H7  UNL     1      29.481  23.309  21.858  1.00  0.00     0.211 HD
ENDBRANCH  12  31
BRANCH   7  33
HETATM   33  O6  UNL     1      28.088  20.215  23.538  1.00  0.00    -0.393 OA
ATOM     34  H6  UNL     1      28.755  20.394  22.884  1.00  0.00     0.210 HD
ENDBRANCH   7  33
TORSDOF 12
ENDMDL
MODEL 2
REMARK VINA RESULT: -7.941323590      1.790      3.119
REMARK  12 active torsions:
REMARK  status: ('A' for Active; 'I' for Inactive)
REMARK    1  A    between atoms: C2_2  and  C3_3 
REMARK    2  A    between atoms: C3_3  and  C4_4 
REMARK    3  A    between atoms: C4_4  and  C5_5 
REMARK    4  A    between atoms: C5_5  and  C6_6 
REMARK    5  A    between atoms: C6_6  and  C7_7 
REMARK    6  A    between atoms: C7_7  and  C8_8 
REMARK    7  A    between atoms: C8_8  and  O2_10 
REMARK    8  A    between atoms: O2_10  and  C9_11 
REMARK    9  A    between atoms: C9_11  and  C10_12 
REMARK   10  A    between atoms: C13_17  and  O5_18 
REMARK   11  A    between atoms: C14_20  and  O6_21 
REMARK   12  A    between atoms: C19_27  and  O7_28 
ROOT
HETATM    1  C10 UNL     1      27.244  26.845  24.619  1.00  0.00     0.139 C 
HETATM    2  C11 UNL     1      26.155  25.856  24.509  1.00  0.00     0.268 C 
HETATM    3  O3  UNL     1      25.066  26.310  24.906  1.00  0.00    -0.265 OA
HETATM    4  O4  UNL     1      26.079  24.558  24.070  1.00  0.00    -0.309 OA
HETATM    5  C12 UNL     1      26.872  23.432  23.845  1.00  0.00     0.208 C 
HETATM    6  C13 UNL     1      26.035  22.214  24.130  1.00  0.00     0.180 C 
HETATM    7  C14 UNL     1      26.519  20.990  23.429  1.00  0.00     0.153 C 
HETATM    8  C15 UNL     1      26.628  21.196  21.949  1.00  0.00     0.020 C 
HETATM    9  C16 UNL     1      27.821  20.445  21.454  1.00  0.00     0.013 C 
HETATM   10  C17 UNL     1      26.602  22.652  21.540  1.00  0.00     0.035 C 
HETATM   11  C18 UNL     1      26.934  22.743  20.092  1.00  0.00     0.014 C 
HETATM   12  C19 UNL     1      27.508  23.401  22.455  1.00  0.00     0.178 C 
HETATM   13  C20 UNL     1      27.761  24.801  22.087  1.00  0.00     0.297 C 
HETATM   14  O8  UNL     1      27.431  25.100  20.930  1.00  0.00    -0.262 OA
HETATM   15  O9  UNL     1      28.295  25.878  22.756  1.00  0.00    -0.313 OA
HETATM   16  C21 UNL     1      28.533  26.313  24.081  1.00  0.00     0.143 C 
HETATM   17  C22 UNL     1      29.621  27.325  24.118  1.00  0.00     0.041 C 
ENDROOT
BRANCH   1  18
HETATM   18  C9  UNL     1      26.822  28.064  23.830  1.00  0.00     0.196 C 
BRANCH  18  19
HETATM   19  O2  UNL     1      26.422  29.143  24.637  1.00  0.00    -0.321 OA
BRANCH  19  20
HETATM   20  C8  UNL     1      27.240  29.824  25.494  1.00  0.00     0.258 C 
HETATM   21  O1  UNL     1      28.247  30.416  25.032  1.00  0.00    -0.265 OA
BRANCH  20  22
HETATM   22  C7  UNL     1      27.016  29.911  26.965  1.00  0.00     0.111 C 
BRANCH  22  23
HETATM   23  C6  UNL     1      25.796  29.124  27.382  1.00  0.00     0.010 C 
BRANCH  23  24
HETATM   24  C5  UNL     1      24.847  29.991  28.167  1.00  0.00     0.000 C 
BRANCH  24  25
HETATM   25  C4  UNL     1      23.598  29.295  28.581  1.00  0.00     0.000 C 
BRANCH  25  26
HETATM   26  C3  UNL     1      23.522  27.859  28.130  1.00  0.00    -0.000 C 
BRANCH  26  27
HETATM   27  C2  UNL     1      22.489  27.155  29.004  1.00  0.00    -0.005 C 
HETATM   28  C1  UNL     1      22.223  27.974  30.256  1.00  0.00     0.005 C 
ENDBRANCH  26  27
ENDBRANCH  25  26
ENDBRANCH  24  25
ENDBRANCH  23  24
ENDBRANCH  22  23
ENDBRANCH  20  22
ENDBRANCH  19  20
ENDBRANCH  18  19
ENDBRANCH   1  18
BRANCH   6  29
HETATM   29  O5  UNL     1      24.695  22.504  23.918  1.00  0.00    -0.390 OA
ATOM     30  H5  UNL     1      24.286  22.755  24.739  1.00  0.00     0.210 HD
ENDBRANCH   6  29
BRANCH  12  31
HETATM   31  O7  UNL     1      28.784  22.797  22.529  1.00  0.00    -0.377 OA
ATOM     32  H7  UNL     1      29.088  22.584  21.655  1.00  0.00     0.211 HD
ENDBRANCH  12  31
BRANCH   7  33
HETATM   33  O6  UNL     1      27.708  20.554  24.003  1.00  0.00    -0.393 OA
ATOM     34  H6  UNL     1      28.405  20.572  23.356  1.00  0.00     0.210 HD
ENDBRANCH   7  33
TORSDOF 12
ENDMDL
MODEL 3
REMARK VINA RESULT: -7.681541991      1.610      2.861
REMARK  12 active torsions:
REMARK  status: ('A' for Active; 'I' for Inactive)
REMARK    1  A    between atoms: C2_2  and  C3_3 
REMARK    2  A    between atoms: C3_3  and  C4_4 
REMARK    3  A    between atoms: C4_4  and  C5_5 
REMARK    4  A    between atoms: C5_5  and  C6_6 
REMARK    5  A    between atoms: C6_6  and  C7_7 
REMARK    6  A    between atoms: C7_7  and  C8_8 
REMARK    7  A    between atoms: C8_8  and  O2_10 
REMARK    8  A    between atoms: O2_10  and  C9_11 
REMARK    9  A    between atoms: C9_11  and  C10_12 
REMARK   10  A    between atoms: C13_17  and  O5_18 
REMARK   11  A    between atoms: C14_20  and  O6_21 
REMARK   12  A    between atoms: C19_27  and  O7_28 
ROOT
HETATM    1  C10 UNL     1      27.465  27.317  24.646  1.00  0.00     0.139 C 
HETATM    2  C11 UNL     1      26.217  26.541  24.521  1.00  0.00     0.268 C 
HETATM    3  O3  UNL     1      25.206  27.242  24.714  1.00  0.00    -0.265 OA
HETATM    4  O4  UNL     1      25.927  25.229  24.241  1.00  0.00    -0.309 OA
HETATM    5  C12 UNL     1      26.497  23.956  24.263  1.00  0.00     0.208 C 
HETATM    6  C13 UNL     1      25.408  22.969  24.587  1.00  0.00     0.180 C 
HETATM    7  C14 UNL     1      25.705  21.587  24.113  1.00  0.00     0.153 C 
HETATM    8  C15 UNL     1      26.004  21.548  22.645  1.00  0.00     0.020 C 
HETATM    9  C16 UNL     1      27.067  20.525  22.406  1.00  0.00     0.013 C 
HETATM   10  C17 UNL     1      26.313  22.908  22.057  1.00  0.00     0.035 C 
HETATM   11  C18 UNL     1      26.803  22.721  20.665  1.00  0.00     0.014 C 
HETATM   12  C19 UNL     1      27.252  23.604  22.981  1.00  0.00     0.178 C 
HETATM   13  C20 UNL     1      27.817  24.862  22.477  1.00  0.00     0.297 C 
HETATM   14  O8  UNL     1      27.675  25.043  21.259  1.00  0.00    -0.262 OA
HETATM   15  O9  UNL     1      28.486  25.909  23.070  1.00  0.00    -0.313 OA
HETATM   16  C21 UNL     1      28.669  26.483  24.349  1.00  0.00     0.143 C 
HETATM   17  C22 UNL     1      29.928  27.272  24.400  1.00  0.00     0.041 C 
ENDROOT
BRANCH   1  18
HETATM   18  C9  UNL     1      27.379  28.464  23.663  1.00  0.00     0.196 C 
BRANCH  18  19
HETATM   19  O2  UNL     1      27.313  29.726  24.278  1.00  0.00    -0.321 OA
BRANCH  19  20
HETATM   20  C8  UNL     1      28.378  30.385  24.825  1.00  0.00     0.258 C 
HETATM   21  O1  UNL     1      29.248  30.873  24.062  1.00  0.00    -0.265 OA
BRANCH  20  22
HETATM   22  C7  UNL     1      28.582  30.565  26.290  1.00  0.00     0.111 C 
BRANCH  22  23
HETATM   23  C6  UNL     1      27.281  30.883  26.991  1.00  0.00     0.010 C 
BRANCH  23  24
HETATM   24  C5  UNL     1      26.757  29.670  27.714  1.00  0.00     0.000 C 
BRANCH  24  25
HETATM   25  C4  UNL     1      25.338  29.349  27.401  1.00  0.00     0.000 C 
BRANCH  25  26
HETATM   26  C3  UNL     1      24.350  29.942  28.372  1.00  0.00    -0.000 C 
BRANCH  26  27
HETATM   27  C2  UNL     1      23.330  28.860  28.712  1.00  0.00    -0.005 C 
HETATM   28  C1  UNL     1      23.630  27.597  27.922  1.00  0.00     0.005 C 
ENDBRANCH  26  27
ENDBRANCH  25  26
ENDBRANCH  24  25
ENDBRANCH  23  24
ENDBRANCH  22  23
ENDBRANCH  20  22
ENDBRANCH  19  20
ENDBRANCH  18  19
ENDBRANCH   1  18
BRANCH   6  29
HETATM   29  O5  UNL     1      24.182  23.467  24.170  1.00  0.00    -0.390 OA
ATOM     30  H5  UNL     1      23.495  22.841  24.370  1.00  0.00     0.210 HD
ENDBRANCH   6  29
BRANCH  12  31
HETATM   31  O7  UNL     1      28.367  22.791  23.294  1.00  0.00    -0.377 OA
ATOM     32  H7  UNL     1      28.939  23.251  23.897  1.00  0.00     0.211 HD
ENDBRANCH  12  31
BRANCH   7  33
HETATM   33  O6  UNL     1      26.718  21.028  24.885  1.00  0.00    -0.393 OA
ATOM     34  H6  UNL     1      26.405  20.236  25.306  1.00  0.00     0.210 HD
ENDBRANCH   7  33
TORSDOF 12
ENDMDL
MODEL 4
REMARK VINA RESULT: -7.649758519      1.046      2.279
REMARK  12 active torsions:
REMARK  status: ('A' for Active; 'I' for Inactive)
REMARK    1  A    between atoms: C2_2  and  C3_3 
REMARK    2  A    between atoms: C3_3  and  C4_4 
REMARK    3  A    between atoms: C4_4  and  C5_5 
REMARK    4  A    between atoms: C5_5  and  C6_6 
REMARK    5  A    between atoms: C6_6  and  C7_7 
REMARK    6  A    between atoms: C7_7  and  C8_8 
REMARK    7  A    between atoms: C8_8  and  O2_10 
REMARK    8  A    between atoms: O2_10  and  C9_11 
REMARK    9  A    between atoms: C9_11  and  C10_12 
REMARK   10  A    between atoms: C13_17  and  O5_18 
REMARK   11  A    between atoms: C14_20  and  O6_21 
REMARK   12  A    between atoms: C19_27  and  O7_28 
ROOT
HETATM    1  C10 UNL     1      27.411  26.813  24.582  1.00  0.00     0.139 C 
HETATM    2  C11 UNL     1      26.299  25.849  24.491  1.00  0.00     0.268 C 
HETATM    3  O3  UNL     1      25.230  26.323  24.918  1.00  0.00    -0.265 OA
HETATM    4  O4  UNL     1      26.184  24.556  24.043  1.00  0.00    -0.309 OA
HETATM    5  C12 UNL     1      26.948  23.416  23.790  1.00  0.00     0.208 C 
HETATM    6  C13 UNL     1      26.092  22.214  24.086  1.00  0.00     0.180 C 
HETATM    7  C14 UNL     1      26.532  20.986  23.364  1.00  0.00     0.153 C 
HETATM    8  C15 UNL     1      26.609  21.202  21.882  1.00  0.00     0.020 C 
HETATM    9  C16 UNL     1      27.773  20.430  21.353  1.00  0.00     0.013 C 
HETATM   10  C17 UNL     1      26.604  22.662  21.486  1.00  0.00     0.035 C 
HETATM   11  C18 UNL     1      26.902  22.758  20.031  1.00  0.00     0.014 C 
HETATM   12  C19 UNL     1      27.548  23.384  22.385  1.00  0.00     0.178 C 
HETATM   13  C20 UNL     1      27.822  24.781  22.022  1.00  0.00     0.297 C 
HETATM   14  O8  UNL     1      27.470  25.097  20.876  1.00  0.00    -0.262 OA
HETATM   15  O9  UNL     1      28.395  25.841  22.686  1.00  0.00    -0.313 OA
HETATM   16  C21 UNL     1      28.675  26.259  24.007  1.00  0.00     0.143 C 
HETATM   17  C22 UNL     1      29.784  27.248  24.026  1.00  0.00     0.041 C 
ENDROOT
BRANCH   1  18
HETATM   18  C9  UNL     1      26.996  28.048  23.813  1.00  0.00     0.196 C 
BRANCH  18  19
HETATM   19  O2  UNL     1      26.911  29.203  24.610  1.00  0.00    -0.321 OA
BRANCH  19  20
HETATM   20  C8  UNL     1      27.973  29.988  24.962  1.00  0.00     0.258 C 
HETATM   21  O1  UNL     1      28.716  30.447  24.059  1.00  0.00    -0.265 OA
BRANCH  20  22
HETATM   22  C7  UNL     1      28.315  30.342  26.369  1.00  0.00     0.111 C 
BRANCH  22  23
HETATM   23  C6  UNL     1      28.094  31.814  26.634  1.00  0.00     0.010 C 
BRANCH  23  24
HETATM   24  C5  UNL     1      26.840  32.025  27.441  1.00  0.00     0.000 C 
BRANCH  24  25
HETATM   25  C4  UNL     1      26.223  30.764  27.937  1.00  0.00     0.000 C 
BRANCH  25  26
HETATM   26  C3  UNL     1      24.905  30.966  28.638  1.00  0.00    -0.000 C 
BRANCH  26  27
HETATM   27  C2  UNL     1      24.069  29.708  28.419  1.00  0.00    -0.005 C 
HETATM   28  C1  UNL     1      24.833  28.722  27.552  1.00  0.00     0.005 C 
ENDBRANCH  26  27
ENDBRANCH  25  26
ENDBRANCH  24  25
ENDBRANCH  23  24
ENDBRANCH  22  23
ENDBRANCH  20  22
ENDBRANCH  19  20
ENDBRANCH  18  19
ENDBRANCH   1  18
BRANCH   6  29
HETATM   29  O5  UNL     1      24.753  22.534  23.910  1.00  0.00    -0.390 OA
ATOM     30  H5  UNL     1      24.240  21.738  23.827  1.00  0.00     0.210 HD
ENDBRANCH   6  29
BRANCH  12  31
HETATM   31  O7  UNL     1      28.812  22.752  22.422  1.00  0.00    -0.377 OA
ATOM     32  H7  UNL     1      29.445  23.273  21.941  1.00  0.00     0.211 HD
ENDBRANCH  12  31
BRANCH   7  33
HETATM   33  O6  UNL     1      27.725  20.520  23.904  1.00  0.00    -0.393 OA
ATOM     34  H6  UNL     1      28.186  19.989  23.264  1.00  0.00     0.210 HD
ENDBRANCH   7  33
TORSDOF 12
ENDMDL
MODEL 5
REMARK VINA RESULT: -7.502637690      1.824      3.619
REMARK  12 active torsions:
REMARK  status: ('A' for Active; 'I' for Inactive)
REMARK    1  A    between atoms: C2_2  and  C3_3 
REMARK    2  A    between atoms: C3_3  and  C4_4 
REMARK    3  A    between atoms: C4_4  and  C5_5 
REMARK    4  A    between atoms: C5_5  and  C6_6 
REMARK    5  A    between atoms: C6_6  and  C7_7 
REMARK    6  A    between atoms: C7_7  and  C8_8 
REMARK    7  A    between atoms: C8_8  and  O2_10 
REMARK    8  A    between atoms: O2_10  and  C9_11 
REMARK    9  A    between atoms: C9_11  and  C10_12 
REMARK   10  A    between atoms: C13_17  and  O5_18 
REMARK   11  A    between atoms: C14_20  and  O6_21 
REMARK   12  A    between atoms: C19_27  and  O7_28 
ROOT
HETATM    1  C10 UNL     1      26.753  24.668  23.297  1.00  0.00     0.139 C 
HETATM    2  C11 UNL     1      27.308  23.561  22.496  1.00  0.00     0.268 C 
HETATM    3  O3  UNL     1      28.433  23.831  22.037  1.00  0.00    -0.265 OA
HETATM    4  O4  UNL     1      26.861  22.310  22.149  1.00  0.00    -0.309 OA
HETATM    5  C12 UNL     1      25.689  21.564  22.026  1.00  0.00     0.208 C 
HETATM    6  C13 UNL     1      25.874  20.599  20.886  1.00  0.00     0.180 C 
HETATM    7  C14 UNL     1      24.990  19.402  20.978  1.00  0.00     0.153 C 
HETATM    8  C15 UNL     1      25.151  18.682  22.283  1.00  0.00     0.020 C 
HETATM    9  C16 UNL     1      23.816  18.162  22.704  1.00  0.00     0.013 C 
HETATM   10  C17 UNL     1      25.855  19.504  23.340  1.00  0.00     0.035 C 
HETATM   11  C18 UNL     1      25.764  18.783  24.638  1.00  0.00     0.014 C 
HETATM   12  C19 UNL     1      25.267  20.873  23.323  1.00  0.00     0.178 C 
HETATM   13  C20 UNL     1      25.692  21.756  24.417  1.00  0.00     0.297 C 
HETATM   14  O8  UNL     1      26.249  21.180  25.363  1.00  0.00    -0.262 OA
HETATM   15  O9  UNL     1      25.607  23.113  24.632  1.00  0.00    -0.313 OA
HETATM   16  C21 UNL     1      25.432  24.310  23.899  1.00  0.00     0.143 C 
HETATM   17  C22 UNL     1      24.897  25.390  24.768  1.00  0.00     0.041 C 
ENDROOT
BRANCH   1  18
HETATM   18  C9  UNL     1      27.751  24.970  24.393  1.00  0.00     0.196 C 
BRANCH  18  19
HETATM   19  O2  UNL     1      28.458  26.168  24.193  1.00  0.00    -0.321 OA
BRANCH  19  20
HETATM   20  C8  UNL     1      27.957  27.419  24.421  1.00  0.00     0.258 C 
HETATM   21  O1  UNL     1      27.894  28.232  23.465  1.00  0.00    -0.265 OA
BRANCH  20  22
HETATM   22  C7  UNL     1      27.473  27.892  25.749  1.00  0.00     0.111 C 
BRANCH  22  23
HETATM   23  C6  UNL     1      26.708  29.189  25.624  1.00  0.00     0.010 C 
BRANCH  23  24
HETATM   24  C5  UNL     1      27.032  30.110  26.770  1.00  0.00     0.000 C 
BRANCH  24  25
HETATM   25  C4  UNL     1      28.411  30.667  26.724  1.00  0.00     0.000 C 
BRANCH  25  26
HETATM   26  C3  UNL     1      28.630  31.659  25.610  1.00  0.00    -0.000 C 
BRANCH  26  27
HETATM   27  C2  UNL     1      29.722  31.099  24.703  1.00  0.00    -0.005 C 
HETATM   28  C1  UNL     1      30.541  30.064  25.455  1.00  0.00     0.005 C 
ENDBRANCH  26  27
ENDBRANCH  25  26
ENDBRANCH  24  25
ENDBRANCH  23  24
ENDBRANCH  22  23
ENDBRANCH  20  22
ENDBRANCH  19  20
ENDBRANCH  18  19
ENDBRANCH   1  18
BRANCH   6  29
HETATM   29  O5  UNL     1      27.221  20.306  20.731  1.00  0.00    -0.390 OA
ATOM     30  H5  UNL     1      27.412  19.454  21.108  1.00  0.00     0.210 HD
ENDBRANCH   6  29
BRANCH  12  31
HETATM   31  O7  UNL     1      23.856  20.831  23.402  1.00  0.00    -0.377 OA
ATOM     32  H7  UNL     1      23.521  20.174  22.802  1.00  0.00     0.211 HD
ENDBRANCH  12  31
BRANCH   7  33
HETATM   33  O6  UNL     1      23.673  19.765  20.721  1.00  0.00    -0.393 OA
ATOM     34  H6  UNL     1      23.181  19.798  21.535  1.00  0.00     0.210 HD
ENDBRANCH   7  33
TORSDOF 12
ENDMDL
