MODEL 1
REMARK VINA RESULT: -7.341357618      0.000      0.000
REMARK  16 active torsions:
REMARK  status: ('A' for Active; 'I' for Inactive)
REMARK    1  A    between atoms: O1_2  and  C2_3 
REMARK    2  A    between atoms: C3_6  and  O2_7 
REMARK    3  A    between atoms: C5_9  and  O3_10 
REMARK    4  A    between atoms: O3_10  and  C6_11 
REMARK    5  A    between atoms: C8_15  and  O6_16 
REMARK    6  A    between atoms: O6_16  and  C9_17 
REMARK    7  A    between atoms: C10_18  and  O7_19 
REMARK    8  A    between atoms: C11_21  and  O8_22 
REMARK    9  A    between atoms: C12_24  and  O9_25 
REMARK   10  A    between atoms: C13_27  and  O10_28 
REMARK   11  A    between atoms: O10_28  and  C14_29 
REMARK   12  A    between atoms: C17_33  and  O12_34 
REMARK   13  A    between atoms: C18_36  and  O13_37 
REMARK   14  A    between atoms: C19_39  and  O14_40 
REMARK   15  A    between atoms: C20_42  and  O15_43 
REMARK   16  A    between atoms: C21_45  and  O16_46 
ROOT
HETATM    1  C9  UNL     1      42.666   6.385   9.589  1.00  0.00     0.187 C 
HETATM    2  C10 UNL     1      42.084   5.439   8.592  1.00  0.00     0.181 C 
HETATM    3  C11 UNL     1      41.441   6.080   7.406  1.00  0.00     0.180 C 
HETATM    4  C12 UNL     1      42.488   6.970   6.768  1.00  0.00     0.181 C 
HETATM    5  C13 UNL     1      42.721   8.093   7.738  1.00  0.00     0.187 C 
HETATM    6  C20 UNL     1      43.311   7.603   9.033  1.00  0.00     0.181 C 
ENDROOT
BRANCH   1   7
HETATM    7  O6  UNL     1      43.533   5.662  10.410  1.00  0.00    -0.348 OA
BRANCH   7   8
HETATM    8  C8  UNL     1      42.944   5.223  11.564  1.00  0.00     0.296 C 
HETATM    9  O5  UNL     1      42.353   6.229  12.328  1.00  0.00    -0.334 OA
HETATM   10  C7  UNL     1      42.118   5.806  13.634  1.00  0.00     0.344 C 
HETATM   11  O4  UNL     1      42.178   4.440  13.741  1.00  0.00    -0.334 OA
HETATM   12  C6  UNL     1      41.375   3.795  12.771  1.00  0.00     0.299 C 
HETATM   13  C21 UNL     1      41.917   4.133  11.380  1.00  0.00     0.228 C 
BRANCH  12  14
HETATM   14  O3  UNL     1      40.092   4.238  12.976  1.00  0.00    -0.324 OA
BRANCH  14  15
HETATM   15  C5  UNL     1      39.116   3.364  12.577  1.00  0.00     0.312 C 
HETATM   16  C3  UNL     1      37.770   3.570  13.212  1.00  0.00     0.277 C 
HETATM   17  N1  UNL     1      36.991   2.333  13.114  1.00  0.00    -0.342 N 
HETATM   18  C2  UNL     1      37.428   1.253  12.587  1.00  0.00     0.144 C 
ATOM     19  H1  UNL     1      36.043   2.334  13.490  1.00  0.00     0.164 HD
HETATM   20  C22 UNL     1      38.788   1.228  12.042  1.00  0.00     0.195 C 
HETATM   21  O17 UNL     1      39.589   2.070  12.826  1.00  0.00    -0.344 OA
HETATM   22  C23 UNL     1      39.361  -0.151  12.107  1.00  0.00     0.048 C 
BRANCH  16  23
HETATM   23  O2  UNL     1      37.027   4.540  12.545  1.00  0.00    -0.366 OA
HETATM   24  C4  UNL     1      36.643   5.512  13.453  1.00  0.00     0.204 C 
ENDBRANCH  16  23
BRANCH  18  25
HETATM   25  O1  UNL     1      36.567   0.166  12.570  1.00  0.00    -0.342 OA
HETATM   26  C1  UNL     1      35.722  -0.105  11.450  1.00  0.00     0.211 C 
ENDBRANCH  18  25
ENDBRANCH  14  15
ENDBRANCH  12  14
BRANCH  13  27
HETATM   27  O16 UNL     1      42.566   2.992  10.908  1.00  0.00    -0.386 OA
ATOM     28  H16 UNL     1      42.732   3.130   9.983  1.00  0.00     0.210 HD
ENDBRANCH  13  27
ENDBRANCH   7   8
ENDBRANCH   1   7
BRANCH   2  29
HETATM   29  O7  UNL     1      43.031   4.537   8.107  1.00  0.00    -0.390 OA
ATOM     30  H7  UNL     1      42.655   3.681   7.934  1.00  0.00     0.210 HD
ENDBRANCH   2  29
BRANCH   6  31
HETATM   31  O15 UNL     1      44.658   7.324   8.786  1.00  0.00    -0.390 OA
ATOM     32  H15 UNL     1      45.182   7.723   9.471  1.00  0.00     0.210 HD
ENDBRANCH   6  31
BRANCH   3  33
HETATM   33  O8  UNL     1      40.257   6.719   7.670  1.00  0.00    -0.390 OA
ATOM     34  H8  UNL     1      40.148   7.552   7.227  1.00  0.00     0.210 HD
ENDBRANCH   3  33
BRANCH   5  35
HETATM   35  O10 UNL     1      41.514   8.713   7.995  1.00  0.00    -0.348 OA
BRANCH  35  36
HETATM   36  C14 UNL     1      41.453  10.039   7.537  1.00  0.00     0.292 C 
HETATM   37  O11 UNL     1      40.959  10.772   8.594  1.00  0.00    -0.351 OA
HETATM   38  C15 UNL     1      40.450  12.000   8.320  1.00  0.00     0.152 C 
HETATM   39  C16 UNL     1      40.917  12.992   9.394  1.00  0.00     0.042 C 
HETATM   40  C17 UNL     1      40.707  12.578   6.980  1.00  0.00     0.178 C 
HETATM   41  C18 UNL     1      40.582  11.578   5.854  1.00  0.00     0.183 C 
HETATM   42  C19 UNL     1      40.500  10.158   6.384  1.00  0.00     0.204 C 
BRANCH  40  43
HETATM   43  O12 UNL     1      41.893  13.281   6.975  1.00  0.00    -0.390 OA
ATOM     44  H12 UNL     1      42.504  12.902   6.354  1.00  0.00     0.210 HD
ENDBRANCH  40  43
BRANCH  41  45
HETATM   45  O13 UNL     1      39.468  11.803   5.050  1.00  0.00    -0.390 OA
ATOM     46  H13 UNL     1      39.601  11.531   4.149  1.00  0.00     0.210 HD
ENDBRANCH  41  45
BRANCH  42  47
HETATM   47  O14 UNL     1      39.200  10.014   6.918  1.00  0.00    -0.388 OA
ATOM     48  H14 UNL     1      39.095   9.094   7.133  1.00  0.00     0.210 HD
ENDBRANCH  42  47
ENDBRANCH  35  36
ENDBRANCH   5  35
BRANCH   4  49
HETATM   49  O9  UNL     1      42.179   7.404   5.514  1.00  0.00    -0.390 OA
ATOM     50  H9  UNL     1      42.146   8.349   5.417  1.00  0.00     0.210 HD
ENDBRANCH   4  49
TORSDOF 16
ENDMDL
MODEL 2
REMARK VINA RESULT: -7.291296952      1.577      2.421
REMARK  16 active torsions:
REMARK  status: ('A' for Active; 'I' for Inactive)
REMARK    1  A    between atoms: O1_2  and  C2_3 
REMARK    2  A    between atoms: C3_6  and  O2_7 
REMARK    3  A    between atoms: C5_9  and  O3_10 
REMARK    4  A    between atoms: O3_10  and  C6_11 
REMARK    5  A    between atoms: C8_15  and  O6_16 
REMARK    6  A    between atoms: O6_16  and  C9_17 
REMARK    7  A    between atoms: C10_18  and  O7_19 
REMARK    8  A    between atoms: C11_21  and  O8_22 
REMARK    9  A    between atoms: C12_24  and  O9_25 
REMARK   10  A    between atoms: C13_27  and  O10_28 
REMARK   11  A    between atoms: O10_28  and  C14_29 
REMARK   12  A    between atoms: C17_33  and  O12_34 
REMARK   13  A    between atoms: C18_36  and  O13_37 
REMARK   14  A    between atoms: C19_39  and  O14_40 
REMARK   15  A    between atoms: C20_42  and  O15_43 
REMARK   16  A    between atoms: C21_45  and  O16_46 
ROOT
HETATM    1  C9  UNL     1      41.526   6.048  10.444  1.00  0.00     0.187 C 
HETATM    2  C10 UNL     1      41.934   5.168   9.309  1.00  0.00     0.181 C 
HETATM    3  C11 UNL     1      42.105   5.860   7.996  1.00  0.00     0.180 C 
HETATM    4  C12 UNL     1      43.113   6.970   8.216  1.00  0.00     0.181 C 
HETATM    5  C13 UNL     1      42.433   7.976   9.100  1.00  0.00     0.187 C 
HETATM    6  C20 UNL     1      42.121   7.410  10.458  1.00  0.00     0.181 C 
ENDROOT
BRANCH   1   7
HETATM    7  O6  UNL     1      41.772   5.356  11.632  1.00  0.00    -0.348 OA
BRANCH   7   8
HETATM    8  C8  UNL     1      40.630   4.981  12.285  1.00  0.00     0.296 C 
HETATM    9  O5  UNL     1      39.461   5.536  11.765  1.00  0.00    -0.334 OA
HETATM   10  C7  UNL     1      38.406   5.441  12.669  1.00  0.00     0.344 C 
HETATM   11  O4  UNL     1      38.668   4.528  13.658  1.00  0.00    -0.334 OA
HETATM   12  C6  UNL     1      39.095   3.285  13.135  1.00  0.00     0.299 C 
HETATM   13  C21 UNL     1      40.416   3.492  12.390  1.00  0.00     0.228 C 
BRANCH  12  14
HETATM   14  O3  UNL     1      38.079   2.839  12.325  1.00  0.00    -0.324 OA
BRANCH  14  15
HETATM   15  C5  UNL     1      37.452   1.705  12.769  1.00  0.00     0.312 C 
HETATM   16  C3  UNL     1      38.295   0.794  13.616  1.00  0.00     0.277 C 
HETATM   17  N1  UNL     1      37.723  -0.554  13.599  1.00  0.00    -0.342 N 
HETATM   18  C2  UNL     1      36.680  -0.880  12.935  1.00  0.00     0.144 C 
ATOM     19  H1  UNL     1      38.185  -1.277  14.151  1.00  0.00     0.164 HD
HETATM   20  C22 UNL     1      36.001   0.142  12.133  1.00  0.00     0.195 C 
HETATM   21  O17 UNL     1      36.969   1.029  11.643  1.00  0.00    -0.344 OA
HETATM   22  C23 UNL     1      35.304  -0.477  10.964  1.00  0.00     0.048 C 
BRANCH  16  23
HETATM   23  O2  UNL     1      38.300   1.188  14.952  1.00  0.00    -0.366 OA
HETATM   24  C4  UNL     1      39.302   0.502  15.616  1.00  0.00     0.204 C 
ENDBRANCH  16  23
BRANCH  18  25
HETATM   25  O1  UNL     1      36.263  -2.199  13.022  1.00  0.00    -0.342 OA
HETATM   26  C1  UNL     1      36.888  -3.126  13.912  1.00  0.00     0.211 C 
ENDBRANCH  18  25
ENDBRANCH  14  15
ENDBRANCH  12  14
BRANCH  13  27
HETATM   27  O16 UNL     1      41.424   2.958  13.193  1.00  0.00    -0.386 OA
ATOM     28  H16 UNL     1      41.124   3.021  14.093  1.00  0.00     0.210 HD
ENDBRANCH  13  27
ENDBRANCH   7   8
ENDBRANCH   1   7
BRANCH   2  29
HETATM   29  O7  UNL     1      43.122   4.486   9.571  1.00  0.00    -0.390 OA
ATOM     30  H7  UNL     1      43.409   3.967   8.828  1.00  0.00     0.210 HD
ENDBRANCH   2  29
BRANCH   6  31
HETATM   31  O15 UNL     1      43.325   7.365  11.166  1.00  0.00    -0.390 OA
ATOM     32  H15 UNL     1      43.509   8.231  11.511  1.00  0.00     0.210 HD
ENDBRANCH   6  31
BRANCH   3  33
HETATM   33  O8  UNL     1      40.939   6.279   7.411  1.00  0.00    -0.390 OA
ATOM     34  H8  UNL     1      40.826   7.222   7.380  1.00  0.00     0.210 HD
ENDBRANCH   3  33
BRANCH   5  35
HETATM   35  O10 UNL     1      41.257   8.374   8.493  1.00  0.00    -0.348 OA
BRANCH  35  36
HETATM   36  C14 UNL     1      41.339   9.635   7.880  1.00  0.00     0.292 C 
HETATM   37  O11 UNL     1      40.946  10.540   8.842  1.00  0.00    -0.351 OA
HETATM   38  C15 UNL     1      40.574  11.775   8.424  1.00  0.00     0.152 C 
HETATM   39  C16 UNL     1      41.166  12.829   9.371  1.00  0.00     0.042 C 
HETATM   40  C17 UNL     1      40.875  12.157   7.024  1.00  0.00     0.178 C 
HETATM   41  C18 UNL     1      40.621  11.051   6.026  1.00  0.00     0.183 C 
HETATM   42  C19 UNL     1      40.389   9.723   6.722  1.00  0.00     0.204 C 
BRANCH  40  43
HETATM   43  O12 UNL     1      42.132  12.716   6.933  1.00  0.00    -0.390 OA
ATOM     44  H12 UNL     1      42.119  13.618   7.231  1.00  0.00     0.210 HD
ENDBRANCH  40  43
BRANCH  41  45
HETATM   45  O13 UNL     1      39.528  11.304   5.202  1.00  0.00    -0.390 OA
ATOM     46  H13 UNL     1      38.773  10.768   5.414  1.00  0.00     0.210 HD
ENDBRANCH  41  45
BRANCH  42  47
HETATM   47  O14 UNL     1      39.089   9.791   7.272  1.00  0.00    -0.388 OA
ATOM     48  H14 UNL     1      38.569   9.137   6.821  1.00  0.00     0.210 HD
ENDBRANCH  42  47
ENDBRANCH  35  36
ENDBRANCH   5  35
BRANCH   4  49
HETATM   49  O9  UNL     1      43.616   7.517   7.073  1.00  0.00    -0.390 OA
ATOM     50  H9  UNL     1      44.542   7.359   6.932  1.00  0.00     0.210 HD
ENDBRANCH   4  49
TORSDOF 16
ENDMDL
MODEL 3
REMARK VINA RESULT: -7.236722925      1.535      2.352
REMARK  16 active torsions:
REMARK  status: ('A' for Active; 'I' for Inactive)
REMARK    1  A    between atoms: O1_2  and  C2_3 
REMARK    2  A    between atoms: C3_6  and  O2_7 
REMARK    3  A    between atoms: C5_9  and  O3_10 
REMARK    4  A    between atoms: O3_10  and  C6_11 
REMARK    5  A    between atoms: C8_15  and  O6_16 
REMARK    6  A    between atoms: O6_16  and  C9_17 
REMARK    7  A    between atoms: C10_18  and  O7_19 
REMARK    8  A    between atoms: C11_21  and  O8_22 
REMARK    9  A    between atoms: C12_24  and  O9_25 
REMARK   10  A    between atoms: C13_27  and  O10_28 
REMARK   11  A    between atoms: O10_28  and  C14_29 
REMARK   12  A    between atoms: C17_33  and  O12_34 
REMARK   13  A    between atoms: C18_36  and  O13_37 
REMARK   14  A    between atoms: C19_39  and  O14_40 
REMARK   15  A    between atoms: C20_42  and  O15_43 
REMARK   16  A    between atoms: C21_45  and  O16_46 
ROOT
HETATM    1  C9  UNL     1      41.570   6.082  10.465  1.00  0.00     0.187 C 
HETATM    2  C10 UNL     1      41.911   5.219   9.296  1.00  0.00     0.181 C 
HETATM    3  C11 UNL     1      42.027   5.933   7.989  1.00  0.00     0.180 C 
HETATM    4  C12 UNL     1      43.058   7.028   8.180  1.00  0.00     0.181 C 
HETATM    5  C13 UNL     1      42.433   8.025   9.113  1.00  0.00     0.187 C 
HETATM    6  C20 UNL     1      42.181   7.437  10.475  1.00  0.00     0.181 C 
ENDROOT
BRANCH   1   7
HETATM    7  O6  UNL     1      41.865   5.365  11.627  1.00  0.00    -0.348 OA
BRANCH   7   8
HETATM    8  C8  UNL     1      40.752   4.884  12.261  1.00  0.00     0.296 C 
HETATM    9  O5  UNL     1      39.545   5.327  11.722  1.00  0.00    -0.334 OA
HETATM   10  C7  UNL     1      38.488   5.131  12.608  1.00  0.00     0.344 C 
HETATM   11  O4  UNL     1      38.820   4.246  13.602  1.00  0.00    -0.334 OA
HETATM   12  C6  UNL     1      39.370   3.049  13.086  1.00  0.00     0.299 C 
HETATM   13  C21 UNL     1      40.678   3.380  12.363  1.00  0.00     0.228 C 
BRANCH  12  14
HETATM   14  O3  UNL     1      38.415   2.510  12.260  1.00  0.00    -0.324 OA
BRANCH  14  15
HETATM   15  C5  UNL     1      38.173   1.177  12.460  1.00  0.00     0.312 C 
HETATM   16  C3  UNL     1      36.733   0.762  12.355  1.00  0.00     0.277 C 
HETATM   17  N1  UNL     1      36.539  -0.507  13.060  1.00  0.00    -0.342 N 
HETATM   18  C2  UNL     1      37.467  -1.128  13.684  1.00  0.00     0.144 C 
ATOM     19  H1  UNL     1      35.607  -0.920  13.055  1.00  0.00     0.164 HD
HETATM   20  C22 UNL     1      38.815  -0.552  13.707  1.00  0.00     0.195 C 
HETATM   21  O17 UNL     1      38.694   0.844  13.717  1.00  0.00    -0.344 OA
HETATM   22  C23 UNL     1      39.547  -0.963  14.944  1.00  0.00     0.048 C 
BRANCH  16  23
HETATM   23  O2  UNL     1      36.360   0.523  11.035  1.00  0.00    -0.366 OA
HETATM   24  C4  UNL     1      35.365  -0.440  11.019  1.00  0.00     0.204 C 
ENDBRANCH  16  23
BRANCH  18  25
HETATM   25  O1  UNL     1      37.124  -2.320  14.303  1.00  0.00    -0.342 OA
HETATM   26  C1  UNL     1      36.313  -3.298  13.649  1.00  0.00     0.211 C 
ENDBRANCH  18  25
ENDBRANCH  14  15
ENDBRANCH  12  14
BRANCH  13  27
HETATM   27  O16 UNL     1      41.718   2.942  13.182  1.00  0.00    -0.386 OA
ATOM     28  H16 UNL     1      41.998   2.099  12.848  1.00  0.00     0.210 HD
ENDBRANCH  13  27
ENDBRANCH   7   8
ENDBRANCH   1   7
BRANCH   2  29
HETATM   29  O7  UNL     1      43.102   4.518   9.488  1.00  0.00    -0.390 OA
ATOM     30  H7  UNL     1      42.951   3.632   9.793  1.00  0.00     0.210 HD
ENDBRANCH   2  29
BRANCH   6  31
HETATM   31  O15 UNL     1      43.417   7.365  11.123  1.00  0.00    -0.390 OA
ATOM     32  H15 UNL     1      43.422   7.989  11.839  1.00  0.00     0.210 HD
ENDBRANCH   6  31
BRANCH   3  33
HETATM   33  O8  UNL     1      40.839   6.376   7.469  1.00  0.00    -0.390 OA
ATOM     34  H8  UNL     1      40.085   6.247   8.033  1.00  0.00     0.210 HD
ENDBRANCH   3  33
BRANCH   5  35
HETATM   35  O10 UNL     1      41.234   8.447   8.572  1.00  0.00    -0.348 OA
BRANCH  35  36
HETATM   36  C14 UNL     1      41.313   9.697   7.937  1.00  0.00     0.292 C 
HETATM   37  O11 UNL     1      40.888  10.614   8.874  1.00  0.00    -0.351 OA
HETATM   38  C15 UNL     1      40.509  11.837   8.425  1.00  0.00     0.152 C 
HETATM   39  C16 UNL     1      41.067  12.915   9.365  1.00  0.00     0.042 C 
HETATM   40  C17 UNL     1      40.834  12.197   7.025  1.00  0.00     0.178 C 
HETATM   41  C18 UNL     1      40.615  11.070   6.044  1.00  0.00     0.183 C 
HETATM   42  C19 UNL     1      40.385   9.751   6.759  1.00  0.00     0.204 C 
BRANCH  40  43
HETATM   43  O12 UNL     1      42.085  12.771   6.950  1.00  0.00    -0.390 OA
ATOM     44  H12 UNL     1      42.390  13.021   7.814  1.00  0.00     0.210 HD
ENDBRANCH  40  43
BRANCH  41  45
HETATM   45  O13 UNL     1      39.536  11.293   5.193  1.00  0.00    -0.390 OA
ATOM     46  H13 UNL     1      39.105  12.125   5.352  1.00  0.00     0.210 HD
ENDBRANCH  41  45
BRANCH  42  47
HETATM   47  O14 UNL     1      39.074   9.812   7.280  1.00  0.00    -0.388 OA
ATOM     48  H14 UNL     1      38.633  10.521   6.826  1.00  0.00     0.210 HD
ENDBRANCH  42  47
ENDBRANCH  35  36
ENDBRANCH   5  35
BRANCH   4  49
HETATM   49  O9  UNL     1      43.511   7.590   7.024  1.00  0.00    -0.390 OA
ATOM     50  H9  UNL     1      43.906   6.979   6.413  1.00  0.00     0.210 HD
ENDBRANCH   4  49
TORSDOF 16
ENDMDL
MODEL 4
REMARK VINA RESULT: -7.182071127      5.749     11.773
REMARK  16 active torsions:
REMARK  status: ('A' for Active; 'I' for Inactive)
REMARK    1  A    between atoms: O1_2  and  C2_3 
REMARK    2  A    between atoms: C3_6  and  O2_7 
REMARK    3  A    between atoms: C5_9  and  O3_10 
REMARK    4  A    between atoms: O3_10  and  C6_11 
REMARK    5  A    between atoms: C8_15  and  O6_16 
REMARK    6  A    between atoms: O6_16  and  C9_17 
REMARK    7  A    between atoms: C10_18  and  O7_19 
REMARK    8  A    between atoms: C11_21  and  O8_22 
REMARK    9  A    between atoms: C12_24  and  O9_25 
REMARK   10  A    between atoms: C13_27  and  O10_28 
REMARK   11  A    between atoms: O10_28  and  C14_29 
REMARK   12  A    between atoms: C17_33  and  O12_34 
REMARK   13  A    between atoms: C18_36  and  O13_37 
REMARK   14  A    between atoms: C19_39  and  O14_40 
REMARK   15  A    between atoms: C20_42  and  O15_43 
REMARK   16  A    between atoms: C21_45  and  O16_46 
ROOT
HETATM    1  C9  UNL     1      38.475  -0.120  13.296  1.00  0.00     0.187 C 
HETATM    2  C10 UNL     1      39.289  -0.492  14.490  1.00  0.00     0.181 C 
HETATM    3  C11 UNL     1      38.942  -1.804  15.114  1.00  0.00     0.180 C 
HETATM    4  C12 UNL     1      39.060  -2.851  14.025  1.00  0.00     0.181 C 
HETATM    5  C13 UNL     1      37.942  -2.571  13.062  1.00  0.00     0.187 C 
HETATM    6  C20 UNL     1      38.104  -1.236  12.387  1.00  0.00     0.181 C 
ENDROOT
BRANCH   1   7
HETATM    7  O6  UNL     1      39.145   0.904  12.623  1.00  0.00    -0.348 OA
BRANCH   7   8
HETATM    8  C8  UNL     1      38.444   2.078  12.591  1.00  0.00     0.296 C 
HETATM    9  O5  UNL     1      37.354   2.122  13.459  1.00  0.00    -0.334 OA
HETATM   10  C7  UNL     1      36.474   3.147  13.121  1.00  0.00     0.344 C 
HETATM   11  O4  UNL     1      37.060   4.060  12.282  1.00  0.00    -0.334 OA
HETATM   12  C6  UNL     1      38.308   4.509  12.773  1.00  0.00     0.299 C 
HETATM   13  C21 UNL     1      39.268   3.318  12.838  1.00  0.00     0.228 C 
BRANCH  12  14
HETATM   14  O3  UNL     1      38.060   5.073  14.000  1.00  0.00    -0.324 OA
BRANCH  14  15
HETATM   15  C5  UNL     1      37.976   6.439  13.993  1.00  0.00     0.312 C 
HETATM   16  C3  UNL     1      38.579   7.127  15.186  1.00  0.00     0.277 C 
HETATM   17  N1  UNL     1      38.005   8.467  15.318  1.00  0.00    -0.342 N 
HETATM   18  C2  UNL     1      37.109   8.941  14.538  1.00  0.00     0.144 C 
ATOM     19  H1  UNL     1      38.339   9.058  16.079  1.00  0.00     0.164 HD
HETATM   20  C22 UNL     1      36.612   8.109  13.438  1.00  0.00     0.195 C 
HETATM   21  O17 UNL     1      36.623   6.773  13.861  1.00  0.00    -0.344 OA
HETATM   22  C23 UNL     1      35.205   8.474  13.089  1.00  0.00     0.048 C 
BRANCH  16  23
HETATM   23  O2  UNL     1      39.951   7.315  15.034  1.00  0.00    -0.366 OA
HETATM   24  C4  UNL     1      40.612   6.579  16.002  1.00  0.00     0.204 C 
ENDBRANCH  16  23
BRANCH  18  25
HETATM   25  O1  UNL     1      36.666  10.229  14.795  1.00  0.00    -0.342 OA
HETATM   26  C1  UNL     1      36.659  10.770  16.118  1.00  0.00     0.211 C 
ENDBRANCH  18  25
ENDBRANCH  14  15
ENDBRANCH  12  14
BRANCH  13  27
HETATM   27  O16 UNL     1      40.169   3.464  11.783  1.00  0.00    -0.386 OA
ATOM     28  H16 UNL     1      40.356   2.593  11.455  1.00  0.00     0.210 HD
ENDBRANCH  13  27
ENDBRANCH   7   8
ENDBRANCH   1   7
BRANCH   2  29
HETATM   29  O7  UNL     1      40.655  -0.520  14.208  1.00  0.00    -0.390 OA
ATOM     30  H7  UNL     1      41.067  -1.321  14.512  1.00  0.00     0.210 HD
ENDBRANCH   2  29
BRANCH   6  31
HETATM   31  O15 UNL     1      39.108  -1.384  11.427  1.00  0.00    -0.390 OA
ATOM     32  H15 UNL     1      39.326  -2.306  11.353  1.00  0.00     0.210 HD
ENDBRANCH   6  31
BRANCH   3  33
HETATM   33  O8  UNL     1      37.742  -1.825  15.776  1.00  0.00    -0.390 OA
ATOM     34  H8  UNL     1      37.272  -2.649  15.719  1.00  0.00     0.210 HD
ENDBRANCH   3  33
BRANCH   5  35
HETATM   35  O10 UNL     1      36.747  -2.589  13.754  1.00  0.00    -0.348 OA
BRANCH  35  36
HETATM   36  C14 UNL     1      36.014  -3.774  13.581  1.00  0.00     0.292 C 
HETATM   37  O11 UNL     1      36.844  -4.622  12.880  1.00  0.00    -0.351 OA
HETATM   38  C15 UNL     1      36.272  -5.682  12.256  1.00  0.00     0.152 C 
HETATM   39  C16 UNL     1      37.146  -6.926  12.469  1.00  0.00     0.042 C 
HETATM   40  C17 UNL     1      34.867  -6.014  12.592  1.00  0.00     0.178 C 
HETATM   41  C18 UNL     1      33.974  -4.802  12.723  1.00  0.00     0.183 C 
HETATM   42  C19 UNL     1      34.784  -3.520  12.760  1.00  0.00     0.204 C 
BRANCH  40  43
HETATM   43  O12 UNL     1      34.815  -6.868  13.673  1.00  0.00    -0.390 OA
ATOM     44  H12 UNL     1      34.068  -7.451  13.603  1.00  0.00     0.210 HD
ENDBRANCH  40  43
BRANCH  41  45
HETATM   45  O13 UNL     1      33.046  -4.698  11.690  1.00  0.00    -0.390 OA
ATOM     46  H13 UNL     1      33.388  -4.993  10.854  1.00  0.00     0.210 HD
ENDBRANCH  41  45
BRANCH  42  47
HETATM   47  O14 UNL     1      35.222  -3.296  11.435  1.00  0.00    -0.388 OA
ATOM     48  H14 UNL     1      34.562  -2.755  11.019  1.00  0.00     0.210 HD
ENDBRANCH  42  47
ENDBRANCH  35  36
ENDBRANCH   5  35
BRANCH   4  49
HETATM   49  O9  UNL     1      39.070  -4.138  14.472  1.00  0.00    -0.390 OA
ATOM     50  H9  UNL     1      39.186  -4.793  13.793  1.00  0.00     0.210 HD
ENDBRANCH   4  49
TORSDOF 16
ENDMDL
MODEL 5
REMARK VINA RESULT: -7.017399255      5.633     12.086
REMARK  16 active torsions:
REMARK  status: ('A' for Active; 'I' for Inactive)
REMARK    1  A    between atoms: O1_2  and  C2_3 
REMARK    2  A    between atoms: C3_6  and  O2_7 
REMARK    3  A    between atoms: C5_9  and  O3_10 
REMARK    4  A    between atoms: O3_10  and  C6_11 
REMARK    5  A    between atoms: C8_15  and  O6_16 
REMARK    6  A    between atoms: O6_16  and  C9_17 
REMARK    7  A    between atoms: C10_18  and  O7_19 
REMARK    8  A    between atoms: C11_21  and  O8_22 
REMARK    9  A    between atoms: C12_24  and  O9_25 
REMARK   10  A    between atoms: C13_27  and  O10_28 
REMARK   11  A    between atoms: O10_28  and  C14_29 
REMARK   12  A    between atoms: C17_33  and  O12_34 
REMARK   13  A    between atoms: C18_36  and  O13_37 
REMARK   14  A    between atoms: C19_39  and  O14_40 
REMARK   15  A    between atoms: C20_42  and  O15_43 
REMARK   16  A    between atoms: C21_45  and  O16_46 
ROOT
HETATM    1  C9  UNL     1      37.066  -0.149  12.764  1.00  0.00     0.187 C 
HETATM    2  C10 UNL     1      38.428  -0.512  13.254  1.00  0.00     0.181 C 
HETATM    3  C11 UNL     1      38.569  -1.906  13.770  1.00  0.00     0.180 C 
HETATM    4  C12 UNL     1      38.125  -2.832  12.656  1.00  0.00     0.181 C 
HETATM    5  C13 UNL     1      36.645  -2.620  12.509  1.00  0.00     0.187 C 
HETATM    6  C20 UNL     1      36.321  -1.223  12.055  1.00  0.00     0.181 C 
ENDROOT
BRANCH   1   7
HETATM    7  O6  UNL     1      37.182   1.007  11.990  1.00  0.00    -0.348 OA
BRANCH   7   8
HETATM    8  C8  UNL     1      37.820   2.029  12.638  1.00  0.00     0.296 C 
HETATM    9  O5  UNL     1      39.078   2.341  12.124  1.00  0.00    -0.334 OA
HETATM   10  C7  UNL     1      39.825   3.094  13.027  1.00  0.00     0.344 C 
HETATM   11  O4  UNL     1      39.035   3.640  14.005  1.00  0.00    -0.334 OA
HETATM   12  C6  UNL     1      37.918   4.322  13.468  1.00  0.00     0.299 C 
HETATM   13  C21 UNL     1      37.036   3.315  12.726  1.00  0.00     0.228 C 
BRANCH  12  14
HETATM   14  O3  UNL     1      38.423   5.305  12.653  1.00  0.00    -0.324 OA
BRANCH  14  15
HETATM   15  C5  UNL     1      38.233   6.581  13.113  1.00  0.00     0.312 C 
HETATM   16  C3  UNL     1      38.908   6.901  14.418  1.00  0.00     0.277 C 
HETATM   17  N1  UNL     1      38.249   8.052  15.037  1.00  0.00    -0.342 N 
HETATM   18  C2  UNL     1      37.239   8.655  14.534  1.00  0.00     0.144 C 
ATOM     19  H1  UNL     1      38.617   8.394  15.924  1.00  0.00     0.164 HD
HETATM   20  C22 UNL     1      36.691   8.180  13.261  1.00  0.00     0.195 C 
HETATM   21  O17 UNL     1      36.851   6.789  13.206  1.00  0.00    -0.344 OA
HETATM   22  C23 UNL     1      35.230   8.483  13.165  1.00  0.00     0.048 C 
BRANCH  16  23
HETATM   23  O2  UNL     1      40.235   7.278  14.233  1.00  0.00    -0.366 OA
HETATM   24  C4  UNL     1      41.050   6.401  14.928  1.00  0.00     0.204 C 
ENDBRANCH  16  23
BRANCH  18  25
HETATM   25  O1  UNL     1      36.728   9.730  15.244  1.00  0.00    -0.342 OA
HETATM   26  C1  UNL     1      37.458  10.951  15.385  1.00  0.00     0.211 C 
ENDBRANCH  18  25
ENDBRANCH  14  15
ENDBRANCH  12  14
BRANCH  13  27
HETATM   27  O16 UNL     1      35.913   3.093  13.523  1.00  0.00    -0.386 OA
ATOM     28  H16 UNL     1      35.499   2.299  13.204  1.00  0.00     0.210 HD
ENDBRANCH  13  27
ENDBRANCH   7   8
ENDBRANCH   1   7
BRANCH   2  29
HETATM   29  O7  UNL     1      39.404  -0.337  12.272  1.00  0.00    -0.390 OA
ATOM     30  H7  UNL     1      40.192  -0.835  12.457  1.00  0.00     0.210 HD
ENDBRANCH   2  29
BRANCH   6  31
HETATM   31  O15 UNL     1      36.627  -1.155  10.694  1.00  0.00    -0.390 OA
ATOM     32  H15 UNL     1      36.936  -0.280  10.494  1.00  0.00     0.210 HD
ENDBRANCH   6  31
BRANCH   3  33
HETATM   33  O8  UNL     1      37.945  -2.141  14.967  1.00  0.00    -0.390 OA
ATOM     34  H8  UNL     1      38.048  -1.451  15.612  1.00  0.00     0.210 HD
ENDBRANCH   3  33
BRANCH   5  35
HETATM   35  O10 UNL     1      36.042  -2.853  13.729  1.00  0.00    -0.348 OA
BRANCH  35  36
HETATM   36  C14 UNL     1      35.287  -4.037  13.768  1.00  0.00     0.292 C 
HETATM   37  O11 UNL     1      36.198  -5.047  13.995  1.00  0.00    -0.351 OA
HETATM   38  C15 UNL     1      35.808  -6.315  13.709  1.00  0.00     0.152 C 
HETATM   39  C16 UNL     1      36.282  -7.252  14.829  1.00  0.00     0.042 C 
HETATM   40  C17 UNL     1      34.370  -6.560  13.447  1.00  0.00     0.178 C 
HETATM   41  C18 UNL     1      33.720  -5.494  12.596  1.00  0.00     0.183 C 
HETATM   42  C19 UNL     1      34.619  -4.281  12.447  1.00  0.00     0.204 C 
BRANCH  40  43
HETATM   43  O12 UNL     1      33.701  -6.824  14.622  1.00  0.00    -0.390 OA
ATOM     44  H12 UNL     1      33.136  -6.097  14.856  1.00  0.00     0.210 HD
ENDBRANCH  40  43
BRANCH  41  45
HETATM   45  O13 UNL     1      33.388  -5.945  11.321  1.00  0.00    -0.390 OA
ATOM     46  H13 UNL     1      32.771  -5.376  10.876  1.00  0.00     0.210 HD
ENDBRANCH  41  45
BRANCH  42  47
HETATM   47  O14 UNL     1      35.637  -4.657  11.543  1.00  0.00    -0.388 OA
ATOM     48  H14 UNL     1      36.298  -5.113  12.051  1.00  0.00     0.210 HD
ENDBRANCH  42  47
ENDBRANCH  35  36
ENDBRANCH   5  35
BRANCH   4  49
HETATM   49  O9  UNL     1      38.461  -4.140  12.835  1.00  0.00    -0.390 OA
ATOM     50  H9  UNL     1      38.597  -4.629  12.031  1.00  0.00     0.210 HD
ENDBRANCH   4  49
TORSDOF 16
ENDMDL
