MODEL 1
REMARK VINA RESULT: -6.074682469      0.000      0.000
REMARK  18 active torsions:
REMARK  status: ('A' for Active; 'I' for Inactive)
REMARK    1  A    between atoms: O1_2  and  C2_3 
REMARK    2  A    between atoms: C2_3  and  O2_4 
REMARK    3  A    between atoms: O2_4  and  C3_5 
REMARK    4  A    between atoms: C4_6  and  O3_7 
REMARK    5  A    between atoms: C5_9  and  O4_10 
REMARK    6  A    between atoms: C6_12  and  O5_13 
REMARK    7  A    between atoms: O5_13  and  C7_14 
REMARK    8  A    between atoms: C9_17  and  O7_18 
REMARK    9  A    between atoms: C10_20  and  O8_21 
REMARK   10  A    between atoms: C12_23  and  O9_24 
REMARK   11  A    between atoms: O9_24  and  C13_25 
REMARK   12  A    between atoms: C13_25  and  C14_27 
REMARK   13  A    between atoms: C18_31  and  O11_32 
REMARK   14  A    between atoms: O11_32  and  C19_33 
REMARK   15  A    between atoms: C21_36  and  O13_37 
REMARK   16  A    between atoms: C22_39  and  O14_40 
REMARK   17  A    between atoms: C23_42  and  O15_43 
REMARK   18  A    between atoms: C24_45  and  O16_46 
ROOT
HETATM    1  C3  UNL     1      40.495  -5.556  12.930  1.00  0.00     0.186 C 
HETATM    2  C4  UNL     1      40.746  -4.217  13.460  1.00  0.00     0.181 C 
HETATM    3  C5  UNL     1      39.499  -3.695  14.195  1.00  0.00     0.181 C 
HETATM    4  C6  UNL     1      38.512  -3.475  13.043  1.00  0.00     0.187 C 
HETATM    5  C18 UNL     1      38.065  -4.833  12.625  1.00  0.00     0.187 C 
HETATM    6  C24 UNL     1      39.058  -5.917  12.685  1.00  0.00     0.181 C 
ENDROOT
BRANCH   4   7
HETATM    7  O5  UNL     1      37.493  -2.665  13.464  1.00  0.00    -0.348 OA
BRANCH   7   8
HETATM    8  C7  UNL     1      37.698  -1.395  12.938  1.00  0.00     0.292 C 
HETATM    9  O6  UNL     1      36.494  -1.104  12.244  1.00  0.00    -0.356 OA
HETATM   10  C8  UNL     1      36.627  -0.002  11.426  1.00  0.00     0.205 C 
HETATM   11  C9  UNL     1      36.747   1.210  12.355  1.00  0.00     0.173 C 
HETATM   12  C10 UNL     1      38.005   1.001  13.160  1.00  0.00     0.185 C 
HETATM   13  C12 UNL     1      37.880  -0.309  13.928  1.00  0.00     0.218 C 
BRANCH  11  14
HETATM   14  O7  UNL     1      36.806   2.336  11.565  1.00  0.00    -0.391 OA
ATOM     15  H7  UNL     1      35.946   2.463  11.181  1.00  0.00     0.210 HD
ENDBRANCH  11  14
BRANCH  12  16
HETATM   16  O8  UNL     1      39.086   1.015  12.300  1.00  0.00    -0.385 OA
HETATM   17  C11 UNL     1      40.009   2.014  12.613  1.00  0.00     0.202 C 
ENDBRANCH  12  16
BRANCH  13  18
HETATM   18  O9  UNL     1      38.985  -0.394  14.771  1.00  0.00    -0.308 OA
BRANCH  18  19
HETATM   19  C13 UNL     1      38.806  -0.354  16.138  1.00  0.00     0.267 C 
HETATM   20  O10 UNL     1      37.627  -0.194  16.573  1.00  0.00    -0.264 OA
BRANCH  19  21
HETATM   21  C14 UNL     1      39.885  -0.480  17.142  1.00  0.00     0.037 C 
HETATM   22  C15 UNL     1      39.422   0.024  18.510  1.00  0.00     0.025 C 
HETATM   23  C16 UNL     1      41.047   0.367  16.712  1.00  0.00     0.025 C 
HETATM   24  C17 UNL     1      40.292  -1.919  17.350  1.00  0.00     0.025 C 
ENDBRANCH  19  21
ENDBRANCH  18  19
ENDBRANCH  13  18
ENDBRANCH   7   8
ENDBRANCH   4   7
BRANCH   3  25
HETATM   25  O4  UNL     1      39.073  -4.728  15.022  1.00  0.00    -0.390 OA
ATOM     26  H4  UNL     1      38.179  -4.924  14.765  1.00  0.00     0.210 HD
ENDBRANCH   3  25
BRANCH   5  27
HETATM   27  O11 UNL     1      36.931  -5.159  13.385  1.00  0.00    -0.348 OA
BRANCH  27  28
HETATM   28  C19 UNL     1      35.861  -5.599  12.639  1.00  0.00     0.291 C 
HETATM   29  O12 UNL     1      36.114  -5.838  11.316  1.00  0.00    -0.356 OA
HETATM   30  C20 UNL     1      35.138  -6.617  10.775  1.00  0.00     0.205 C 
HETATM   31  C21 UNL     1      33.784  -6.530  11.358  1.00  0.00     0.173 C 
HETATM   32  C22 UNL     1      33.491  -5.377  12.229  1.00  0.00     0.182 C 
HETATM   33  C23 UNL     1      34.707  -4.590  12.660  1.00  0.00     0.204 C 
BRANCH  31  34
HETATM   34  O13 UNL     1      33.565  -7.712  12.105  1.00  0.00    -0.391 OA
ATOM     35  H13 UNL     1      33.327  -8.398  11.492  1.00  0.00     0.210 HD
ENDBRANCH  31  34
BRANCH  32  36
HETATM   36  O14 UNL     1      32.576  -4.501  11.594  1.00  0.00    -0.390 OA
ATOM     37  H14 UNL     1      32.941  -3.625  11.541  1.00  0.00     0.210 HD
ENDBRANCH  32  36
BRANCH  33  38
HETATM   38  O15 UNL     1      34.963  -3.655  11.676  1.00  0.00    -0.388 OA
ATOM     39  H15 UNL     1      34.966  -4.114  10.845  1.00  0.00     0.210 HD
ENDBRANCH  33  38
ENDBRANCH  27  28
ENDBRANCH   5  27
BRANCH   2  40
HETATM   40  O3  UNL     1      41.094  -3.273  12.491  1.00  0.00    -0.390 OA
ATOM     41  H3  UNL     1      42.029  -3.194  12.342  1.00  0.00     0.210 HD
ENDBRANCH   2  40
BRANCH   6  42
HETATM   42  O16 UNL     1      38.942  -6.703  11.515  1.00  0.00    -0.390 OA
ATOM     43  H16 UNL     1      39.793  -7.035  11.254  1.00  0.00     0.210 HD
ENDBRANCH   6  42
BRANCH   1  44
HETATM   44  O2  UNL     1      41.157  -5.739  11.719  1.00  0.00    -0.356 OA
BRANCH  44  45
HETATM   45  C2  UNL     1      42.086  -6.735  11.700  1.00  0.00     0.337 C 
BRANCH  45  46
HETATM   46  O1  UNL     1      41.759  -7.931  11.137  1.00  0.00    -0.372 OA
HETATM   47  C1  UNL     1      41.714  -9.003  11.979  1.00  0.00     0.204 C 
ENDBRANCH  45  46
ENDBRANCH  44  45
ENDBRANCH   1  44
TORSDOF 18
ENDMDL
MODEL 2
REMARK VINA RESULT: -5.909263463      2.953      8.511
REMARK  18 active torsions:
REMARK  status: ('A' for Active; 'I' for Inactive)
REMARK    1  A    between atoms: O1_2  and  C2_3 
REMARK    2  A    between atoms: C2_3  and  O2_4 
REMARK    3  A    between atoms: O2_4  and  C3_5 
REMARK    4  A    between atoms: C4_6  and  O3_7 
REMARK    5  A    between atoms: C5_9  and  O4_10 
REMARK    6  A    between atoms: C6_12  and  O5_13 
REMARK    7  A    between atoms: O5_13  and  C7_14 
REMARK    8  A    between atoms: C9_17  and  O7_18 
REMARK    9  A    between atoms: C10_20  and  O8_21 
REMARK   10  A    between atoms: C12_23  and  O9_24 
REMARK   11  A    between atoms: O9_24  and  C13_25 
REMARK   12  A    between atoms: C13_25  and  C14_27 
REMARK   13  A    between atoms: C18_31  and  O11_32 
REMARK   14  A    between atoms: O11_32  and  C19_33 
REMARK   15  A    between atoms: C21_36  and  O13_37 
REMARK   16  A    between atoms: C22_39  and  O14_40 
REMARK   17  A    between atoms: C23_42  and  O15_43 
REMARK   18  A    between atoms: C24_45  and  O16_46 
ROOT
HETATM    1  C3  UNL     1      40.249   1.129  17.421  1.00  0.00     0.186 C 
HETATM    2  C4  UNL     1      39.830  -0.073  16.703  1.00  0.00     0.181 C 
HETATM    3  C5  UNL     1      40.220   0.033  15.218  1.00  0.00     0.181 C 
HETATM    4  C6  UNL     1      39.278   1.131  14.714  1.00  0.00     0.187 C 
HETATM    5  C18 UNL     1      39.815   2.410  15.255  1.00  0.00     0.187 C 
HETATM    6  C24 UNL     1      40.419   2.372  16.596  1.00  0.00     0.181 C 
ENDROOT
BRANCH   4   7
HETATM    7  O5  UNL     1      39.222   1.092  13.347  1.00  0.00    -0.348 OA
BRANCH   7   8
HETATM    8  C7  UNL     1      38.148   0.291  12.976  1.00  0.00     0.292 C 
HETATM    9  O6  UNL     1      37.245   1.186  12.342  1.00  0.00    -0.356 OA
HETATM   10  C8  UNL     1      36.002   0.618  12.161  1.00  0.00     0.205 C 
HETATM   11  C9  UNL     1      36.175  -0.458  11.085  1.00  0.00     0.173 C 
HETATM   12  C10 UNL     1      37.137  -1.472  11.652  1.00  0.00     0.185 C 
HETATM   13  C12 UNL     1      38.446  -0.769  11.985  1.00  0.00     0.218 C 
BRANCH  11  14
HETATM   14  O7  UNL     1      34.933  -0.993  10.827  1.00  0.00    -0.391 OA
ATOM     15  H7  UNL     1      34.520  -0.454  10.163  1.00  0.00     0.210 HD
ENDBRANCH  11  14
BRANCH  12  16
HETATM   16  O8  UNL     1      36.552  -2.063  12.754  1.00  0.00    -0.385 OA
HETATM   17  C11 UNL     1      36.423  -3.446  12.618  1.00  0.00     0.202 C 
ENDBRANCH  12  16
BRANCH  13  18
HETATM   18  O9  UNL     1      39.354  -1.755  12.362  1.00  0.00    -0.308 OA
BRANCH  18  19
HETATM   19  C13 UNL     1      40.604  -1.790  11.780  1.00  0.00     0.267 C 
HETATM   20  O10 UNL     1      40.904  -0.863  10.971  1.00  0.00    -0.264 OA
BRANCH  19  21
HETATM   21  C14 UNL     1      41.628  -2.831  12.023  1.00  0.00     0.037 C 
HETATM   22  C15 UNL     1      42.367  -2.575  13.337  1.00  0.00     0.025 C 
HETATM   23  C16 UNL     1      42.637  -2.783  10.914  1.00  0.00     0.025 C 
HETATM   24  C17 UNL     1      41.012  -4.202  12.157  1.00  0.00     0.025 C 
ENDBRANCH  19  21
ENDBRANCH  18  19
ENDBRANCH  13  18
ENDBRANCH   7   8
ENDBRANCH   4   7
BRANCH   3  25
HETATM   25  O4  UNL     1      41.542   0.464  15.192  1.00  0.00    -0.390 OA
ATOM     26  H4  UNL     1      42.063  -0.290  14.940  1.00  0.00     0.210 HD
ENDBRANCH   3  25
BRANCH   5  27
HETATM   27  O11 UNL     1      40.727   2.918  14.317  1.00  0.00    -0.348 OA
BRANCH  27  28
HETATM   28  C19 UNL     1      40.429   4.187  13.872  1.00  0.00     0.291 C 
HETATM   29  O12 UNL     1      39.395   4.814  14.509  1.00  0.00    -0.356 OA
HETATM   30  C20 UNL     1      39.435   6.156  14.281  1.00  0.00     0.205 C 
HETATM   31  C21 UNL     1      40.034   6.622  13.016  1.00  0.00     0.173 C 
HETATM   32  C22 UNL     1      40.222   5.627  11.944  1.00  0.00     0.182 C 
HETATM   33  C23 UNL     1      40.058   4.191  12.385  1.00  0.00     0.204 C 
BRANCH  31  34
HETATM   34  O13 UNL     1      41.298   7.181  13.322  1.00  0.00    -0.391 OA
ATOM     35  H13 UNL     1      41.145   8.000  13.779  1.00  0.00     0.210 HD
ENDBRANCH  31  34
BRANCH  32  36
HETATM   36  O14 UNL     1      39.333   5.883  10.872  1.00  0.00    -0.390 OA
ATOM     37  H14 UNL     1      39.804   6.249  10.132  1.00  0.00     0.210 HD
ENDBRANCH  32  36
BRANCH  33  38
HETATM   38  O15 UNL     1      38.714   3.883  12.299  1.00  0.00    -0.388 OA
ATOM     39  H15 UNL     1      38.536   3.213  12.948  1.00  0.00     0.210 HD
ENDBRANCH  33  38
ENDBRANCH  27  28
ENDBRANCH   5  27
BRANCH   2  40
HETATM   40  O3  UNL     1      38.458  -0.330  16.765  1.00  0.00    -0.390 OA
ATOM     41  H3  UNL     1      38.183  -0.791  17.548  1.00  0.00     0.210 HD
ENDBRANCH   2  40
BRANCH   6  42
HETATM   42  O16 UNL     1      39.983   3.507  17.321  1.00  0.00    -0.390 OA
ATOM     43  H16 UNL     1      40.637   4.195  17.282  1.00  0.00     0.210 HD
ENDBRANCH   6  42
BRANCH   1  44
HETATM   44  O2  UNL     1      39.336   1.447  18.424  1.00  0.00    -0.356 OA
BRANCH  44  45
HETATM   45  C2  UNL     1      39.646   0.988  19.669  1.00  0.00     0.337 C 
BRANCH  45  46
HETATM   46  O1  UNL     1      40.955   0.854  20.015  1.00  0.00    -0.372 OA
HETATM   47  C1  UNL     1      41.293  -0.293  20.672  1.00  0.00     0.204 C 
ENDBRANCH  45  46
ENDBRANCH  44  45
ENDBRANCH   1  44
TORSDOF 18
ENDMDL
MODEL 3
REMARK VINA RESULT: -5.879950919      2.965      8.763
REMARK  18 active torsions:
REMARK  status: ('A' for Active; 'I' for Inactive)
REMARK    1  A    between atoms: O1_2  and  C2_3 
REMARK    2  A    between atoms: C2_3  and  O2_4 
REMARK    3  A    between atoms: O2_4  and  C3_5 
REMARK    4  A    between atoms: C4_6  and  O3_7 
REMARK    5  A    between atoms: C5_9  and  O4_10 
REMARK    6  A    between atoms: C6_12  and  O5_13 
REMARK    7  A    between atoms: O5_13  and  C7_14 
REMARK    8  A    between atoms: C9_17  and  O7_18 
REMARK    9  A    between atoms: C10_20  and  O8_21 
REMARK   10  A    between atoms: C12_23  and  O9_24 
REMARK   11  A    between atoms: O9_24  and  C13_25 
REMARK   12  A    between atoms: C13_25  and  C14_27 
REMARK   13  A    between atoms: C18_31  and  O11_32 
REMARK   14  A    between atoms: O11_32  and  C19_33 
REMARK   15  A    between atoms: C21_36  and  O13_37 
REMARK   16  A    between atoms: C22_39  and  O14_40 
REMARK   17  A    between atoms: C23_42  and  O15_43 
REMARK   18  A    between atoms: C24_45  and  O16_46 
ROOT
HETATM    1  C3  UNL     1      40.307   1.349  17.332  1.00  0.00     0.186 C 
HETATM    2  C4  UNL     1      39.904   0.106  16.676  1.00  0.00     0.181 C 
HETATM    3  C5  UNL     1      40.297   0.139  15.189  1.00  0.00     0.181 C 
HETATM    4  C6  UNL     1      39.344   1.198  14.625  1.00  0.00     0.187 C 
HETATM    5  C18 UNL     1      39.866   2.510  15.100  1.00  0.00     0.187 C 
HETATM    6  C24 UNL     1      40.466   2.549  16.443  1.00  0.00     0.181 C 
ENDROOT
BRANCH   4   7
HETATM    7  O5  UNL     1      39.293   1.087  13.263  1.00  0.00    -0.348 OA
BRANCH   7   8
HETATM    8  C7  UNL     1      38.166   0.345  12.926  1.00  0.00     0.292 C 
HETATM    9  O6  UNL     1      37.357   1.252  12.191  1.00  0.00    -0.356 OA
HETATM   10  C8  UNL     1      36.076   0.772  12.019  1.00  0.00     0.205 C 
HETATM   11  C9  UNL     1      36.186  -0.403  11.043  1.00  0.00     0.173 C 
HETATM   12  C10 UNL     1      37.046  -1.438  11.723  1.00  0.00     0.185 C 
HETATM   13  C12 UNL     1      38.400  -0.816  12.038  1.00  0.00     0.218 C 
BRANCH  11  14
HETATM   14  O7  UNL     1      34.911  -0.857  10.792  1.00  0.00    -0.391 OA
ATOM     15  H7  UNL     1      34.795  -0.884   9.849  1.00  0.00     0.210 HD
ENDBRANCH  11  14
BRANCH  12  16
HETATM   16  O8  UNL     1      36.387  -1.883  12.853  1.00  0.00    -0.385 OA
HETATM   17  C11 UNL     1      36.179  -3.263  12.845  1.00  0.00     0.202 C 
ENDBRANCH  12  16
BRANCH  13  18
HETATM   18  O9  UNL     1      39.214  -1.836  12.525  1.00  0.00    -0.308 OA
BRANCH  18  19
HETATM   19  C13 UNL     1      40.451  -2.053  11.955  1.00  0.00     0.267 C 
HETATM   20  O10 UNL     1      40.843  -1.237  11.069  1.00  0.00    -0.264 OA
BRANCH  19  21
HETATM   21  C14 UNL     1      41.361  -3.170  12.294  1.00  0.00     0.037 C 
HETATM   22  C15 UNL     1      40.616  -4.506  12.278  1.00  0.00     0.025 C 
HETATM   23  C16 UNL     1      41.889  -2.957  13.682  1.00  0.00     0.025 C 
HETATM   24  C17 UNL     1      42.478  -3.308  11.289  1.00  0.00     0.025 C 
ENDBRANCH  19  21
ENDBRANCH  18  19
ENDBRANCH  13  18
ENDBRANCH   7   8
ENDBRANCH   4   7
BRANCH   3  25
HETATM   25  O4  UNL     1      41.614   0.582  15.143  1.00  0.00    -0.390 OA
ATOM     26  H4  UNL     1      41.793   0.976  15.989  1.00  0.00     0.210 HD
ENDBRANCH   3  25
BRANCH   5  27
HETATM   27  O11 UNL     1      40.775   2.978  14.139  1.00  0.00    -0.348 OA
BRANCH  27  28
HETATM   28  C19 UNL     1      40.506   4.249  13.682  1.00  0.00     0.291 C 
HETATM   29  O12 UNL     1      39.513   4.921  14.339  1.00  0.00    -0.356 OA
HETATM   30  C20 UNL     1      39.591   6.256  14.086  1.00  0.00     0.205 C 
HETATM   31  C21 UNL     1      40.166   6.681  12.795  1.00  0.00     0.173 C 
HETATM   32  C22 UNL     1      40.287   5.662  11.736  1.00  0.00     0.182 C 
HETATM   33  C23 UNL     1      40.090   4.240  12.206  1.00  0.00     0.204 C 
BRANCH  31  34
HETATM   34  O13 UNL     1      41.456   7.202  13.053  1.00  0.00    -0.391 OA
ATOM     35  H13 UNL     1      41.373   8.145  13.130  1.00  0.00     0.210 HD
ENDBRANCH  31  34
BRANCH  32  36
HETATM   36  O14 UNL     1      39.374   5.931  10.686  1.00  0.00    -0.390 OA
ATOM     37  H14 UNL     1      38.563   6.281  11.036  1.00  0.00     0.210 HD
ENDBRANCH  32  36
BRANCH  33  38
HETATM   38  O15 UNL     1      38.734   3.977  12.166  1.00  0.00    -0.388 OA
ATOM     39  H15 UNL     1      38.566   3.270  12.779  1.00  0.00     0.210 HD
ENDBRANCH  33  38
ENDBRANCH  27  28
ENDBRANCH   5  27
BRANCH   2  40
HETATM   40  O3  UNL     1      38.535  -0.162  16.748  1.00  0.00    -0.390 OA
ATOM     41  H3  UNL     1      38.067  -0.026  15.932  1.00  0.00     0.210 HD
ENDBRANCH   2  40
BRANCH   6  42
HETATM   42  O16 UNL     1      40.015   3.715  17.106  1.00  0.00    -0.390 OA
ATOM     43  H16 UNL     1      39.219   4.037  16.701  1.00  0.00     0.210 HD
ENDBRANCH   6  42
BRANCH   1  44
HETATM   44  O2  UNL     1      39.387   1.709  18.314  1.00  0.00    -0.356 OA
BRANCH  44  45
HETATM   45  C2  UNL     1      39.863   1.716  19.591  1.00  0.00     0.337 C 
BRANCH  45  46
HETATM   46  O1  UNL     1      40.014   2.908  20.231  1.00  0.00    -0.372 OA
HETATM   47  C1  UNL     1      38.890   3.670  20.362  1.00  0.00     0.204 C 
ENDBRANCH  45  46
ENDBRANCH  44  45
ENDBRANCH   1  44
TORSDOF 18
ENDMDL
MODEL 4
REMARK VINA RESULT: -5.854675164      3.147      9.079
REMARK  18 active torsions:
REMARK  status: ('A' for Active; 'I' for Inactive)
REMARK    1  A    between atoms: O1_2  and  C2_3 
REMARK    2  A    between atoms: C2_3  and  O2_4 
REMARK    3  A    between atoms: O2_4  and  C3_5 
REMARK    4  A    between atoms: C4_6  and  O3_7 
REMARK    5  A    between atoms: C5_9  and  O4_10 
REMARK    6  A    between atoms: C6_12  and  O5_13 
REMARK    7  A    between atoms: O5_13  and  C7_14 
REMARK    8  A    between atoms: C9_17  and  O7_18 
REMARK    9  A    between atoms: C10_20  and  O8_21 
REMARK   10  A    between atoms: C12_23  and  O9_24 
REMARK   11  A    between atoms: O9_24  and  C13_25 
REMARK   12  A    between atoms: C13_25  and  C14_27 
REMARK   13  A    between atoms: C18_31  and  O11_32 
REMARK   14  A    between atoms: O11_32  and  C19_33 
REMARK   15  A    between atoms: C21_36  and  O13_37 
REMARK   16  A    between atoms: C22_39  and  O14_40 
REMARK   17  A    between atoms: C23_42  and  O15_43 
REMARK   18  A    between atoms: C24_45  and  O16_46 
ROOT
HETATM    1  C3  UNL     1      38.979   5.028  13.314  1.00  0.00     0.186 C 
HETATM    2  C4  UNL     1      37.882   4.065  13.406  1.00  0.00     0.181 C 
HETATM    3  C5  UNL     1      38.418   2.690  13.838  1.00  0.00     0.181 C 
HETATM    4  C6  UNL     1      39.213   2.250  12.604  1.00  0.00     0.187 C 
HETATM    5  C18 UNL     1      40.458   3.068  12.608  1.00  0.00     0.187 C 
HETATM    6  C24 UNL     1      40.349   4.456  13.088  1.00  0.00     0.181 C 
ENDROOT
BRANCH   4   7
HETATM    7  O5  UNL     1      39.441   0.902  12.665  1.00  0.00    -0.348 OA
BRANCH   7   8
HETATM    8  C7  UNL     1      38.221   0.246  12.540  1.00  0.00     0.292 C 
HETATM    9  O6  UNL     1      37.583   0.897  11.452  1.00  0.00    -0.356 OA
HETATM   10  C8  UNL     1      36.248   0.564  11.366  1.00  0.00     0.205 C 
HETATM   11  C9  UNL     1      36.199  -0.900  10.920  1.00  0.00     0.173 C 
HETATM   12  C10 UNL     1      36.869  -1.697  12.012  1.00  0.00     0.185 C 
HETATM   13  C12 UNL     1      38.295  -1.189  12.180  1.00  0.00     0.218 C 
BRANCH  11  14
HETATM   14  O7  UNL     1      34.876  -1.241  10.753  1.00  0.00    -0.391 OA
ATOM     15  H7  UNL     1      34.844  -2.156  10.498  1.00  0.00     0.210 HD
ENDBRANCH  11  14
BRANCH  12  16
HETATM   16  O8  UNL     1      36.120  -1.578  13.166  1.00  0.00    -0.385 OA
HETATM   17  C11 UNL     1      35.606  -2.800  13.602  1.00  0.00     0.202 C 
ENDBRANCH  12  16
BRANCH  13  18
HETATM   18  O9  UNL     1      38.927  -2.039  13.084  1.00  0.00    -0.308 OA
BRANCH  18  19
HETATM   19  C13 UNL     1      39.775  -3.022  12.617  1.00  0.00     0.267 C 
HETATM   20  O10 UNL     1      40.700  -2.675  11.826  1.00  0.00    -0.264 OA
BRANCH  19  21
HETATM   21  C14 UNL     1      39.688  -4.457  12.966  1.00  0.00     0.037 C 
HETATM   22  C15 UNL     1      38.344  -5.045  12.536  1.00  0.00     0.025 C 
HETATM   23  C16 UNL     1      39.793  -4.599  14.457  1.00  0.00     0.025 C 
HETATM   24  C17 UNL     1      40.741  -5.272  12.255  1.00  0.00     0.025 C 
ENDBRANCH  19  21
ENDBRANCH  18  19
ENDBRANCH  13  18
ENDBRANCH   7   8
ENDBRANCH   4   7
BRANCH   3  25
HETATM   25  O4  UNL     1      39.264   2.921  14.917  1.00  0.00    -0.390 OA
ATOM     26  H4  UNL     1      40.088   3.221  14.550  1.00  0.00     0.210 HD
ENDBRANCH   3  25
BRANCH   5  27
HETATM   27  O11 UNL     1      41.425   2.366  13.343  1.00  0.00    -0.348 OA
BRANCH  27  28
HETATM   28  C19 UNL     1      42.475   1.895  12.587  1.00  0.00     0.291 C 
HETATM   29  O12 UNL     1      42.244   1.799  11.242  1.00  0.00    -0.356 OA
HETATM   30  C20 UNL     1      43.419   1.708  10.561  1.00  0.00     0.205 C 
HETATM   31  C21 UNL     1      44.570   1.094  11.251  1.00  0.00     0.173 C 
HETATM   32  C22 UNL     1      44.295   0.312  12.470  1.00  0.00     0.182 C 
HETATM   33  C23 UNL     1      42.903   0.492  13.031  1.00  0.00     0.204 C 
BRANCH  31  34
HETATM   34  O13 UNL     1      45.469   2.133  11.589  1.00  0.00    -0.391 OA
ATOM     35  H13 UNL     1      45.491   2.741  10.860  1.00  0.00     0.210 HD
ENDBRANCH  31  34
BRANCH  32  36
HETATM   36  O14 UNL     1      44.522  -1.066  12.233  1.00  0.00    -0.390 OA
ATOM     37  H14 UNL     1      43.889  -1.403  11.609  1.00  0.00     0.210 HD
ENDBRANCH  32  36
BRANCH  33  38
HETATM   38  O15 UNL     1      42.079  -0.411  12.386  1.00  0.00    -0.388 OA
ATOM     39  H15 UNL     1      41.459  -0.735  13.029  1.00  0.00     0.210 HD
ENDBRANCH  33  38
ENDBRANCH  27  28
ENDBRANCH   5  27
BRANCH   2  40
HETATM   40  O3  UNL     1      37.172   3.890  12.216  1.00  0.00    -0.390 OA
ATOM     41  H3  UNL     1      36.475   3.247  12.269  1.00  0.00     0.210 HD
ENDBRANCH   2  40
BRANCH   6  42
HETATM   42  O16 UNL     1      41.094   5.292  12.224  1.00  0.00    -0.390 OA
ATOM     43  H16 UNL     1      41.865   4.836  11.906  1.00  0.00     0.210 HD
ENDBRANCH   6  42
BRANCH   1  44
HETATM   44  O2  UNL     1      38.756   5.931  12.278  1.00  0.00    -0.356 OA
BRANCH  44  45
HETATM   45  C2  UNL     1      38.526   7.219  12.660  1.00  0.00     0.337 C 
BRANCH  45  46
HETATM   46  O1  UNL     1      37.259   7.593  12.988  1.00  0.00    -0.372 OA
HETATM   47  C1  UNL     1      37.128   8.375  14.099  1.00  0.00     0.204 C 
ENDBRANCH  45  46
ENDBRANCH  44  45
ENDBRANCH   1  44
TORSDOF 18
ENDMDL
MODEL 5
REMARK VINA RESULT: -5.843342314      3.735      8.152
REMARK  18 active torsions:
REMARK  status: ('A' for Active; 'I' for Inactive)
REMARK    1  A    between atoms: O1_2  and  C2_3 
REMARK    2  A    between atoms: C2_3  and  O2_4 
REMARK    3  A    between atoms: O2_4  and  C3_5 
REMARK    4  A    between atoms: C4_6  and  O3_7 
REMARK    5  A    between atoms: C5_9  and  O4_10 
REMARK    6  A    between atoms: C6_12  and  O5_13 
REMARK    7  A    between atoms: O5_13  and  C7_14 
REMARK    8  A    between atoms: C9_17  and  O7_18 
REMARK    9  A    between atoms: C10_20  and  O8_21 
REMARK   10  A    between atoms: C12_23  and  O9_24 
REMARK   11  A    between atoms: O9_24  and  C13_25 
REMARK   12  A    between atoms: C13_25  and  C14_27 
REMARK   13  A    between atoms: C18_31  and  O11_32 
REMARK   14  A    between atoms: O11_32  and  C19_33 
REMARK   15  A    between atoms: C21_36  and  O13_37 
REMARK   16  A    between atoms: C22_39  and  O14_40 
REMARK   17  A    between atoms: C23_42  and  O15_43 
REMARK   18  A    between atoms: C24_45  and  O16_46 
ROOT
HETATM    1  C3  UNL     1      37.874   5.449  13.482  1.00  0.00     0.186 C 
HETATM    2  C4  UNL     1      39.206   5.559  14.074  1.00  0.00     0.181 C 
HETATM    3  C5  UNL     1      40.108   4.421  13.568  1.00  0.00     0.181 C 
HETATM    4  C6  UNL     1      39.488   3.192  14.241  1.00  0.00     0.187 C 
HETATM    5  C18 UNL     1      38.223   2.919  13.504  1.00  0.00     0.187 C 
HETATM    6  C24 UNL     1      37.464   4.081  13.015  1.00  0.00     0.181 C 
ENDROOT
BRANCH   4   7
HETATM    7  O5  UNL     1      40.380   2.155  14.207  1.00  0.00    -0.348 OA
BRANCH   7   8
HETATM    8  C7  UNL     1      40.691   1.802  15.515  1.00  0.00     0.292 C 
HETATM    9  O6  UNL     1      40.119   2.836  16.302  1.00  0.00    -0.356 OA
HETATM   10  C8  UNL     1      40.570   2.799  17.604  1.00  0.00     0.205 C 
HETATM   11  C9  UNL     1      39.950   1.550  18.238  1.00  0.00     0.173 C 
HETATM   12  C10 UNL     1      40.487   0.372  17.463  1.00  0.00     0.185 C 
HETATM   13  C12 UNL     1      40.098   0.534  15.999  1.00  0.00     0.218 C 
BRANCH  11  14
HETATM   14  O7  UNL     1      40.323   1.526  19.563  1.00  0.00    -0.391 OA
ATOM     15  H7  UNL     1      40.397   0.615  19.824  1.00  0.00     0.210 HD
ENDBRANCH  11  14
BRANCH  12  16
HETATM   16  O8  UNL     1      41.853   0.310  17.650  1.00  0.00    -0.385 OA
HETATM   17  C11 UNL     1      42.263  -0.893  18.228  1.00  0.00     0.202 C 
ENDBRANCH  12  16
BRANCH  13  18
HETATM   18  O9  UNL     1      40.476  -0.636  15.346  1.00  0.00    -0.308 OA
BRANCH  18  19
HETATM   19  C13 UNL     1      39.721  -1.779  15.501  1.00  0.00     0.267 C 
HETATM   20  O10 UNL     1      38.478  -1.641  15.703  1.00  0.00    -0.264 OA
BRANCH  19  21
HETATM   21  C14 UNL     1      40.248  -3.161  15.454  1.00  0.00     0.037 C 
HETATM   22  C15 UNL     1      41.655  -3.190  14.854  1.00  0.00     0.025 C 
HETATM   23  C16 UNL     1      39.358  -3.987  14.573  1.00  0.00     0.025 C 
HETATM   24  C17 UNL     1      40.376  -3.760  16.834  1.00  0.00     0.025 C 
ENDBRANCH  19  21
ENDBRANCH  18  19
ENDBRANCH  13  18
ENDBRANCH   7   8
ENDBRANCH   4   7
BRANCH   3  25
HETATM   25  O4  UNL     1      39.936   4.371  12.189  1.00  0.00    -0.390 OA
ATOM     26  H4  UNL     1      40.722   3.970  11.837  1.00  0.00     0.210 HD
ENDBRANCH   3  25
BRANCH   5  27
HETATM   27  O11 UNL     1      38.527   2.047  12.447  1.00  0.00    -0.348 OA
BRANCH  27  28
HETATM   28  C19 UNL     1      37.777   0.892  12.437  1.00  0.00     0.291 C 
HETATM   29  O12 UNL     1      38.413  -0.226  11.972  1.00  0.00    -0.356 OA
HETATM   30  C20 UNL     1      37.750  -1.350  12.359  1.00  0.00     0.205 C 
HETATM   31  C21 UNL     1      36.292  -1.252  12.568  1.00  0.00     0.173 C 
HETATM   32  C22 UNL     1      35.603  -0.071  12.016  1.00  0.00     0.182 C 
HETATM   33  C23 UNL     1      36.523   1.041  11.569  1.00  0.00     0.204 C 
BRANCH  31  34
HETATM   34  O13 UNL     1      36.058  -1.284  13.963  1.00  0.00    -0.391 OA
ATOM     35  H13 UNL     1      35.117  -1.291  14.096  1.00  0.00     0.210 HD
ENDBRANCH  31  34
BRANCH  32  36
HETATM   36  O14 UNL     1      34.774  -0.447  10.930  1.00  0.00    -0.390 OA
ATOM     37  H14 UNL     1      34.632   0.293  10.351  1.00  0.00     0.210 HD
ENDBRANCH  32  36
BRANCH  33  38
HETATM   38  O15 UNL     1      36.894   0.772  10.265  1.00  0.00    -0.388 OA
ATOM     39  H15 UNL     1      36.437   1.392   9.709  1.00  0.00     0.210 HD
ENDBRANCH  33  38
ENDBRANCH  27  28
ENDBRANCH   5  27
BRANCH   2  40
HETATM   40  O3  UNL     1      39.217   5.521  15.471  1.00  0.00    -0.390 OA
ATOM     41  H3  UNL     1      39.455   4.677  15.836  1.00  0.00     0.210 HD
ENDBRANCH   2  40
BRANCH   6  42
HETATM   42  O16 UNL     1      36.090   3.865  13.272  1.00  0.00    -0.390 OA
ATOM     43  H16 UNL     1      35.950   2.983  13.596  1.00  0.00     0.210 HD
ENDBRANCH   6  42
BRANCH   1  44
HETATM   44  O2  UNL     1      36.897   5.863  14.384  1.00  0.00    -0.356 OA
BRANCH  44  45
HETATM   45  C2  UNL     1      36.177   6.959  14.010  1.00  0.00     0.337 C 
BRANCH  45  46
HETATM   46  O1  UNL     1      35.228   6.825  13.044  1.00  0.00    -0.372 OA
HETATM   47  C1  UNL     1      34.639   7.977  12.610  1.00  0.00     0.204 C 
ENDBRANCH  45  46
ENDBRANCH  44  45
ENDBRANCH   1  44
TORSDOF 18
ENDMDL
