MODEL 1
REMARK VINA RESULT: -5.067354009      0.000      0.000
REMARK  6 active torsions:
REMARK  status: ('A' for Active; 'I' for Inactive)
REMARK    1  A    between atoms: C2_2  and  C4_4 
REMARK    2  A    between atoms: C6_6  and  C7_7 
REMARK    3  A    between atoms: C7_7  and  O1_8 
REMARK    4  A    between atoms: C8_10  and  C9_11 
REMARK    5  A    between atoms: C12_14  and  O2_15 
REMARK    6  A    between atoms: C13_17  and  O3_18 
ROOT
HETATM    1  C4  UNL     1     -40.692  17.819  15.445  1.00  0.00     0.021 C 
HETATM    2  C5  UNL     1     -40.854  16.361  15.748  1.00  0.00     0.014 C 
HETATM    3  C6  UNL     1     -39.519  15.659  15.937  1.00  0.00     0.016 C 
HETATM    4  C8  UNL     1     -38.482  16.171  15.037  1.00  0.00     0.026 C 
HETATM    5  C12 UNL     1     -39.068  16.872  13.805  1.00  0.00     0.152 C 
HETATM    6  C13 UNL     1     -39.743  18.122  14.336  1.00  0.00     0.151 C 
ENDROOT
BRANCH   1   7
HETATM    7  C2  UNL     1     -42.057  18.424  15.247  1.00  0.00    -0.016 C 
HETATM    8  C1  UNL     1     -42.378  18.687  13.804  1.00  0.00     0.010 C 
HETATM    9  C3  UNL     1     -42.226  19.728  15.992  1.00  0.00     0.010 C 
ENDBRANCH   1   7
BRANCH   6  10
HETATM   10  O3  UNL     1     -38.692  18.976  14.748  1.00  0.00    -0.393 OA
ATOM     11  H3  UNL     1     -38.574  19.711  14.158  1.00  0.00     0.210 HD
ENDBRANCH   6  10
BRANCH   3  12
HETATM   12  C7  UNL     1     -39.787  14.182  15.893  1.00  0.00     0.169 C 
BRANCH  12  13
HETATM   13  O1  UNL     1     -40.631  13.780  14.899  1.00  0.00    -0.400 OA
ATOM     14  H1  UNL     1     -40.206  13.546  14.082  1.00  0.00     0.209 HD
ENDBRANCH  12  13
ENDBRANCH   3  12
BRANCH   5  15
HETATM   15  O2  UNL     1     -39.902  16.063  13.082  1.00  0.00    -0.393 OA
ATOM     16  H2  UNL     1     -40.086  16.405  12.215  1.00  0.00     0.210 HD
ENDBRANCH   5  15
BRANCH   4  17
HETATM   17  C9  UNL     1     -37.399  15.216  14.639  1.00  0.00    -0.016 C 
HETATM   18  C10 UNL     1     -36.977  15.602  13.213  1.00  0.00     0.010 C 
HETATM   19  C11 UNL     1     -36.191  15.455  15.510  1.00  0.00     0.010 C 
ENDBRANCH   4  17
TORSDOF 6
ENDMDL
MODEL 2
REMARK VINA RESULT: -4.860065121      1.754      4.880
REMARK  6 active torsions:
REMARK  status: ('A' for Active; 'I' for Inactive)
REMARK    1  A    between atoms: C2_2  and  C4_4 
REMARK    2  A    between atoms: C6_6  and  C7_7 
REMARK    3  A    between atoms: C7_7  and  O1_8 
REMARK    4  A    between atoms: C8_10  and  C9_11 
REMARK    5  A    between atoms: C12_14  and  O2_15 
REMARK    6  A    between atoms: C13_17  and  O3_18 
ROOT
HETATM    1  C4  UNL     1     -38.713  16.998  15.313  1.00  0.00     0.021 C 
HETATM    2  C5  UNL     1     -39.697  17.704  14.433  1.00  0.00     0.014 C 
HETATM    3  C6  UNL     1     -40.784  18.407  15.228  1.00  0.00     0.016 C 
HETATM    4  C8  UNL     1     -41.186  17.653  16.420  1.00  0.00     0.026 C 
HETATM    5  C12 UNL     1     -40.840  16.162  16.314  1.00  0.00     0.152 C 
HETATM    6  C13 UNL     1     -39.325  16.098  16.332  1.00  0.00     0.151 C 
ENDROOT
BRANCH   1   7
HETATM    7  C2  UNL     1     -37.694  16.311  14.443  1.00  0.00    -0.016 C 
HETATM    8  C1  UNL     1     -38.214  15.050  13.814  1.00  0.00     0.010 C 
HETATM    9  C3  UNL     1     -36.435  15.952  15.199  1.00  0.00     0.010 C 
ENDBRANCH   1   7
BRANCH   6  10
HETATM   10  O3  UNL     1     -38.946  16.445  17.651  1.00  0.00    -0.393 OA
ATOM     11  H3  UNL     1     -38.076  16.130  17.871  1.00  0.00     0.210 HD
ENDBRANCH   6  10
BRANCH   3  12
HETATM   12  C7  UNL     1     -41.871  18.776  14.260  1.00  0.00     0.169 C 
BRANCH  12  13
HETATM   13  O1  UNL     1     -42.185  17.807  13.351  1.00  0.00    -0.400 OA
ATOM     14  H1  UNL     1     -42.850  18.052  12.718  1.00  0.00     0.209 HD
ENDBRANCH  12  13
ENDBRANCH   3  12
BRANCH   5  15
HETATM   15  O2  UNL     1     -41.402  15.564  15.219  1.00  0.00    -0.393 OA
ATOM     16  H2  UNL     1     -40.937  14.781  14.949  1.00  0.00     0.210 HD
ENDBRANCH   5  15
BRANCH   4  17
HETATM   17  C9  UNL     1     -42.594  17.838  16.896  1.00  0.00    -0.016 C 
HETATM   18  C10 UNL     1     -42.825  16.792  17.997  1.00  0.00     0.010 C 
HETATM   19  C11 UNL     1     -42.709  19.183  17.568  1.00  0.00     0.010 C 
ENDBRANCH   4  17
TORSDOF 6
ENDMDL
MODEL 3
REMARK VINA RESULT: -4.621285524      1.117      1.374
REMARK  6 active torsions:
REMARK  status: ('A' for Active; 'I' for Inactive)
REMARK    1  A    between atoms: C2_2  and  C4_4 
REMARK    2  A    between atoms: C6_6  and  C7_7 
REMARK    3  A    between atoms: C7_7  and  O1_8 
REMARK    4  A    between atoms: C8_10  and  C9_11 
REMARK    5  A    between atoms: C12_14  and  O2_15 
REMARK    6  A    between atoms: C13_17  and  O3_18 
ROOT
HETATM    1  C4  UNL     1     -40.655  17.735  15.496  1.00  0.00     0.021 C 
HETATM    2  C5  UNL     1     -40.406  16.661  16.509  1.00  0.00     0.014 C 
HETATM    3  C6  UNL     1     -38.948  16.238  16.557  1.00  0.00     0.016 C 
HETATM    4  C8  UNL     1     -38.318  16.239  15.233  1.00  0.00     0.026 C 
HETATM    5  C12 UNL     1     -39.344  16.139  14.096  1.00  0.00     0.152 C 
HETATM    6  C13 UNL     1     -40.117  17.444  14.137  1.00  0.00     0.151 C 
ENDROOT
BRANCH   1   7
HETATM    7  C2  UNL     1     -42.123  18.070  15.499  1.00  0.00    -0.016 C 
HETATM    8  C1  UNL     1     -42.983  16.936  15.980  1.00  0.00     0.010 C 
HETATM    9  C3  UNL     1     -42.629  18.471  14.132  1.00  0.00     0.010 C 
ENDBRANCH   1   7
BRANCH   6  10
HETATM   10  O3  UNL     1     -39.211  18.436  13.695  1.00  0.00    -0.393 OA
ATOM     11  H3  UNL     1     -38.868  18.251  12.828  1.00  0.00     0.210 HD
ENDBRANCH   6  10
BRANCH   3  12
HETATM   12  C7  UNL     1     -38.885  14.956  17.338  1.00  0.00     0.169 C 
BRANCH  12  13
HETATM   13  O1  UNL     1     -39.847  14.041  17.019  1.00  0.00    -0.400 OA
ATOM     14  H1  UNL     1     -40.722  14.258  17.319  1.00  0.00     0.209 HD
ENDBRANCH  12  13
ENDBRANCH   3  12
BRANCH   5  15
HETATM   15  O2  UNL     1     -40.137  15.028  14.194  1.00  0.00    -0.393 OA
ATOM     16  H2  UNL     1     -40.167  14.674  15.074  1.00  0.00     0.210 HD
ENDBRANCH   5  15
BRANCH   4  17
HETATM   17  C9  UNL     1     -37.193  15.274  15.018  1.00  0.00    -0.016 C 
HETATM   18  C10 UNL     1     -36.912  15.260  13.507  1.00  0.00     0.010 C 
HETATM   19  C11 UNL     1     -35.948  15.824  15.667  1.00  0.00     0.010 C 
ENDBRANCH   4  17
TORSDOF 6
ENDMDL
MODEL 4
REMARK VINA RESULT: -4.611169527      1.164      1.341
REMARK  6 active torsions:
REMARK  status: ('A' for Active; 'I' for Inactive)
REMARK    1  A    between atoms: C2_2  and  C4_4 
REMARK    2  A    between atoms: C6_6  and  C7_7 
REMARK    3  A    between atoms: C7_7  and  O1_8 
REMARK    4  A    between atoms: C8_10  and  C9_11 
REMARK    5  A    between atoms: C12_14  and  O2_15 
REMARK    6  A    between atoms: C13_17  and  O3_18 
ROOT
HETATM    1  C4  UNL     1     -40.522  17.785  15.621  1.00  0.00     0.021 C 
HETATM    2  C5  UNL     1     -40.221  16.713  16.623  1.00  0.00     0.014 C 
HETATM    3  C6  UNL     1     -38.779  16.239  16.545  1.00  0.00     0.016 C 
HETATM    4  C8  UNL     1     -38.272  16.203  15.170  1.00  0.00     0.026 C 
HETATM    5  C12 UNL     1     -39.399  16.128  14.131  1.00  0.00     0.152 C 
HETATM    6  C13 UNL     1     -40.120  17.460  14.223  1.00  0.00     0.151 C 
ENDROOT
BRANCH   1   7
HETATM    7  C2  UNL     1     -41.971  18.173  15.752  1.00  0.00    -0.016 C 
HETATM    8  C1  UNL     1     -42.191  19.657  15.685  1.00  0.00     0.010 C 
HETATM    9  C3  UNL     1     -42.588  17.683  17.042  1.00  0.00     0.010 C 
ENDBRANCH   1   7
BRANCH   6  10
HETATM   10  O3  UNL     1     -39.223  18.415  13.688  1.00  0.00    -0.393 OA
ATOM     11  H3  UNL     1     -38.837  18.127  12.868  1.00  0.00     0.210 HD
ENDBRANCH   6  10
BRANCH   3  12
HETATM   12  C7  UNL     1     -38.691  14.964  17.334  1.00  0.00     0.169 C 
BRANCH  12  13
HETATM   13  O1  UNL     1     -39.708  14.080  17.115  1.00  0.00    -0.400 OA
ATOM     14  H1  UNL     1     -39.469  13.311  16.611  1.00  0.00     0.209 HD
ENDBRANCH  12  13
ENDBRANCH   3  12
BRANCH   5  15
HETATM   15  O2  UNL     1     -40.218  15.047  14.315  1.00  0.00    -0.393 OA
ATOM     16  H2  UNL     1     -41.118  15.294  14.493  1.00  0.00     0.210 HD
ENDBRANCH   5  15
BRANCH   4  17
HETATM   17  C9  UNL     1     -37.205  15.196  14.867  1.00  0.00    -0.016 C 
HETATM   18  C10 UNL     1     -36.990  15.230  13.346  1.00  0.00     0.010 C 
HETATM   19  C11 UNL     1     -35.908  15.660  15.481  1.00  0.00     0.010 C 
ENDBRANCH   4  17
TORSDOF 6
ENDMDL
MODEL 5
REMARK VINA RESULT: -4.608102081      1.974      4.560
REMARK  6 active torsions:
REMARK  status: ('A' for Active; 'I' for Inactive)
REMARK    1  A    between atoms: C2_2  and  C4_4 
REMARK    2  A    between atoms: C6_6  and  C7_7 
REMARK    3  A    between atoms: C7_7  and  O1_8 
REMARK    4  A    between atoms: C8_10  and  C9_11 
REMARK    5  A    between atoms: C12_14  and  O2_15 
REMARK    6  A    between atoms: C13_17  and  O3_18 
ROOT
HETATM    1  C4  UNL     1     -38.725  15.391  14.138  1.00  0.00     0.021 C 
HETATM    2  C5  UNL     1     -38.755  14.255  15.115  1.00  0.00     0.014 C 
HETATM    3  C6  UNL     1     -40.150  13.996  15.657  1.00  0.00     0.016 C 
HETATM    4  C8  UNL     1     -40.915  15.231  15.855  1.00  0.00     0.026 C 
HETATM    5  C12 UNL     1     -40.012  16.465  15.987  1.00  0.00     0.152 C 
HETATM    6  C13 UNL     1     -39.373  16.643  14.622  1.00  0.00     0.151 C 
ENDROOT
BRANCH   1   7
HETATM    7  C2  UNL     1     -37.306  15.592  13.677  1.00  0.00    -0.016 C 
HETATM    8  C1  UNL     1     -36.749  14.400  12.952  1.00  0.00     0.010 C 
HETATM    9  C3  UNL     1     -36.364  15.906  14.817  1.00  0.00     0.010 C 
ENDBRANCH   1   7
BRANCH   6  10
HETATM   10  O3  UNL     1     -40.417  17.071  13.767  1.00  0.00    -0.393 OA
ATOM     11  H3  UNL     1     -40.089  17.418  12.945  1.00  0.00     0.210 HD
ENDBRANCH   6  10
BRANCH   3  12
HETATM   12  C7  UNL     1     -40.000  13.092  16.847  1.00  0.00     0.169 C 
BRANCH  12  13
HETATM   13  O1  UNL     1     -38.931  13.369  17.648  1.00  0.00    -0.400 OA
ATOM     14  H1  UNL     1     -38.132  12.905  17.425  1.00  0.00     0.209 HD
ENDBRANCH  12  13
ENDBRANCH   3  12
BRANCH   5  15
HETATM   15  O2  UNL     1     -39.107  16.353  17.006  1.00  0.00    -0.393 OA
ATOM     16  H2  UNL     1     -38.955  17.176  17.455  1.00  0.00     0.210 HD
ENDBRANCH   5  15
BRANCH   4  17
HETATM   17  C9  UNL     1     -41.955  15.218  16.933  1.00  0.00    -0.016 C 
HETATM   18  C10 UNL     1     -42.362  16.681  17.166  1.00  0.00     0.010 C 
HETATM   19  C11 UNL     1     -43.187  14.521  16.414  1.00  0.00     0.010 C 
ENDBRANCH   4  17
TORSDOF 6
ENDMDL
