MODEL 1
REMARK VINA RESULT: -9.169452832      0.000      0.000
REMARK  10 active torsions:
REMARK  status: ('A' for Active; 'I' for Inactive)
REMARK    1  A    between atoms: C2_2  and  C3_3 
REMARK    2  A    between atoms: C3_3  and  C4_4 
REMARK    3  A    between atoms: C4_4  and  C5_5 
REMARK    4  A    between atoms: C4_4  and  S1_26 
REMARK    5  A    between atoms: C5_5  and  C6_6 
REMARK       I    between atoms: C6_6  and  N1_8 
REMARK    6  A    between atoms: N1_8  and  C7_10 
REMARK    7  A    between atoms: C8_13  and  N3_14 
REMARK    8  A    between atoms: C10_21  and  N6_22 
REMARK    9  A    between atoms: N6_22  and  O2_24 
REMARK   10  A    between atoms: S1_26  and  C11_29 
ROOT
HETATM    1  C6  UNL     1       3.066   3.854  19.322  1.00  0.00     0.224 C 
HETATM    2  O1  UNL     1       4.016   3.596  20.111  1.00  0.00    -0.273 OA
HETATM    3  N1  UNL     1       1.835   4.160  19.971  1.00  0.00    -0.311 N 
ATOM      4  H1  UNL     1       1.039   3.555  19.768  1.00  0.00     0.170 HD
ENDROOT
BRANCH   3   5
HETATM    5  C7  UNL     1       1.645   5.116  20.776  1.00  0.00     0.155 A 
HETATM    6  N2  UNL     1       2.628   5.807  21.377  1.00  0.00    -0.174 N 
HETATM    7  C8  UNL     1       2.370   6.819  22.229  1.00  0.00     0.678 A 
ATOM      8  H2  UNL     1       3.598   5.559  21.182  1.00  0.00     0.186 HD
HETATM    9  N4  UNL     1       1.110   7.171  22.505  1.00  0.00    -0.177 N 
HETATM   10  C9  UNL     1       0.075   6.534  21.949  1.00  0.00     0.164 A 
ATOM     11  H4  UNL     1       0.936   7.939  23.153  1.00  0.00     0.185 HD
HETATM   12  N5  UNL     1      -1.255   6.932  22.264  1.00  0.00    -0.080 NA
HETATM   13  C10 UNL     1       0.347   5.483  21.065  1.00  0.00     0.140 A 
BRANCH   7  14
HETATM   14  N3  UNL     1       3.352   7.449  22.778  1.00  0.00    -0.234 N 
ATOM     15  H32 UNL     1       4.240   7.542  22.285  1.00  0.00     0.174 HD
ATOM     16  H31 UNL     1       3.232   7.850  23.708  1.00  0.00     0.174 HD
ENDBRANCH   7  14
BRANCH  13  17
HETATM   17  N6  UNL     1      -0.772   4.822  20.487  1.00  0.00    -0.262 N 
ATOM     18  H6  UNL     1      -1.213   5.176  19.638  1.00  0.00     0.194 HD
BRANCH  17  19
HETATM   19  O2  UNL     1      -1.200   3.787  21.058  1.00  0.00    -0.289 OA
ATOM     20  H2  UNL     1      -1.641   3.137  20.524  1.00  0.00     0.244 HD
ENDBRANCH  17  19
ENDBRANCH  13  17
ENDBRANCH   3   5
BRANCH   1  21
HETATM   21  C5  UNL     1       3.268   3.827  17.892  1.00  0.00     0.123 C 
BRANCH  21  22
HETATM   22  C4  UNL     1       2.147   3.982  16.958  1.00  0.00     0.125 C 
BRANCH  22  23
HETATM   23  C3  UNL     1       1.643   5.336  16.637  1.00  0.00     0.047 C 
BRANCH  23  24
HETATM   24  C2  UNL     1       2.393   6.497  17.079  1.00  0.00    -0.036 C 
HETATM   25  C1  UNL     1       1.932   7.281  18.039  1.00  0.00     0.007 C 
ENDBRANCH  23  24
ENDBRANCH  22  23
BRANCH  22  26
HETATM   26  S1  UNL     1       2.287   2.952  15.502  1.00  0.00     0.181 S 
HETATM   27  O3  UNL     1       3.297   3.507  14.574  1.00  0.00    -0.222 OA
HETATM   28  O4  UNL     1       0.986   2.814  14.774  1.00  0.00    -0.222 OA
BRANCH  26  29
HETATM   29  C11 UNL     1       2.830   1.371  16.015  1.00  0.00     0.076 A 
HETATM   30  C12 UNL     1       2.462   0.696  17.155  1.00  0.00     0.111 A 
HETATM   31  N7  UNL     1       3.109  -0.488  17.169  1.00  0.00    -0.368 N 
HETATM   32  C13 UNL     1       3.893  -0.623  16.083  1.00  0.00     0.006 A 
ATOM     33  H7  UNL     1       3.017  -1.188  17.905  1.00  0.00     0.165 HD
HETATM   34  C14 UNL     1       4.775  -1.755  15.694  1.00  0.00     0.068 C 
HETATM   35  C15 UNL     1       3.715   0.550  15.357  1.00  0.00     0.049 A 
ENDBRANCH  26  29
ENDBRANCH  22  26
ENDBRANCH  21  22
ENDBRANCH   1  21
TORSDOF 10
ENDMDL
MODEL 2
REMARK VINA RESULT: -8.860475499      1.823      2.296
REMARK  10 active torsions:
REMARK  status: ('A' for Active; 'I' for Inactive)
REMARK    1  A    between atoms: C2_2  and  C3_3 
REMARK    2  A    between atoms: C3_3  and  C4_4 
REMARK    3  A    between atoms: C4_4  and  C5_5 
REMARK    4  A    between atoms: C4_4  and  S1_26 
REMARK    5  A    between atoms: C5_5  and  C6_6 
REMARK       I    between atoms: C6_6  and  N1_8 
REMARK    6  A    between atoms: N1_8  and  C7_10 
REMARK    7  A    between atoms: C8_13  and  N3_14 
REMARK    8  A    between atoms: C10_21  and  N6_22 
REMARK    9  A    between atoms: N6_22  and  O2_24 
REMARK   10  A    between atoms: S1_26  and  C11_29 
ROOT
HETATM    1  C6  UNL     1       3.205   3.473  18.990  1.00  0.00     0.224 C 
HETATM    2  O1  UNL     1       4.224   3.374  19.729  1.00  0.00    -0.273 OA
HETATM    3  N1  UNL     1       2.067   4.033  19.638  1.00  0.00    -0.311 N 
ATOM      4  H1  UNL     1       1.228   3.455  19.689  1.00  0.00     0.170 HD
ENDROOT
BRANCH   3   5
HETATM    5  C7  UNL     1       2.007   5.184  20.157  1.00  0.00     0.155 A 
HETATM    6  N2  UNL     1       1.687   6.303  19.485  1.00  0.00    -0.174 N 
HETATM    7  C8  UNL     1       1.638   7.508  20.087  1.00  0.00     0.678 A 
ATOM      8  H2  UNL     1       1.474   6.238  18.489  1.00  0.00     0.186 HD
HETATM    9  N4  UNL     1       1.910   7.628  21.391  1.00  0.00    -0.177 N 
HETATM   10  C9  UNL     1       2.237   6.564  22.132  1.00  0.00     0.164 A 
ATOM     11  H4  UNL     1       1.868   8.548  21.828  1.00  0.00     0.185 HD
HETATM   12  N5  UNL     1       2.521   6.724  23.517  1.00  0.00    -0.080 NA
HETATM   13  C10 UNL     1       2.287   5.314  21.502  1.00  0.00     0.140 A 
BRANCH   7  14
HETATM   14  N3  UNL     1       1.325   8.549  19.394  1.00  0.00    -0.234 N 
ATOM     15  H32 UNL     1       1.732   8.690  18.470  1.00  0.00     0.174 HD
ATOM     16  H31 UNL     1       0.669   9.228  19.780  1.00  0.00     0.174 HD
ENDBRANCH   7  14
BRANCH  13  17
HETATM   17  N6  UNL     1       2.637   4.199  22.312  1.00  0.00    -0.262 N 
ATOM     18  H6  UNL     1       1.921   3.628  22.762  1.00  0.00     0.194 HD
BRANCH  17  19
HETATM   19  O2  UNL     1       3.860   3.940  22.455  1.00  0.00    -0.289 OA
ATOM     20  H2  UNL     1       4.193   3.146  22.055  1.00  0.00     0.244 HD
ENDBRANCH  17  19
ENDBRANCH  13  17
ENDBRANCH   3   5
BRANCH   1  21
HETATM   21  C5  UNL     1       3.249   3.040  17.613  1.00  0.00     0.123 C 
BRANCH  21  22
HETATM   22  C4  UNL     1       2.202   3.422  16.658  1.00  0.00     0.125 C 
BRANCH  22  23
HETATM   23  C3  UNL     1       2.208   4.780  16.069  1.00  0.00     0.047 C 
BRANCH  23  24
HETATM   24  C2  UNL     1       3.462   5.503  15.962  1.00  0.00    -0.036 C 
HETATM   25  C1  UNL     1       4.211   5.413  14.876  1.00  0.00     0.007 C 
ENDBRANCH  23  24
ENDBRANCH  22  23
BRANCH  22  26
HETATM   26  S1  UNL     1       1.859   2.161  15.438  1.00  0.00     0.181 S 
HETATM   27  O3  UNL     1       2.018   2.707  14.072  1.00  0.00    -0.222 OA
HETATM   28  O4  UNL     1       0.478   1.597  15.574  1.00  0.00    -0.222 OA
BRANCH  26  29
HETATM   29  C11 UNL     1       3.028   0.878  15.650  1.00  0.00     0.076 A 
HETATM   30  C12 UNL     1       4.387   1.010  15.807  1.00  0.00     0.111 A 
HETATM   31  N7  UNL     1       4.917  -0.223  15.939  1.00  0.00    -0.368 N 
HETATM   32  C13 UNL     1       3.962  -1.169  15.875  1.00  0.00     0.006 A 
ATOM     33  H7  UNL     1       5.910  -0.414  16.070  1.00  0.00     0.165 HD
HETATM   34  C14 UNL     1       4.092  -2.646  15.972  1.00  0.00     0.068 C 
HETATM   35  C15 UNL     1       2.771  -0.472  15.692  1.00  0.00     0.049 A 
ENDBRANCH  26  29
ENDBRANCH  22  26
ENDBRANCH  21  22
ENDBRANCH   1  21
TORSDOF 10
ENDMDL
MODEL 3
REMARK VINA RESULT: -8.849236334      1.773      2.628
REMARK  10 active torsions:
REMARK  status: ('A' for Active; 'I' for Inactive)
REMARK    1  A    between atoms: C2_2  and  C3_3 
REMARK    2  A    between atoms: C3_3  and  C4_4 
REMARK    3  A    between atoms: C4_4  and  C5_5 
REMARK    4  A    between atoms: C4_4  and  S1_26 
REMARK    5  A    between atoms: C5_5  and  C6_6 
REMARK       I    between atoms: C6_6  and  N1_8 
REMARK    6  A    between atoms: N1_8  and  C7_10 
REMARK    7  A    between atoms: C8_13  and  N3_14 
REMARK    8  A    between atoms: C10_21  and  N6_22 
REMARK    9  A    between atoms: N6_22  and  O2_24 
REMARK   10  A    between atoms: S1_26  and  C11_29 
ROOT
HETATM    1  C6  UNL     1       3.324   3.630  19.048  1.00  0.00     0.224 C 
HETATM    2  O1  UNL     1       4.228   4.508  19.122  1.00  0.00    -0.273 OA
HETATM    3  N1  UNL     1       2.542   3.497  20.232  1.00  0.00    -0.311 N 
ATOM      4  H1  UNL     1       2.546   2.587  20.693  1.00  0.00     0.170 HD
ENDROOT
BRANCH   3   5
HETATM    5  C7  UNL     1       1.844   4.409  20.761  1.00  0.00     0.155 A 
HETATM    6  N2  UNL     1       0.579   4.694  20.410  1.00  0.00    -0.174 N 
HETATM    7  C8  UNL     1      -0.122   5.679  21.007  1.00  0.00     0.678 A 
ATOM      8  H2  UNL     1       0.135   4.148  19.671  1.00  0.00     0.186 HD
HETATM    9  N4  UNL     1       0.429   6.412  21.979  1.00  0.00    -0.177 N 
HETATM   10  C9  UNL     1       1.683   6.193  22.387  1.00  0.00     0.164 A 
ATOM     11  H4  UNL     1      -0.118   7.152  22.418  1.00  0.00     0.185 HD
HETATM   12  N5  UNL     1       2.242   6.990  23.425  1.00  0.00    -0.080 NA
HETATM   13  C10 UNL     1       2.407   5.169  21.764  1.00  0.00     0.140 A 
BRANCH   7  14
HETATM   14  N3  UNL     1      -1.334   5.909  20.631  1.00  0.00    -0.234 N 
ATOM     15  H32 UNL     1      -1.709   5.449  19.802  1.00  0.00     0.174 HD
ATOM     16  H31 UNL     1      -1.910   6.556  21.170  1.00  0.00     0.174 HD
ENDBRANCH   7  14
BRANCH  13  17
HETATM   17  N6  UNL     1       3.739   4.956  22.217  1.00  0.00    -0.262 N 
ATOM     18  H6  UNL     1       3.958   4.215  22.883  1.00  0.00     0.194 HD
BRANCH  17  19
HETATM   19  O2  UNL     1       4.638   5.712  21.767  1.00  0.00    -0.289 OA
ATOM     20  H2  UNL     1       4.425   6.631  21.651  1.00  0.00     0.244 HD
ENDBRANCH  17  19
ENDBRANCH  13  17
ENDBRANCH   3   5
BRANCH   1  21
HETATM   21  C5  UNL     1       3.143   2.859  17.841  1.00  0.00     0.123 C 
BRANCH  21  22
HETATM   22  C4  UNL     1       2.287   3.338  16.749  1.00  0.00     0.125 C 
BRANCH  22  23
HETATM   23  C3  UNL     1       2.594   4.626  16.088  1.00  0.00     0.047 C 
BRANCH  23  24
HETATM   24  C2  UNL     1       3.947   4.885  15.630  1.00  0.00    -0.036 C 
HETATM   25  C1  UNL     1       4.173   5.439  14.450  1.00  0.00     0.007 C 
ENDBRANCH  23  24
ENDBRANCH  22  23
BRANCH  22  26
HETATM   26  S1  UNL     1       1.857   2.062  15.571  1.00  0.00     0.181 S 
HETATM   27  O3  UNL     1       1.903   2.597  14.192  1.00  0.00    -0.222 OA
HETATM   28  O4  UNL     1       0.496   1.490  15.822  1.00  0.00    -0.222 OA
BRANCH  26  29
HETATM   29  C11 UNL     1       3.049   0.790  15.701  1.00  0.00     0.076 A 
HETATM   30  C12 UNL     1       4.416   0.932  15.737  1.00  0.00     0.111 A 
HETATM   31  N7  UNL     1       4.964  -0.296  15.842  1.00  0.00    -0.368 N 
HETATM   32  C13 UNL     1       4.013  -1.248  15.877  1.00  0.00     0.006 A 
ATOM     33  H7  UNL     1       5.967  -0.479  15.890  1.00  0.00     0.165 HD
HETATM   34  C14 UNL     1       4.162  -2.723  15.987  1.00  0.00     0.068 C 
HETATM   35  C15 UNL     1       2.806  -0.561  15.788  1.00  0.00     0.049 A 
ENDBRANCH  26  29
ENDBRANCH  22  26
ENDBRANCH  21  22
ENDBRANCH   1  21
TORSDOF 10
ENDMDL
MODEL 4
REMARK VINA RESULT: -8.709404033      1.437      2.309
REMARK  10 active torsions:
REMARK  status: ('A' for Active; 'I' for Inactive)
REMARK    1  A    between atoms: C2_2  and  C3_3 
REMARK    2  A    between atoms: C3_3  and  C4_4 
REMARK    3  A    between atoms: C4_4  and  C5_5 
REMARK    4  A    between atoms: C4_4  and  S1_26 
REMARK    5  A    between atoms: C5_5  and  C6_6 
REMARK       I    between atoms: C6_6  and  N1_8 
REMARK    6  A    between atoms: N1_8  and  C7_10 
REMARK    7  A    between atoms: C8_13  and  N3_14 
REMARK    8  A    between atoms: C10_21  and  N6_22 
REMARK    9  A    between atoms: N6_22  and  O2_24 
REMARK   10  A    between atoms: S1_26  and  C11_29 
ROOT
HETATM    1  C6  UNL     1       2.554   4.029  19.258  1.00  0.00     0.224 C 
HETATM    2  O1  UNL     1       3.704   4.525  19.415  1.00  0.00    -0.273 OA
HETATM    3  N1  UNL     1       1.746   4.044  20.431  1.00  0.00    -0.311 N 
ATOM      4  H1  UNL     1       1.425   3.143  20.787  1.00  0.00     0.170 HD
ENDROOT
BRANCH   3   5
HETATM    5  C7  UNL     1       1.394   5.076  21.069  1.00  0.00     0.155 A 
HETATM    6  N2  UNL     1       0.220   5.708  20.900  1.00  0.00    -0.174 N 
HETATM    7  C8  UNL     1      -0.106   6.808  21.608  1.00  0.00     0.678 A 
ATOM      8  H2  UNL     1      -0.443   5.345  20.216  1.00  0.00     0.186 HD
HETATM    9  N4  UNL     1       0.740   7.310  22.513  1.00  0.00    -0.177 N 
HETATM   10  C9  UNL     1       1.927   6.741  22.743  1.00  0.00     0.164 A 
ATOM     11  H4  UNL     1       0.474   8.142  23.039  1.00  0.00     0.185 HD
HETATM   12  N5  UNL     1       2.806   7.298  23.713  1.00  0.00    -0.080 NA
HETATM   13  C10 UNL     1       2.263   5.599  22.005  1.00  0.00     0.140 A 
BRANCH   7  14
HETATM   14  N3  UNL     1      -1.246   7.375  21.405  1.00  0.00    -0.234 N 
ATOM     15  H32 UNL     1      -2.075   6.808  21.225  1.00  0.00     0.174 HD
ATOM     16  H31 UNL     1      -1.309   8.393  21.424  1.00  0.00     0.174 HD
ENDBRANCH   7  14
BRANCH  13  17
HETATM   17  N6  UNL     1       3.532   5.013  22.268  1.00  0.00    -0.262 N 
ATOM     18  H6  UNL     1       3.609   4.094  22.706  1.00  0.00     0.194 HD
BRANCH  17  19
HETATM   19  O2  UNL     1       4.557   5.665  21.942  1.00  0.00    -0.289 OA
ATOM     20  H2  UNL     1       5.299   5.647  22.535  1.00  0.00     0.244 HD
ENDBRANCH  17  19
ENDBRANCH  13  17
ENDBRANCH   3   5
BRANCH   1  21
HETATM   21  C5  UNL     1       2.147   3.507  17.974  1.00  0.00     0.123 C 
BRANCH  21  22
HETATM   22  C4  UNL     1       2.160   4.344  16.769  1.00  0.00     0.125 C 
BRANCH  22  23
HETATM   23  C3  UNL     1       2.450   5.791  16.885  1.00  0.00     0.047 C 
BRANCH  23  24
HETATM   24  C2  UNL     1       1.477   6.662  17.518  1.00  0.00    -0.036 C 
HETATM   25  C1  UNL     1       1.847   7.555  18.422  1.00  0.00     0.007 C 
ENDBRANCH  23  24
ENDBRANCH  22  23
BRANCH  22  26
HETATM   26  S1  UNL     1       3.017   3.594  15.390  1.00  0.00     0.181 S 
HETATM   27  O3  UNL     1       4.451   3.957  15.415  1.00  0.00    -0.222 OA
HETATM   28  O4  UNL     1       2.438   4.000  14.070  1.00  0.00    -0.222 OA
BRANCH  26  29
HETATM   29  C11 UNL     1       2.892   1.858  15.563  1.00  0.00     0.076 A 
HETATM   30  C12 UNL     1       1.750   1.096  15.493  1.00  0.00     0.111 A 
HETATM   31  N7  UNL     1       2.094  -0.195  15.680  1.00  0.00    -0.368 N 
HETATM   32  C13 UNL     1       3.420  -0.318  15.872  1.00  0.00     0.006 A 
ATOM     33  H7  UNL     1       1.436  -0.974  15.676  1.00  0.00     0.165 HD
HETATM   34  C14 UNL     1       4.225  -1.544  16.114  1.00  0.00     0.068 C 
HETATM   35  C15 UNL     1       3.922   0.978  15.798  1.00  0.00     0.049 A 
ENDBRANCH  26  29
ENDBRANCH  22  26
ENDBRANCH  21  22
ENDBRANCH   1  21
TORSDOF 10
ENDMDL
MODEL 5
REMARK VINA RESULT: -8.704281735      3.241      7.900
REMARK  10 active torsions:
REMARK  status: ('A' for Active; 'I' for Inactive)
REMARK    1  A    between atoms: C2_2  and  C3_3 
REMARK    2  A    between atoms: C3_3  and  C4_4 
REMARK    3  A    between atoms: C4_4  and  C5_5 
REMARK    4  A    between atoms: C4_4  and  S1_26 
REMARK    5  A    between atoms: C5_5  and  C6_6 
REMARK       I    between atoms: C6_6  and  N1_8 
REMARK    6  A    between atoms: N1_8  and  C7_10 
REMARK    7  A    between atoms: C8_13  and  N3_14 
REMARK    8  A    between atoms: C10_21  and  N6_22 
REMARK    9  A    between atoms: N6_22  and  O2_24 
REMARK   10  A    between atoms: S1_26  and  C11_29 
ROOT
HETATM    1  C6  UNL     1       1.725   5.108  18.770  1.00  0.00     0.224 C 
HETATM    2  O1  UNL     1       0.764   5.684  18.188  1.00  0.00    -0.273 OA
HETATM    3  N1  UNL     1       2.005   3.800  18.280  1.00  0.00    -0.311 N 
ATOM      4  H1  UNL     1       1.932   3.028  18.943  1.00  0.00     0.170 HD
ENDROOT
BRANCH   3   5
HETATM    5  C7  UNL     1       2.335   3.513  17.094  1.00  0.00     0.155 A 
HETATM    6  N2  UNL     1       2.264   4.368  16.060  1.00  0.00    -0.174 N 
HETATM    7  C8  UNL     1       2.629   4.011  14.812  1.00  0.00     0.678 A 
ATOM      8  H2  UNL     1       1.925   5.316  16.224  1.00  0.00     0.186 HD
HETATM    9  N4  UNL     1       3.080   2.777  14.563  1.00  0.00    -0.177 N 
HETATM   10  C9  UNL     1       3.181   1.866  15.536  1.00  0.00     0.164 A 
ATOM     11  H4  UNL     1       3.351   2.526  13.613  1.00  0.00     0.185 HD
HETATM   12  N5  UNL     1       3.664   0.561  15.240  1.00  0.00    -0.080 NA
HETATM   13  C10 UNL     1       2.800   2.242  16.831  1.00  0.00     0.140 A 
BRANCH   7  14
HETATM   14  N3  UNL     1       2.541   4.872  13.857  1.00  0.00    -0.234 N 
ATOM     15  H32 UNL     1       2.957   5.797  13.962  1.00  0.00     0.174 HD
ATOM     16  H31 UNL     1       2.051   4.619  12.999  1.00  0.00     0.174 HD
ENDBRANCH   7  14
BRANCH  13  17
HETATM   17  N6  UNL     1       2.918   1.254  17.848  1.00  0.00    -0.262 N 
ATOM     18  H6  UNL     1       3.463   1.429  18.693  1.00  0.00     0.194 HD
BRANCH  17  19
HETATM   19  O2  UNL     1       2.327   0.158  17.670  1.00  0.00    -0.289 OA
ATOM     20  H2  UNL     1       2.811  -0.639  17.850  1.00  0.00     0.244 HD
ENDBRANCH  17  19
ENDBRANCH  13  17
ENDBRANCH   3   5
BRANCH   1  21
HETATM   21  C5  UNL     1       2.443   5.769  19.835  1.00  0.00     0.123 C 
BRANCH  21  22
HETATM   22  C4  UNL     1       2.260   5.378  21.238  1.00  0.00     0.125 C 
BRANCH  22  23
HETATM   23  C3  UNL     1       3.174   4.385  21.846  1.00  0.00     0.047 C 
BRANCH  23  24
HETATM   24  C2  UNL     1       4.306   3.897  21.079  1.00  0.00    -0.036 C 
HETATM   25  C1  UNL     1       5.481   4.502  21.137  1.00  0.00     0.007 C 
ENDBRANCH  23  24
ENDBRANCH  22  23
BRANCH  22  26
HETATM   26  S1  UNL     1       1.948   6.761  22.327  1.00  0.00     0.181 S 
HETATM   27  O3  UNL     1       2.505   8.006  21.753  1.00  0.00    -0.222 OA
HETATM   28  O4  UNL     1       2.530   6.556  23.691  1.00  0.00    -0.222 OA
BRANCH  26  29
HETATM   29  C11 UNL     1       0.215   6.954  22.464  1.00  0.00     0.076 A 
HETATM   30  C12 UNL     1      -0.664   7.298  21.465  1.00  0.00     0.111 A 
HETATM   31  N7  UNL     1      -1.905   7.337  21.993  1.00  0.00    -0.368 N 
HETATM   32  C13 UNL     1      -1.883   7.033  23.303  1.00  0.00     0.006 A 
ATOM     33  H7  UNL     1      -2.749   7.567  21.467  1.00  0.00     0.165 HD
HETATM   34  C14 UNL     1      -3.009   6.956  24.271  1.00  0.00     0.068 C 
HETATM   35  C15 UNL     1      -0.544   6.792  23.599  1.00  0.00     0.049 A 
ENDBRANCH  26  29
ENDBRANCH  22  26
ENDBRANCH  21  22
ENDBRANCH   1  21
TORSDOF 10
ENDMDL
