MODEL 1
REMARK VINA RESULT: -9.575205171      0.000      0.000
REMARK  8 active torsions:
REMARK  status: ('A' for Active; 'I' for Inactive)
REMARK    1  A    between atoms: N1_2  and  C2_3 
REMARK       I    between atoms: N1_2  and  C9_11 
REMARK    2  A    between atoms: C2_3  and  C3_4 
REMARK       I    between atoms: C9_11  and  N2_13 
REMARK    3  A    between atoms: N2_13  and  S1_15 
REMARK    4  A    between atoms: S1_15  and  C10_18 
REMARK    5  A    between atoms: C13_21  and  S2_22 
REMARK    6  A    between atoms: S2_22  and  N3_25 
REMARK       I    between atoms: N3_25  and  C14_27 
REMARK    7  A    between atoms: C14_27  and  C15_29 
REMARK    8  A    between atoms: C15_29  and  C16_30 
ROOT
HETATM    1  C10 UNL     1      -3.713  12.888  19.534  1.00  0.00     0.080 A 
HETATM    2  C11 UNL     1      -3.171  11.618  19.542  1.00  0.00     0.027 A 
HETATM    3  C12 UNL     1      -2.161  11.245  20.408  1.00  0.00     0.027 A 
HETATM    4  C13 UNL     1      -1.629  12.137  21.324  1.00  0.00     0.080 A 
HETATM    5  C22 UNL     1      -2.154  13.408  21.330  1.00  0.00     0.027 A 
HETATM    6  C23 UNL     1      -3.163  13.783  20.468  1.00  0.00     0.027 A 
ENDROOT
BRANCH   1   7
HETATM    7  S1  UNL     1      -5.020  13.343  18.484  1.00  0.00     0.266 S 
HETATM    8  O2  UNL     1      -4.456  13.766  17.141  1.00  0.00    -0.200 OA
HETATM    9  O3  UNL     1      -5.771  14.514  19.106  1.00  0.00    -0.200 OA
BRANCH   7  10
HETATM   10  N2  UNL     1      -6.116  12.044  18.277  1.00  0.00    -0.232 N 
HETATM   11  C9  UNL     1      -6.987  11.650  19.298  1.00  0.00     0.331 C 
HETATM   12  N1  UNL     1      -7.899  10.585  19.145  1.00  0.00    -0.334 N 
HETATM   13  O1  UNL     1      -6.943  12.295  20.404  1.00  0.00    -0.246 OA
HETATM   14  C1  UNL     1      -8.832  10.273  20.238  1.00  0.00     0.154 C 
ATOM     15  H2  UNL     1      -6.135  11.544  17.388  1.00  0.00     0.183 HD
BRANCH  12  16
HETATM   16  C2  UNL     1      -7.942   9.770  17.978  1.00  0.00     0.165 C 
BRANCH  16  17
HETATM   17  C3  UNL     1      -7.000   8.641  18.093  1.00  0.00    -0.040 A 
HETATM   18  C4  UNL     1      -7.512   7.342  17.978  1.00  0.00     0.012 A 
HETATM   19  C5  UNL     1      -6.701   6.235  18.067  1.00  0.00     0.043 A 
HETATM   20  C6  UNL     1      -5.350   6.378  18.272  1.00  0.00     0.116 A 
HETATM   21  F1  UNL     1      -4.592   5.240  18.353  1.00  0.00    -0.206 F 
HETATM   22  C7  UNL     1      -4.824   7.633  18.388  1.00  0.00     0.043 A 
HETATM   23  C8  UNL     1      -5.666   8.740  18.295  1.00  0.00     0.012 A 
ENDBRANCH  16  17
ENDBRANCH  12  16
ENDBRANCH   7  10
ENDBRANCH   1   7
BRANCH   4  24
HETATM   24  S2  UNL     1      -0.334  11.643  22.401  1.00  0.00     0.265 S 
HETATM   25  O4  UNL     1       0.108  10.233  22.027  1.00  0.00    -0.200 OA
HETATM   26  O5  UNL     1       0.849  12.529  22.066  1.00  0.00    -0.200 OA
BRANCH  24  27
HETATM   27  N3  UNL     1      -0.781  11.690  24.032  1.00  0.00    -0.250 N 
HETATM   28  C14 UNL     1      -1.882  10.926  24.541  1.00  0.00     0.235 C 
HETATM   29  O6  UNL     1      -2.526  10.209  23.731  1.00  0.00    -0.272 OA
ATOM     30  H3  UNL     1      -0.251  12.280  24.673  1.00  0.00     0.181 HD
BRANCH  28  31
HETATM   31  C15 UNL     1      -2.253  10.981  25.977  1.00  0.00     0.142 C 
BRANCH  31  32
HETATM   32  C16 UNL     1      -1.981   9.671  26.640  1.00  0.00    -0.049 A 
HETATM   33  C17 UNL     1      -0.836   8.977  26.365  1.00  0.00     0.007 A 
HETATM   34  C18 UNL     1      -0.560   7.760  26.984  1.00  0.00     0.001 A 
HETATM   35  C19 UNL     1      -1.454   7.241  27.893  1.00  0.00     0.000 A 
HETATM   36  C20 UNL     1      -2.626   7.954  28.173  1.00  0.00     0.001 A 
HETATM   37  C21 UNL     1      -2.873   9.144  27.551  1.00  0.00     0.007 A 
ENDBRANCH  31  32
ENDBRANCH  28  31
ENDBRANCH  24  27
ENDBRANCH   4  24
TORSDOF 8
ENDMDL
MODEL 2
REMARK VINA RESULT: -9.323389958      3.131      8.367
REMARK  8 active torsions:
REMARK  status: ('A' for Active; 'I' for Inactive)
REMARK    1  A    between atoms: N1_2  and  C2_3 
REMARK       I    between atoms: N1_2  and  C9_11 
REMARK    2  A    between atoms: C2_3  and  C3_4 
REMARK       I    between atoms: C9_11  and  N2_13 
REMARK    3  A    between atoms: N2_13  and  S1_15 
REMARK    4  A    between atoms: S1_15  and  C10_18 
REMARK    5  A    between atoms: C13_21  and  S2_22 
REMARK    6  A    between atoms: S2_22  and  N3_25 
REMARK       I    between atoms: N3_25  and  C14_27 
REMARK    7  A    between atoms: C14_27  and  C15_29 
REMARK    8  A    between atoms: C15_29  and  C16_30 
ROOT
HETATM    1  C10 UNL     1      -5.446  13.618  22.800  1.00  0.00     0.080 A 
HETATM    2  C11 UNL     1      -5.938  13.771  21.519  1.00  0.00     0.027 A 
HETATM    3  C12 UNL     1      -7.075  13.124  21.075  1.00  0.00     0.027 A 
HETATM    4  C13 UNL     1      -7.790  12.273  21.902  1.00  0.00     0.080 A 
HETATM    5  C22 UNL     1      -7.316  12.106  23.182  1.00  0.00     0.027 A 
HETATM    6  C23 UNL     1      -6.181  12.751  23.627  1.00  0.00     0.027 A 
ENDROOT
BRANCH   1   7
HETATM    7  S1  UNL     1      -4.047  14.473  23.376  1.00  0.00     0.266 S 
HETATM    8  O2  UNL     1      -4.407  15.213  24.651  1.00  0.00    -0.200 OA
HETATM    9  O3  UNL     1      -3.611  15.478  22.317  1.00  0.00    -0.200 OA
BRANCH   7  10
HETATM   10  N2  UNL     1      -2.750  13.394  23.668  1.00  0.00    -0.232 N 
HETATM   11  C9  UNL     1      -2.492  12.312  22.822  1.00  0.00     0.331 C 
HETATM   12  N1  UNL     1      -1.427  11.416  23.043  1.00  0.00    -0.334 N 
HETATM   13  O1  UNL     1      -3.261  12.148  21.810  1.00  0.00    -0.246 OA
HETATM   14  C1  UNL     1      -1.174  10.341  22.072  1.00  0.00     0.154 C 
ATOM     15  H2  UNL     1      -2.150  13.545  24.479  1.00  0.00     0.183 HD
BRANCH  12  16
HETATM   16  C2  UNL     1      -0.588  11.486  24.193  1.00  0.00     0.165 C 
BRANCH  16  17
HETATM   17  C3  UNL     1      -1.047  10.549  25.235  1.00  0.00    -0.040 A 
HETATM   18  C4  UNL     1      -0.270   9.411  25.486  1.00  0.00     0.012 A 
HETATM   19  C5  UNL     1      -0.624   8.491  26.444  1.00  0.00     0.043 A 
HETATM   20  C6  UNL     1      -1.764   8.668  27.191  1.00  0.00     0.116 A 
HETATM   21  F1  UNL     1      -2.067   7.718  28.130  1.00  0.00    -0.206 F 
HETATM   22  C7  UNL     1      -2.541   9.769  26.967  1.00  0.00     0.043 A 
HETATM   23  C8  UNL     1      -2.162  10.687  25.990  1.00  0.00     0.012 A 
ENDBRANCH  16  17
ENDBRANCH  12  16
ENDBRANCH   7  10
ENDBRANCH   1   7
BRANCH   4  24
HETATM   24  S2  UNL     1      -9.222  11.450  21.309  1.00  0.00     0.265 S 
HETATM   25  O4  UNL     1      -9.611  10.360  22.303  1.00  0.00    -0.200 OA
HETATM   26  O5  UNL     1     -10.346  12.464  21.378  1.00  0.00    -0.200 OA
BRANCH  24  27
HETATM   27  N3  UNL     1      -9.006  10.775  19.774  1.00  0.00    -0.250 N 
HETATM   28  C14 UNL     1      -7.978   9.812  19.503  1.00  0.00     0.235 C 
HETATM   29  O6  UNL     1      -7.222   9.477  20.452  1.00  0.00    -0.272 OA
ATOM     30  H3  UNL     1      -9.625  11.062  19.016  1.00  0.00     0.181 HD
BRANCH  28  31
HETATM   31  C15 UNL     1      -7.810   9.231  18.148  1.00  0.00     0.142 C 
BRANCH  31  32
HETATM   32  C16 UNL     1      -6.884   8.062  18.190  1.00  0.00    -0.049 A 
HETATM   33  C17 UNL     1      -7.363   6.789  18.052  1.00  0.00     0.007 A 
HETATM   34  C18 UNL     1      -6.511   5.687  18.076  1.00  0.00     0.001 A 
HETATM   35  C19 UNL     1      -5.158   5.877  18.240  1.00  0.00     0.000 A 
HETATM   36  C20 UNL     1      -4.669   7.181  18.381  1.00  0.00     0.001 A 
HETATM   37  C21 UNL     1      -5.526   8.244  18.356  1.00  0.00     0.007 A 
ENDBRANCH  31  32
ENDBRANCH  28  31
ENDBRANCH  24  27
ENDBRANCH   4  24
TORSDOF 8
ENDMDL
MODEL 3
REMARK VINA RESULT: -9.225179641      0.919      1.540
REMARK  8 active torsions:
REMARK  status: ('A' for Active; 'I' for Inactive)
REMARK    1  A    between atoms: N1_2  and  C2_3 
REMARK       I    between atoms: N1_2  and  C9_11 
REMARK    2  A    between atoms: C2_3  and  C3_4 
REMARK       I    between atoms: C9_11  and  N2_13 
REMARK    3  A    between atoms: N2_13  and  S1_15 
REMARK    4  A    between atoms: S1_15  and  C10_18 
REMARK    5  A    between atoms: C13_21  and  S2_22 
REMARK    6  A    between atoms: S2_22  and  N3_25 
REMARK       I    between atoms: N3_25  and  C14_27 
REMARK    7  A    between atoms: C14_27  and  C15_29 
REMARK    8  A    between atoms: C15_29  and  C16_30 
ROOT
HETATM    1  C10 UNL     1      -3.993  12.677  19.682  1.00  0.00     0.080 A 
HETATM    2  C11 UNL     1      -3.409  13.560  20.569  1.00  0.00     0.027 A 
HETATM    3  C12 UNL     1      -2.334  13.215  21.365  1.00  0.00     0.027 A 
HETATM    4  C13 UNL     1      -1.778  11.947  21.317  1.00  0.00     0.080 A 
HETATM    5  C22 UNL     1      -2.347  11.052  20.441  1.00  0.00     0.027 A 
HETATM    6  C23 UNL     1      -3.420  11.394  19.645  1.00  0.00     0.027 A 
ENDROOT
BRANCH   1   7
HETATM    7  S1  UNL     1      -5.310  13.127  18.641  1.00  0.00     0.266 S 
HETATM    8  O2  UNL     1      -4.753  13.753  17.377  1.00  0.00    -0.200 OA
HETATM    9  O3  UNL     1      -6.186  14.144  19.364  1.00  0.00    -0.200 OA
BRANCH   7  10
HETATM   10  N2  UNL     1      -6.270  11.764  18.249  1.00  0.00    -0.232 N 
HETATM   11  C9  UNL     1      -6.690  11.516  16.939  1.00  0.00     0.331 C 
HETATM   12  N1  UNL     1      -7.477  10.397  16.596  1.00  0.00    -0.334 N 
HETATM   13  O1  UNL     1      -6.333  12.345  16.029  1.00  0.00    -0.246 OA
HETATM   14  C1  UNL     1      -7.823  10.164  15.187  1.00  0.00     0.154 C 
ATOM     15  H2  UNL     1      -6.542  11.117  18.990  1.00  0.00     0.183 HD
BRANCH  12  16
HETATM   16  C2  UNL     1      -7.982   9.485  17.567  1.00  0.00     0.165 C 
BRANCH  16  17
HETATM   17  C3  UNL     1      -7.025   8.388  17.804  1.00  0.00    -0.040 A 
HETATM   18  C4  UNL     1      -7.460   7.076  17.583  1.00  0.00     0.012 A 
HETATM   19  C5  UNL     1      -6.629   5.997  17.773  1.00  0.00     0.043 A 
HETATM   20  C6  UNL     1      -5.332   6.183  18.191  1.00  0.00     0.116 A 
HETATM   21  F1  UNL     1      -4.551   5.072  18.365  1.00  0.00    -0.206 F 
HETATM   22  C7  UNL     1      -4.882   7.453  18.414  1.00  0.00     0.043 A 
HETATM   23  C8  UNL     1      -5.743   8.531  18.215  1.00  0.00     0.012 A 
ENDBRANCH  16  17
ENDBRANCH  12  16
ENDBRANCH   7  10
ENDBRANCH   1   7
BRANCH   4  24
HETATM   24  S2  UNL     1      -0.423  11.527  22.351  1.00  0.00     0.265 S 
HETATM   25  O4  UNL     1       0.059  10.127  21.987  1.00  0.00    -0.200 OA
HETATM   26  O5  UNL     1       0.710  12.450  21.948  1.00  0.00    -0.200 OA
BRANCH  24  27
HETATM   27  N3  UNL     1      -0.805  11.593  23.996  1.00  0.00    -0.250 N 
HETATM   28  C14 UNL     1      -1.915  10.873  24.550  1.00  0.00     0.235 C 
HETATM   29  O6  UNL     1      -2.616  10.181  23.767  1.00  0.00    -0.272 OA
ATOM     30  H3  UNL     1      -0.229  12.163  24.615  1.00  0.00     0.181 HD
BRANCH  28  31
HETATM   31  C15 UNL     1      -2.228  10.944  25.998  1.00  0.00     0.142 C 
BRANCH  31  32
HETATM   32  C16 UNL     1      -1.966   9.631  26.657  1.00  0.00    -0.049 A 
HETATM   33  C17 UNL     1      -0.834   8.922  26.370  1.00  0.00     0.007 A 
HETATM   34  C18 UNL     1      -0.568   7.700  26.986  1.00  0.00     0.001 A 
HETATM   35  C19 UNL     1      -1.459   7.192  27.902  1.00  0.00     0.000 A 
HETATM   36  C20 UNL     1      -2.619   7.920  28.194  1.00  0.00     0.001 A 
HETATM   37  C21 UNL     1      -2.856   9.114  27.576  1.00  0.00     0.007 A 
ENDBRANCH  31  32
ENDBRANCH  28  31
ENDBRANCH  24  27
ENDBRANCH   4  24
TORSDOF 8
ENDMDL
MODEL 4
REMARK VINA RESULT: -9.054357890      2.030      2.924
REMARK  8 active torsions:
REMARK  status: ('A' for Active; 'I' for Inactive)
REMARK    1  A    between atoms: N1_2  and  C2_3 
REMARK       I    between atoms: N1_2  and  C9_11 
REMARK    2  A    between atoms: C2_3  and  C3_4 
REMARK       I    between atoms: C9_11  and  N2_13 
REMARK    3  A    between atoms: N2_13  and  S1_15 
REMARK    4  A    between atoms: S1_15  and  C10_18 
REMARK    5  A    between atoms: C13_21  and  S2_22 
REMARK    6  A    between atoms: S2_22  and  N3_25 
REMARK       I    between atoms: N3_25  and  C14_27 
REMARK    7  A    between atoms: C14_27  and  C15_29 
REMARK    8  A    between atoms: C15_29  and  C16_30 
ROOT
HETATM    1  C10 UNL     1      -3.948  12.969  20.118  1.00  0.00     0.080 A 
HETATM    2  C11 UNL     1      -2.821  13.235  20.870  1.00  0.00     0.027 A 
HETATM    3  C12 UNL     1      -2.828  13.228  22.252  1.00  0.00     0.027 A 
HETATM    4  C13 UNL     1      -3.983  12.952  22.966  1.00  0.00     0.080 A 
HETATM    5  C22 UNL     1      -5.117  12.685  22.235  1.00  0.00     0.027 A 
HETATM    6  C23 UNL     1      -5.112  12.691  20.856  1.00  0.00     0.027 A 
ENDROOT
BRANCH   1   7
HETATM    7  S1  UNL     1      -3.927  12.924  18.381  1.00  0.00     0.266 S 
HETATM    8  O2  UNL     1      -2.528  12.579  17.909  1.00  0.00    -0.200 OA
HETATM    9  O3  UNL     1      -4.315  14.297  17.846  1.00  0.00    -0.200 OA
BRANCH   7  10
HETATM   10  N2  UNL     1      -5.048  11.773  17.788  1.00  0.00    -0.232 N 
HETATM   11  C9  UNL     1      -5.038  11.362  16.452  1.00  0.00     0.331 C 
HETATM   12  N1  UNL     1      -5.951  10.413  15.946  1.00  0.00    -0.334 N 
HETATM   13  O1  UNL     1      -4.158  11.874  15.675  1.00  0.00    -0.246 OA
HETATM   14  C1  UNL     1      -5.836   9.977  14.546  1.00  0.00     0.154 C 
ATOM     15  H2  UNL     1      -5.740  11.378  18.425  1.00  0.00     0.183 HD
BRANCH  12  16
HETATM   16  C2  UNL     1      -7.009   9.869  16.729  1.00  0.00     0.165 C 
BRANCH  16  17
HETATM   17  C3  UNL     1      -6.676   8.507  17.186  1.00  0.00    -0.040 A 
HETATM   18  C4  UNL     1      -5.380   8.269  17.658  1.00  0.00     0.012 A 
HETATM   19  C5  UNL     1      -4.990   7.030  18.109  1.00  0.00     0.043 A 
HETATM   20  C6  UNL     1      -5.877   5.979  18.107  1.00  0.00     0.116 A 
HETATM   21  F1  UNL     1      -5.432   4.768  18.566  1.00  0.00    -0.206 F 
HETATM   22  C7  UNL     1      -7.148   6.183  17.652  1.00  0.00     0.043 A 
HETATM   23  C8  UNL     1      -7.519   7.448  17.200  1.00  0.00     0.012 A 
ENDBRANCH  16  17
ENDBRANCH  12  16
ENDBRANCH   7  10
ENDBRANCH   1   7
BRANCH   4  24
HETATM   24  S2  UNL     1      -3.970  12.965  24.721  1.00  0.00     0.265 S 
HETATM   25  O4  UNL     1      -4.064  14.409  25.204  1.00  0.00    -0.200 OA
HETATM   26  O5  UNL     1      -5.273  12.320  25.153  1.00  0.00    -0.200 OA
BRANCH  24  27
HETATM   27  N3  UNL     1      -2.595  12.230  25.375  1.00  0.00    -0.250 N 
HETATM   28  C14 UNL     1      -2.186  10.909  24.998  1.00  0.00     0.235 C 
HETATM   29  O6  UNL     1      -2.890  10.292  24.156  1.00  0.00    -0.272 OA
ATOM     30  H3  UNL     1      -2.039  12.742  26.059  1.00  0.00     0.181 HD
BRANCH  28  31
HETATM   31  C15 UNL     1      -0.973  10.286  25.583  1.00  0.00     0.142 C 
BRANCH  31  32
HETATM   32  C16 UNL     1      -1.347   9.180  26.513  1.00  0.00    -0.049 A 
HETATM   33  C17 UNL     1      -0.585   8.048  26.591  1.00  0.00     0.007 A 
HETATM   34  C18 UNL     1      -0.913   7.012  27.462  1.00  0.00     0.001 A 
HETATM   35  C19 UNL     1      -2.025   7.123  28.264  1.00  0.00     0.000 A 
HETATM   36  C20 UNL     1      -2.805   8.283  28.182  1.00  0.00     0.001 A 
HETATM   37  C21 UNL     1      -2.462   9.284  27.319  1.00  0.00     0.007 A 
ENDBRANCH  31  32
ENDBRANCH  28  31
ENDBRANCH  24  27
ENDBRANCH   4  24
TORSDOF 8
ENDMDL
MODEL 5
REMARK VINA RESULT: -8.912282527      1.491      2.049
REMARK  8 active torsions:
REMARK  status: ('A' for Active; 'I' for Inactive)
REMARK    1  A    between atoms: N1_2  and  C2_3 
REMARK       I    between atoms: N1_2  and  C9_11 
REMARK    2  A    between atoms: C2_3  and  C3_4 
REMARK       I    between atoms: C9_11  and  N2_13 
REMARK    3  A    between atoms: N2_13  and  S1_15 
REMARK    4  A    between atoms: S1_15  and  C10_18 
REMARK    5  A    between atoms: C13_21  and  S2_22 
REMARK    6  A    between atoms: S2_22  and  N3_25 
REMARK       I    between atoms: N3_25  and  C14_27 
REMARK    7  A    between atoms: C14_27  and  C15_29 
REMARK    8  A    between atoms: C15_29  and  C16_30 
ROOT
HETATM    1  C10 UNL     1      -4.932  11.907  21.659  1.00  0.00     0.080 A 
HETATM    2  C11 UNL     1      -4.161  10.963  21.009  1.00  0.00     0.027 A 
HETATM    3  C12 UNL     1      -2.798  10.851  21.205  1.00  0.00     0.027 A 
HETATM    4  C13 UNL     1      -2.122  11.693  22.073  1.00  0.00     0.080 A 
HETATM    5  C22 UNL     1      -2.871  12.641  22.728  1.00  0.00     0.027 A 
HETATM    6  C23 UNL     1      -4.232  12.755  22.535  1.00  0.00     0.027 A 
ENDROOT
BRANCH   1   7
HETATM    7  S1  UNL     1      -6.654  12.014  21.455  1.00  0.00     0.266 S 
HETATM    8  O2  UNL     1      -7.054  13.473  21.351  1.00  0.00    -0.200 OA
HETATM    9  O3  UNL     1      -7.335  11.391  22.668  1.00  0.00    -0.200 OA
BRANCH   7  10
HETATM   10  N2  UNL     1      -7.156  11.165  20.055  1.00  0.00    -0.232 N 
HETATM   11  C9  UNL     1      -6.999  11.704  18.775  1.00  0.00     0.331 C 
HETATM   12  N1  UNL     1      -7.402  11.019  17.611  1.00  0.00    -0.334 N 
HETATM   13  O1  UNL     1      -6.463  12.864  18.677  1.00  0.00    -0.246 OA
HETATM   14  C1  UNL     1      -7.142  11.619  16.294  1.00  0.00     0.154 C 
ATOM     15  H2  UNL     1      -7.579  10.242  20.158  1.00  0.00     0.183 HD
BRANCH  12  16
HETATM   16  C2  UNL     1      -8.082   9.768  17.651  1.00  0.00     0.165 C 
BRANCH  16  17
HETATM   17  C3  UNL     1      -7.124   8.653  17.772  1.00  0.00    -0.040 A 
HETATM   18  C4  UNL     1      -7.390   7.655  18.716  1.00  0.00     0.012 A 
HETATM   19  C5  UNL     1      -6.551   6.579  18.888  1.00  0.00     0.043 A 
HETATM   20  C6  UNL     1      -5.414   6.455  18.125  1.00  0.00     0.116 A 
HETATM   21  F1  UNL     1      -4.616   5.364  18.340  1.00  0.00    -0.206 F 
HETATM   22  C7  UNL     1      -5.130   7.415  17.196  1.00  0.00     0.043 A 
HETATM   23  C8  UNL     1      -5.995   8.497  17.041  1.00  0.00     0.012 A 
ENDBRANCH  16  17
ENDBRANCH  12  16
ENDBRANCH   7  10
ENDBRANCH   1   7
BRANCH   4  24
HETATM   24  S2  UNL     1      -0.387  11.541  22.291  1.00  0.00     0.265 S 
HETATM   25  O4  UNL     1       0.116  10.375  21.446  1.00  0.00    -0.200 OA
HETATM   26  O5  UNL     1       0.223  12.777  21.659  1.00  0.00    -0.200 OA
BRANCH  24  27
HETATM   27  N3  UNL     1       0.055  11.311  23.907  1.00  0.00    -0.250 N 
HETATM   28  C14 UNL     1      -0.283  10.118  24.626  1.00  0.00     0.235 C 
HETATM   29  O6  UNL     1      -0.934   9.229  24.018  1.00  0.00    -0.272 OA
ATOM     30  H3  UNL     1       0.579  12.044  24.385  1.00  0.00     0.181 HD
BRANCH  28  31
HETATM   31  C15 UNL     1       0.120   9.938  26.043  1.00  0.00     0.142 C 
BRANCH  31  32
HETATM   32  C16 UNL     1      -0.889   9.117  26.775  1.00  0.00    -0.049 A 
HETATM   33  C17 UNL     1      -0.616   7.823  27.119  1.00  0.00     0.007 A 
HETATM   34  C18 UNL     1      -1.542   7.047  27.813  1.00  0.00     0.001 A 
HETATM   35  C19 UNL     1      -2.757   7.588  28.164  1.00  0.00     0.000 A 
HETATM   36  C20 UNL     1      -3.034   8.914  27.811  1.00  0.00     0.001 A 
HETATM   37  C21 UNL     1      -2.110   9.653  27.129  1.00  0.00     0.007 A 
ENDBRANCH  31  32
ENDBRANCH  28  31
ENDBRANCH  24  27
ENDBRANCH   4  24
TORSDOF 8
ENDMDL
