MODEL 1
REMARK VINA RESULT: -7.712477667      0.000      0.000
REMARK  8 active torsions:
REMARK  status: ('A' for Active; 'I' for Inactive)
REMARK    1  A    between atoms: C2_2  and  C3_3 
REMARK    2  A    between atoms: C2_2  and  C4_5 
REMARK    3  A    between atoms: C4_5  and  N1_7 
REMARK       I    between atoms: N1_7  and  C6_9 
REMARK    4  A    between atoms: C6_9  and  C7_11 
REMARK       I    between atoms: N2_15  and  C11_16 
REMARK    5  A    between atoms: C11_16  and  C12_18 
REMARK    6  A    between atoms: C13_19  and  C14_20 
REMARK    7  A    between atoms: C14_20  and  O4_21 
REMARK    8  A    between atoms: C14_20  and  N3_23 
ROOT
HETATM    1  C12 UNL     1      -5.684   9.675  18.223  1.00  0.00     0.095 C 
HETATM    2  C13 UNL     1      -4.798   9.032  19.255  1.00  0.00     0.074 C 
HETATM    3  C19 UNL     1      -5.081   7.570  19.228  1.00  0.00     0.018 C 
HETATM    4  C20 UNL     1      -5.717   7.255  17.905  1.00  0.00    -0.007 A 
HETATM    5  C21 UNL     1      -7.167   6.831  17.927  1.00  0.00     0.015 A 
HETATM    6  C22 UNL     1      -7.523   8.134  17.334  1.00  0.00    -0.035 A 
HETATM    7  C23 UNL     1      -8.669   8.965  17.602  1.00  0.00     0.011 A 
HETATM    8  C24 UNL     1      -8.466   8.304  16.222  1.00  0.00     0.011 A 
HETATM    9  C25 UNL     1      -6.093   8.576  17.263  1.00  0.00     0.012 A 
ENDROOT
BRANCH   1  10
HETATM   10  C11 UNL     1      -5.088  10.845  17.564  1.00  0.00     0.226 C 
HETATM   11  N2  UNL     1      -5.181  12.202  17.923  1.00  0.00    -0.338 N 
HETATM   12  C7  UNL     1      -4.608  13.350  17.225  1.00  0.00     0.179 C 
HETATM   13  C10 UNL     1      -5.863  12.716  19.088  1.00  0.00     0.127 C 
HETATM   14  C8  UNL     1      -5.204  14.571  17.855  1.00  0.00     0.037 C 
HETATM   15  C9  UNL     1      -6.370  14.087  18.656  1.00  0.00     0.022 C 
HETATM   16  O3  UNL     1      -4.386  10.610  16.514  1.00  0.00    -0.273 OA
BRANCH  12  17
HETATM   17  C6  UNL     1      -3.140  13.416  17.394  1.00  0.00     0.241 C 
HETATM   18  N1  UNL     1      -2.364  13.936  16.334  1.00  0.00    -0.354 N 
ATOM     19  H1  UNL     1      -2.847  14.249  15.492  1.00  0.00     0.162 HD
HETATM   20  O2  UNL     1      -2.556  13.031  18.431  1.00  0.00    -0.271 OA
BRANCH  18  21
HETATM   21  C4  UNL     1      -0.921  14.051  16.378  1.00  0.00     0.090 C 
HETATM   22  C5  UNL     1      -0.469  15.476  16.567  1.00  0.00     0.033 C 
BRANCH  21  23
HETATM   23  C2  UNL     1      -0.393  13.597  15.018  1.00  0.00     0.065 C 
HETATM   24  C1  UNL     1       0.834  14.394  14.625  1.00  0.00     0.019 C 
BRANCH  23  25
HETATM   25  C3  UNL     1      -0.103  12.154  14.998  1.00  0.00     0.237 C 
HETATM   26  O1  UNL     1      -0.998  11.343  15.049  1.00  0.00    -0.306 OA
ENDBRANCH  23  25
ENDBRANCH  21  23
ENDBRANCH  18  21
ENDBRANCH  12  17
ENDBRANCH   1  10
BRANCH   2  27
HETATM   27  C14 UNL     1      -4.868   9.582  20.600  1.00  0.00     0.118 C 
BRANCH  27  28
HETATM   28  O4  UNL     1      -5.844   9.107  21.324  1.00  0.00    -0.349 OA
ATOM     29  H4  UNL     1      -6.314   9.764  21.825  1.00  0.00     0.219 HD
ENDBRANCH  27  28
BRANCH  27  30
HETATM   30  N3  UNL     1      -4.077  10.522  21.245  1.00  0.00    -0.361 N 
HETATM   31  C15 UNL     1      -4.464  11.512  22.210  1.00  0.00     0.151 C 
HETATM   32  C16 UNL     1      -3.462  11.409  23.360  1.00  0.00     0.187 C 
HETATM   33  O5  UNL     1      -2.725  10.234  23.313  1.00  0.00    -0.388 OA
HETATM   34  C17 UNL     1      -1.904  10.177  22.188  1.00  0.00     0.187 C 
HETATM   35  C18 UNL     1      -2.633  10.555  20.931  1.00  0.00     0.151 C 
ENDBRANCH  27  30
ENDBRANCH   2  27
TORSDOF 8
ENDMDL
MODEL 2
REMARK VINA RESULT: -7.685053660      3.900      6.435
REMARK  8 active torsions:
REMARK  status: ('A' for Active; 'I' for Inactive)
REMARK    1  A    between atoms: C2_2  and  C3_3 
REMARK    2  A    between atoms: C2_2  and  C4_5 
REMARK    3  A    between atoms: C4_5  and  N1_7 
REMARK       I    between atoms: N1_7  and  C6_9 
REMARK    4  A    between atoms: C6_9  and  C7_11 
REMARK       I    between atoms: N2_15  and  C11_16 
REMARK    5  A    between atoms: C11_16  and  C12_18 
REMARK    6  A    between atoms: C13_19  and  C14_20 
REMARK    7  A    between atoms: C14_20  and  O4_21 
REMARK    8  A    between atoms: C14_20  and  N3_23 
ROOT
HETATM    1  C12 UNL     1      -6.137  10.611  20.628  1.00  0.00     0.095 C 
HETATM    2  C13 UNL     1      -4.687  11.013  20.637  1.00  0.00     0.074 C 
HETATM    3  C19 UNL     1      -4.039  10.346  19.474  1.00  0.00     0.018 C 
HETATM    4  C20 UNL     1      -5.121   9.977  18.501  1.00  0.00    -0.007 A 
HETATM    5  C21 UNL     1      -5.394   8.503  18.309  1.00  0.00     0.015 A 
HETATM    6  C22 UNL     1      -6.664   8.676  19.039  1.00  0.00    -0.035 A 
HETATM    7  C23 UNL     1      -7.299   7.780  19.971  1.00  0.00     0.011 A 
HETATM    8  C24 UNL     1      -7.947   8.108  18.608  1.00  0.00     0.011 A 
HETATM    9  C25 UNL     1      -6.446  10.148  19.219  1.00  0.00     0.012 A 
ENDROOT
BRANCH   1  10
HETATM   10  C11 UNL     1      -7.051  11.648  21.124  1.00  0.00     0.226 C 
HETATM   11  N2  UNL     1      -8.411  11.534  21.469  1.00  0.00    -0.338 N 
HETATM   12  C7  UNL     1      -9.307  12.594  21.924  1.00  0.00     0.179 C 
HETATM   13  C10 UNL     1      -9.180  10.311  21.453  1.00  0.00     0.127 C 
HETATM   14  C8  UNL     1     -10.689  12.018  21.907  1.00  0.00     0.037 C 
HETATM   15  C9  UNL     1     -10.595  10.760  21.105  1.00  0.00     0.022 C 
HETATM   16  O3  UNL     1      -6.555  12.825  21.263  1.00  0.00    -0.273 OA
BRANCH  12  17
HETATM   17  C6  UNL     1      -9.000  13.013  23.310  1.00  0.00     0.241 C 
HETATM   18  N1  UNL     1      -8.066  14.054  23.506  1.00  0.00    -0.354 N 
ATOM     19  H1  UNL     1      -7.638  14.479  22.683  1.00  0.00     0.162 HD
HETATM   20  O2  UNL     1      -9.529  12.485  24.313  1.00  0.00    -0.271 OA
BRANCH  18  21
HETATM   21  C4  UNL     1      -7.681  14.551  24.811  1.00  0.00     0.090 C 
HETATM   22  C5  UNL     1      -8.269  15.908  25.098  1.00  0.00     0.033 C 
BRANCH  21  23
HETATM   23  C2  UNL     1      -6.163  14.721  24.797  1.00  0.00     0.065 C 
HETATM   24  C1  UNL     1      -5.734  15.795  25.775  1.00  0.00     0.019 C 
BRANCH  23  25
HETATM   25  C3  UNL     1      -5.468  13.455  25.079  1.00  0.00     0.237 C 
HETATM   26  O1  UNL     1      -5.875  12.412  24.624  1.00  0.00    -0.306 OA
ENDBRANCH  23  25
ENDBRANCH  21  23
ENDBRANCH  18  21
ENDBRANCH  12  17
ENDBRANCH   1  10
BRANCH   2  27
HETATM   27  C14 UNL     1      -3.961  10.787  21.877  1.00  0.00     0.118 C 
BRANCH  27  28
HETATM   28  O4  UNL     1      -4.241   9.656  22.464  1.00  0.00    -0.349 OA
ATOM     29  H4  UNL     1      -3.744   9.493  23.258  1.00  0.00     0.219 HD
ENDBRANCH  27  28
BRANCH  27  30
HETATM   30  N3  UNL     1      -3.023  11.563  22.542  1.00  0.00    -0.361 N 
HETATM   31  C15 UNL     1      -2.583  11.471  23.906  1.00  0.00     0.151 C 
HETATM   32  C16 UNL     1      -1.055  11.507  23.870  1.00  0.00     0.187 C 
HETATM   33  O5  UNL     1      -0.553  11.281  22.596  1.00  0.00    -0.388 OA
HETATM   34  C17 UNL     1      -0.902  12.296  21.708  1.00  0.00     0.187 C 
HETATM   35  C18 UNL     1      -2.358  12.652  21.794  1.00  0.00     0.151 C 
ENDBRANCH  27  30
ENDBRANCH   2  27
TORSDOF 8
ENDMDL
MODEL 3
REMARK VINA RESULT: -7.456789062      2.988      6.676
REMARK  8 active torsions:
REMARK  status: ('A' for Active; 'I' for Inactive)
REMARK    1  A    between atoms: C2_2  and  C3_3 
REMARK    2  A    between atoms: C2_2  and  C4_5 
REMARK    3  A    between atoms: C4_5  and  N1_7 
REMARK       I    between atoms: N1_7  and  C6_9 
REMARK    4  A    between atoms: C6_9  and  C7_11 
REMARK       I    between atoms: N2_15  and  C11_16 
REMARK    5  A    between atoms: C11_16  and  C12_18 
REMARK    6  A    between atoms: C13_19  and  C14_20 
REMARK    7  A    between atoms: C14_20  and  O4_21 
REMARK    8  A    between atoms: C14_20  and  N3_23 
ROOT
HETATM    1  C12 UNL     1      -3.539  11.453  23.078  1.00  0.00     0.095 C 
HETATM    2  C13 UNL     1      -2.277  10.681  23.353  1.00  0.00     0.074 C 
HETATM    3  C19 UNL     1      -1.937  10.892  24.788  1.00  0.00     0.018 C 
HETATM    4  C20 UNL     1      -3.188  11.335  25.490  1.00  0.00    -0.007 A 
HETATM    5  C21 UNL     1      -3.215  12.756  26.005  1.00  0.00     0.015 A 
HETATM    6  C22 UNL     1      -4.176  13.090  24.938  1.00  0.00    -0.035 A 
HETATM    7  C23 UNL     1      -4.275  14.297  24.158  1.00  0.00     0.011 A 
HETATM    8  C24 UNL     1      -5.392  13.887  25.143  1.00  0.00     0.011 A 
HETATM    9  C25 UNL     1      -4.203  11.684  24.420  1.00  0.00     0.012 A 
ENDROOT
BRANCH   1  10
HETATM   10  C11 UNL     1      -4.419  10.831  22.080  1.00  0.00     0.226 C 
HETATM   11  N2  UNL     1      -5.324  11.446  21.195  1.00  0.00    -0.338 N 
HETATM   12  C7  UNL     1      -6.217  10.797  20.239  1.00  0.00     0.179 C 
HETATM   13  C10 UNL     1      -5.524  12.871  21.057  1.00  0.00     0.127 C 
HETATM   14  C8  UNL     1      -7.144  11.859  19.735  1.00  0.00     0.037 C 
HETATM   15  C9  UNL     1      -6.993  13.011  20.676  1.00  0.00     0.022 C 
HETATM   16  O3  UNL     1      -4.368   9.550  21.996  1.00  0.00    -0.273 OA
BRANCH  12  17
HETATM   17  C6  UNL     1      -5.474  10.248  19.083  1.00  0.00     0.241 C 
HETATM   18  N1  UNL     1      -6.063   9.200  18.342  1.00  0.00    -0.354 N 
ATOM     19  H1  UNL     1      -6.981   8.861  18.632  1.00  0.00     0.162 HD
HETATM   20  O2  UNL     1      -4.350  10.670  18.734  1.00  0.00    -0.271 OA
BRANCH  18  21
HETATM   21  C4  UNL     1      -5.437   8.579  17.194  1.00  0.00     0.090 C 
HETATM   22  C5  UNL     1      -5.914   9.174  15.895  1.00  0.00     0.033 C 
BRANCH  21  23
HETATM   23  C2  UNL     1      -5.862   7.111  17.189  1.00  0.00     0.065 C 
HETATM   24  C1  UNL     1      -5.329   6.394  18.412  1.00  0.00     0.019 C 
BRANCH  23  25
HETATM   25  C3  UNL     1      -7.324   6.965  17.097  1.00  0.00     0.237 C 
HETATM   26  O1  UNL     1      -8.030   7.201  18.049  1.00  0.00    -0.306 OA
ENDBRANCH  23  25
ENDBRANCH  21  23
ENDBRANCH  18  21
ENDBRANCH  12  17
ENDBRANCH   1  10
BRANCH   2  27
HETATM   27  C14 UNL     1      -1.149  10.950  22.474  1.00  0.00     0.118 C 
BRANCH  27  28
HETATM   28  O4  UNL     1      -0.226  10.028  22.490  1.00  0.00    -0.349 OA
ATOM     29  H4  UNL     1       0.565  10.276  22.954  1.00  0.00     0.219 HD
ENDBRANCH  27  28
BRANCH  27  30
HETATM   30  N3  UNL     1      -0.887  12.014  21.624  1.00  0.00    -0.361 N 
HETATM   31  C15 UNL     1      -1.210  12.153  20.232  1.00  0.00     0.151 C 
HETATM   32  C16 UNL     1      -1.847  13.534  20.072  1.00  0.00     0.187 C 
HETATM   33  O5  UNL     1      -2.228  14.082  21.290  1.00  0.00    -0.388 OA
HETATM   34  C17 UNL     1      -1.132  14.345  22.110  1.00  0.00     0.187 C 
HETATM   35  C18 UNL     1      -0.176  13.189  22.172  1.00  0.00     0.151 C 
ENDBRANCH  27  30
ENDBRANCH   2  27
TORSDOF 8
ENDMDL
MODEL 4
REMARK VINA RESULT: -7.434101434      2.598      6.591
REMARK  8 active torsions:
REMARK  status: ('A' for Active; 'I' for Inactive)
REMARK    1  A    between atoms: C2_2  and  C3_3 
REMARK    2  A    between atoms: C2_2  and  C4_5 
REMARK    3  A    between atoms: C4_5  and  N1_7 
REMARK       I    between atoms: N1_7  and  C6_9 
REMARK    4  A    between atoms: C6_9  and  C7_11 
REMARK       I    between atoms: N2_15  and  C11_16 
REMARK    5  A    between atoms: C11_16  and  C12_18 
REMARK    6  A    between atoms: C13_19  and  C14_20 
REMARK    7  A    between atoms: C14_20  and  O4_21 
REMARK    8  A    between atoms: C14_20  and  N3_23 
ROOT
HETATM    1  C12 UNL     1      -3.755  11.983  22.224  1.00  0.00     0.095 C 
HETATM    2  C13 UNL     1      -2.688  10.972  22.546  1.00  0.00     0.074 C 
HETATM    3  C19 UNL     1      -2.423  11.064  24.009  1.00  0.00     0.018 C 
HETATM    4  C20 UNL     1      -3.614  11.718  24.647  1.00  0.00    -0.007 A 
HETATM    5  C21 UNL     1      -3.407  13.099  25.226  1.00  0.00     0.015 A 
HETATM    6  C22 UNL     1      -4.204  13.649  24.114  1.00  0.00    -0.035 A 
HETATM    7  C23 UNL     1      -4.012  14.878  23.387  1.00  0.00     0.011 A 
HETATM    8  C24 UNL     1      -5.257  14.660  24.274  1.00  0.00     0.011 A 
HETATM    9  C25 UNL     1      -4.461  12.293  23.528  1.00  0.00     0.012 A 
ENDROOT
BRANCH   1  10
HETATM   10  C11 UNL     1      -4.661  11.578  21.142  1.00  0.00     0.226 C 
HETATM   11  N2  UNL     1      -4.913  12.219  19.915  1.00  0.00    -0.338 N 
HETATM   12  C7  UNL     1      -5.850  11.811  18.872  1.00  0.00     0.179 C 
HETATM   13  C10 UNL     1      -4.257  13.418  19.446  1.00  0.00     0.127 C 
HETATM   14  C8  UNL     1      -5.931  12.951  17.904  1.00  0.00     0.037 C 
HETATM   15  C9  UNL     1      -5.314  14.121  18.602  1.00  0.00     0.022 C 
HETATM   16  O3  UNL     1      -5.322  10.492  21.330  1.00  0.00    -0.273 OA
BRANCH  12  17
HETATM   17  C6  UNL     1      -5.369  10.619  18.139  1.00  0.00     0.241 C 
HETATM   18  N1  UNL     1      -5.869   9.353  18.515  1.00  0.00    -0.354 N 
ATOM     19  H1  UNL     1      -6.545   9.308  19.278  1.00  0.00     0.162 HD
HETATM   20  O2  UNL     1      -4.540  10.683  17.205  1.00  0.00    -0.271 OA
BRANCH  18  21
HETATM   21  C4  UNL     1      -5.475   8.114  17.877  1.00  0.00     0.090 C 
HETATM   22  C5  UNL     1      -6.188   7.897  16.567  1.00  0.00     0.033 C 
BRANCH  21  23
HETATM   23  C2  UNL     1      -5.899   6.976  18.804  1.00  0.00     0.065 C 
HETATM   24  C1  UNL     1      -7.314   7.188  19.302  1.00  0.00     0.019 C 
BRANCH  23  25
HETATM   25  C3  UNL     1      -5.769   5.662  18.153  1.00  0.00     0.237 C 
HETATM   26  O1  UNL     1      -6.558   4.777  18.384  1.00  0.00    -0.306 OA
ENDBRANCH  23  25
ENDBRANCH  21  23
ENDBRANCH  18  21
ENDBRANCH  12  17
ENDBRANCH   1  10
BRANCH   2  27
HETATM   27  C14 UNL     1      -1.467  11.045  21.759  1.00  0.00     0.118 C 
BRANCH  27  28
HETATM   28  O4  UNL     1      -0.955   9.885  21.454  1.00  0.00    -0.349 OA
ATOM     29  H4  UNL     1      -0.164   9.933  20.930  1.00  0.00     0.219 HD
ENDBRANCH  27  28
BRANCH  27  30
HETATM   30  N3  UNL     1      -0.756  12.134  21.276  1.00  0.00    -0.361 N 
HETATM   31  C15 UNL     1      -0.627  12.596  19.923  1.00  0.00     0.151 C 
HETATM   32  C16 UNL     1      -0.890  14.102  19.953  1.00  0.00     0.187 C 
HETATM   33  O5  UNL     1      -1.483  14.508  21.141  1.00  0.00    -0.388 OA
HETATM   34  C17 UNL     1      -0.641  14.324  22.236  1.00  0.00     0.187 C 
HETATM   35  C18 UNL     1      -0.006  12.964  22.243  1.00  0.00     0.151 C 
ENDBRANCH  27  30
ENDBRANCH   2  27
TORSDOF 8
ENDMDL
MODEL 5
REMARK VINA RESULT: -7.424856133      4.064      7.251
REMARK  8 active torsions:
REMARK  status: ('A' for Active; 'I' for Inactive)
REMARK    1  A    between atoms: C2_2  and  C3_3 
REMARK    2  A    between atoms: C2_2  and  C4_5 
REMARK    3  A    between atoms: C4_5  and  N1_7 
REMARK       I    between atoms: N1_7  and  C6_9 
REMARK    4  A    between atoms: C6_9  and  C7_11 
REMARK       I    between atoms: N2_15  and  C11_16 
REMARK    5  A    between atoms: C11_16  and  C12_18 
REMARK    6  A    between atoms: C13_19  and  C14_20 
REMARK    7  A    between atoms: C14_20  and  O4_21 
REMARK    8  A    between atoms: C14_20  and  N3_23 
ROOT
HETATM    1  C12 UNL     1      -5.877  13.098  23.406  1.00  0.00     0.095 C 
HETATM    2  C13 UNL     1      -5.138  12.337  24.474  1.00  0.00     0.074 C 
HETATM    3  C19 UNL     1      -4.925  13.274  25.613  1.00  0.00     0.018 C 
HETATM    4  C20 UNL     1      -5.924  14.386  25.479  1.00  0.00    -0.007 A 
HETATM    5  C21 UNL     1      -5.379  15.758  25.153  1.00  0.00     0.015 A 
HETATM    6  C22 UNL     1      -5.946  15.626  23.798  1.00  0.00    -0.035 A 
HETATM    7  C23 UNL     1      -5.397  16.069  22.542  1.00  0.00     0.011 A 
HETATM    8  C24 UNL     1      -6.694  16.685  23.110  1.00  0.00     0.011 A 
HETATM    9  C25 UNL     1      -6.532  14.278  24.094  1.00  0.00     0.012 A 
ENDROOT
BRANCH   1  10
HETATM   10  C11 UNL     1      -6.808  12.280  22.619  1.00  0.00     0.226 C 
HETATM   11  N2  UNL     1      -6.885  12.126  21.222  1.00  0.00    -0.338 N 
HETATM   12  C7  UNL     1      -7.849  11.332  20.465  1.00  0.00     0.179 C 
HETATM   13  C10 UNL     1      -5.987  12.726  20.263  1.00  0.00     0.127 C 
HETATM   14  C8  UNL     1      -7.667  11.704  19.026  1.00  0.00     0.037 C 
HETATM   15  C9  UNL     1      -6.853  12.959  19.030  1.00  0.00     0.022 C 
HETATM   16  O3  UNL     1      -7.679  11.609  23.285  1.00  0.00    -0.273 OA
BRANCH  12  17
HETATM   17  C6  UNL     1      -7.591   9.882  20.601  1.00  0.00     0.241 C 
HETATM   18  N1  UNL     1      -6.739   9.260  19.661  1.00  0.00    -0.354 N 
ATOM     19  H1  UNL     1      -6.332   9.835  18.924  1.00  0.00     0.162 HD
HETATM   20  O2  UNL     1      -8.094   9.183  21.508  1.00  0.00    -0.271 OA
BRANCH  18  21
HETATM   21  C4  UNL     1      -6.411   7.850  19.686  1.00  0.00     0.090 C 
HETATM   22  C5  UNL     1      -5.113   7.555  18.980  1.00  0.00     0.033 C 
BRANCH  21  23
HETATM   23  C2  UNL     1      -7.509   7.119  18.916  1.00  0.00     0.065 C 
HETATM   24  C1  UNL     1      -7.909   7.898  17.680  1.00  0.00     0.019 C 
BRANCH  23  25
HETATM   25  C3  UNL     1      -7.107   5.748  18.558  1.00  0.00     0.237 C 
HETATM   26  O1  UNL     1      -7.379   5.287  17.475  1.00  0.00    -0.306 OA
ENDBRANCH  23  25
ENDBRANCH  21  23
ENDBRANCH  18  21
ENDBRANCH  12  17
ENDBRANCH   1  10
BRANCH   2  27
HETATM   27  C14 UNL     1      -3.908  11.677  24.065  1.00  0.00     0.118 C 
BRANCH  27  28
HETATM   28  O4  UNL     1      -3.606  10.622  24.770  1.00  0.00    -0.349 OA
ATOM     29  H4  UNL     1      -2.679  10.531  24.959  1.00  0.00     0.219 HD
ENDBRANCH  27  28
BRANCH  27  30
HETATM   30  N3  UNL     1      -3.003  11.975  23.057  1.00  0.00    -0.361 N 
HETATM   31  C15 UNL     1      -2.210  13.159  22.881  1.00  0.00     0.151 C 
HETATM   32  C16 UNL     1      -0.785  12.686  22.595  1.00  0.00     0.187 C 
HETATM   33  O5  UNL     1      -0.601  11.348  22.913  1.00  0.00    -0.388 OA
HETATM   34  C17 UNL     1      -1.367  10.509  22.106  1.00  0.00     0.187 C 
HETATM   35  C18 UNL     1      -2.790  10.974  21.990  1.00  0.00     0.151 C 
ENDBRANCH  27  30
ENDBRANCH   2  27
TORSDOF 8
ENDMDL
