MODEL 1
REMARK VINA RESULT: -7.205709878      0.000      0.000
REMARK  3 active torsions:
REMARK  status: ('A' for Active; 'I' for Inactive)
REMARK       I    between atoms: C1_2  and  N1_3 
REMARK    1  A    between atoms: C1_2  and  C8_13 
REMARK    2  A    between atoms: N1_3  and  C2_5 
REMARK    3  A    between atoms: C13_18  and  C14_19 
REMARK       I    between atoms: C14_19  and  N3_21 
ROOT
HETATM    1  C8  UNL     1       7.097   1.210  17.445  1.00  0.00     0.091 C 
HETATM    2  C9  UNL     1       8.063   0.054  17.592  1.00  0.00     0.015 C 
HETATM    3  C10 UNL     1       9.285   0.427  18.411  1.00  0.00     0.001 C 
HETATM    4  C11 UNL     1      10.102   1.517  17.759  1.00  0.00     0.001 C 
HETATM    5  C12 UNL     1       9.151   2.375  16.978  1.00  0.00     0.015 C 
HETATM    6  C13 UNL     1       7.865   2.464  17.817  1.00  0.00     0.091 C 
ENDROOT
BRANCH   1   7
HETATM    7  C1  UNL     1       5.854   1.035  18.187  1.00  0.00     0.223 C 
HETATM    8  O1  UNL     1       4.794   0.680  17.593  1.00  0.00    -0.273 OA
HETATM    9  N1  UNL     1       5.733   1.241  19.598  1.00  0.00    -0.355 N 
ATOM     10  H1  UNL     1       6.562   1.529  20.117  1.00  0.00     0.162 HD
BRANCH   9  11
HETATM   11  C2  UNL     1       4.507   1.066  20.319  1.00  0.00     0.101 C 
HETATM   12  C3  UNL     1       3.605   2.264  20.292  1.00  0.00     0.027 C 
HETATM   13  C4  UNL     1       4.182   3.342  21.134  1.00  0.00     0.004 C 
HETATM   14  C5  UNL     1       3.879   3.289  22.575  1.00  0.00     0.019 C 
HETATM   15  C6  UNL     1       3.236   2.068  23.090  1.00  0.00     0.113 C 
HETATM   16  N2  UNL     1       3.618   0.838  22.503  1.00  0.00    -0.419 N 
HETATM   17  C7  UNL     1       4.874   0.862  21.796  1.00  0.00     0.139 C 
ATOM     18  H2  UNL     1       3.046  -0.004  22.574  1.00  0.00     0.153 HD
ENDBRANCH   9  11
ENDBRANCH   1   7
BRANCH   6  19
HETATM   19  C14 UNL     1       7.137   3.692  17.446  1.00  0.00     0.225 C 
HETATM   20  O2  UNL     1       6.623   3.820  16.311  1.00  0.00    -0.273 OA
HETATM   21  N3  UNL     1       6.994   4.766  18.353  1.00  0.00    -0.347 N 
HETATM   22  C15 UNL     1       7.433   4.970  19.717  1.00  0.00     0.160 A 
HETATM   23  C17 UNL     1       6.375   6.092  18.346  1.00  0.00     0.160 A 
HETATM   24  C16 UNL     1       6.912   6.381  19.704  1.00  0.00     0.108 A 
HETATM   25 BR1  UNL     1       5.610   6.687  21.085  1.00  0.00    -0.069 Br
HETATM   26 BR2  UNL     1       8.359   7.681  19.740  1.00  0.00    -0.069 Br
ENDBRANCH   6  19
TORSDOF 3
ENDMDL
MODEL 2
REMARK VINA RESULT: -7.061731727      2.798      5.374
REMARK  3 active torsions:
REMARK  status: ('A' for Active; 'I' for Inactive)
REMARK       I    between atoms: C1_2  and  N1_3 
REMARK    1  A    between atoms: C1_2  and  C8_13 
REMARK    2  A    between atoms: N1_3  and  C2_5 
REMARK    3  A    between atoms: C13_18  and  C14_19 
REMARK       I    between atoms: C14_19  and  N3_21 
ROOT
HETATM    1  C8  UNL     1       8.284   2.638  19.015  1.00  0.00     0.091 C 
HETATM    2  C9  UNL     1       9.451   2.613  18.052  1.00  0.00     0.015 C 
HETATM    3  C10 UNL     1       9.265   1.588  16.949  1.00  0.00     0.001 C 
HETATM    4  C11 UNL     1       9.189   0.177  17.483  1.00  0.00     0.001 C 
HETATM    5  C12 UNL     1       8.588   0.256  18.855  1.00  0.00     0.015 C 
HETATM    6  C13 UNL     1       7.511   1.353  18.791  1.00  0.00     0.091 C 
ENDROOT
BRANCH   1   7
HETATM    7  C1  UNL     1       7.468   3.843  18.918  1.00  0.00     0.223 C 
HETATM    8  O1  UNL     1       6.709   4.027  17.921  1.00  0.00    -0.273 OA
HETATM    9  N1  UNL     1       7.459   4.881  19.902  1.00  0.00    -0.355 N 
ATOM     10  H1  UNL     1       8.057   4.774  20.722  1.00  0.00     0.162 HD
BRANCH   9  11
HETATM   11  C2  UNL     1       6.653   6.062  19.799  1.00  0.00     0.101 C 
HETATM   12  C3  UNL     1       7.299   7.176  19.030  1.00  0.00     0.027 C 
HETATM   13  C4  UNL     1       8.407   7.757  19.829  1.00  0.00     0.004 C 
HETATM   14  C5  UNL     1       8.042   8.796  20.807  1.00  0.00     0.019 C 
HETATM   15  C6  UNL     1       6.608   9.006  21.073  1.00  0.00     0.113 C 
HETATM   16  N2  UNL     1       5.773   7.863  21.059  1.00  0.00    -0.419 N 
HETATM   17  C7  UNL     1       6.458   6.605  21.221  1.00  0.00     0.139 C 
ATOM     18  H2  UNL     1       4.762   7.925  20.943  1.00  0.00     0.153 HD
ENDBRANCH   9  11
ENDBRANCH   1   7
BRANCH   6  19
HETATM   19  C14 UNL     1       6.516   1.109  19.852  1.00  0.00     0.225 C 
HETATM   20  O2  UNL     1       6.873   0.846  21.023  1.00  0.00    -0.273 OA
HETATM   21  N3  UNL     1       5.130   1.162  19.587  1.00  0.00    -0.347 N 
HETATM   22  C15 UNL     1       4.364   1.437  18.391  1.00  0.00     0.160 A 
HETATM   23  C17 UNL     1       3.892   0.977  20.347  1.00  0.00     0.160 A 
HETATM   24  C16 UNL     1       3.077   1.138  19.111  1.00  0.00     0.108 A 
HETATM   25 BR1  UNL     1       1.865   2.630  19.082  1.00  0.00    -0.069 Br
HETATM   26 BR2  UNL     1       2.257  -0.503  18.465  1.00  0.00    -0.069 Br
ENDBRANCH   6  19
TORSDOF 3
ENDMDL
MODEL 3
REMARK VINA RESULT: -6.908968277      2.884      4.987
REMARK  3 active torsions:
REMARK  status: ('A' for Active; 'I' for Inactive)
REMARK       I    between atoms: C1_2  and  N1_3 
REMARK    1  A    between atoms: C1_2  and  C8_13 
REMARK    2  A    between atoms: N1_3  and  C2_5 
REMARK    3  A    between atoms: C13_18  and  C14_19 
REMARK       I    between atoms: C14_19  and  N3_21 
ROOT
HETATM    1  C8  UNL     1       8.317   2.631  19.089  1.00  0.00     0.091 C 
HETATM    2  C9  UNL     1       9.434   2.629  18.069  1.00  0.00     0.015 C 
HETATM    3  C10 UNL     1       9.180   1.649  16.939  1.00  0.00     0.001 C 
HETATM    4  C11 UNL     1       9.111   0.220  17.424  1.00  0.00     0.001 C 
HETATM    5  C12 UNL     1       8.580   0.254  18.826  1.00  0.00     0.015 C 
HETATM    6  C13 UNL     1       7.517   1.365  18.856  1.00  0.00     0.091 C 
ENDROOT
BRANCH   1   7
HETATM    7  C1  UNL     1       7.514   3.849  19.077  1.00  0.00     0.223 C 
HETATM    8  O1  UNL     1       6.976   4.255  18.005  1.00  0.00    -0.273 OA
HETATM    9  N1  UNL     1       7.276   4.658  20.233  1.00  0.00    -0.355 N 
ATOM     10  H1  UNL     1       7.691   4.369  21.119  1.00  0.00     0.162 HD
BRANCH   9  11
HETATM   11  C2  UNL     1       6.485   5.852  20.212  1.00  0.00     0.101 C 
HETATM   12  C3  UNL     1       7.249   7.097  20.554  1.00  0.00     0.027 C 
HETATM   13  C4  UNL     1       7.579   7.099  22.001  1.00  0.00     0.004 C 
HETATM   14  C5  UNL     1       6.546   7.620  22.913  1.00  0.00     0.019 C 
HETATM   15  C6  UNL     1       5.208   7.874  22.352  1.00  0.00     0.113 C 
HETATM   16  N2  UNL     1       4.745   6.985  21.353  1.00  0.00    -0.419 N 
HETATM   17  C7  UNL     1       5.420   5.712  21.309  1.00  0.00     0.139 C 
ATOM     18  H2  UNL     1       3.990   7.227  20.711  1.00  0.00     0.153 HD
ENDBRANCH   9  11
ENDBRANCH   1   7
BRANCH   6  19
HETATM   19  C14 UNL     1       6.572   1.093  19.956  1.00  0.00     0.225 C 
HETATM   20  O2  UNL     1       6.984   0.790  21.100  1.00  0.00    -0.273 OA
HETATM   21  N3  UNL     1       5.175   1.162  19.761  1.00  0.00    -0.347 N 
HETATM   22  C15 UNL     1       4.354   1.480  18.613  1.00  0.00     0.160 A 
HETATM   23  C17 UNL     1       3.974   0.960  20.573  1.00  0.00     0.160 A 
HETATM   24  C16 UNL     1       3.101   1.165  19.384  1.00  0.00     0.108 A 
HETATM   25 BR1  UNL     1       1.900   2.664  19.462  1.00  0.00    -0.069 Br
HETATM   26 BR2  UNL     1       2.240  -0.450  18.727  1.00  0.00    -0.069 Br
ENDBRANCH   6  19
TORSDOF 3
ENDMDL
MODEL 4
REMARK VINA RESULT: -6.903807312      5.198      7.706
REMARK  3 active torsions:
REMARK  status: ('A' for Active; 'I' for Inactive)
REMARK       I    between atoms: C1_2  and  N1_3 
REMARK    1  A    between atoms: C1_2  and  C8_13 
REMARK    2  A    between atoms: N1_3  and  C2_5 
REMARK    3  A    between atoms: C13_18  and  C14_19 
REMARK       I    between atoms: C14_19  and  N3_21 
ROOT
HETATM    1  C8  UNL     1       8.109   8.603  20.835  1.00  0.00     0.091 C 
HETATM    2  C9  UNL     1       7.871   9.872  20.045  1.00  0.00     0.015 C 
HETATM    3  C10 UNL     1       6.516   9.878  19.362  1.00  0.00     0.001 C 
HETATM    4  C11 UNL     1       6.382   8.771  18.343  1.00  0.00     0.001 C 
HETATM    5  C12 UNL     1       7.232   7.630  18.817  1.00  0.00     0.015 C 
HETATM    6  C13 UNL     1       7.089   7.593  20.348  1.00  0.00     0.091 C 
ENDROOT
BRANCH   1   7
HETATM    7  C1  UNL     1       8.101   8.801  22.280  1.00  0.00     0.223 C 
HETATM    8  O1  UNL     1       7.122   9.370  22.847  1.00  0.00    -0.273 OA
HETATM    9  N1  UNL     1       9.160   8.385  23.147  1.00  0.00    -0.355 N 
ATOM     10  H1  UNL     1       9.970   7.923  22.734  1.00  0.00     0.162 HD
BRANCH   9  11
HETATM   11  C2  UNL     1       9.144   8.583  24.566  1.00  0.00     0.101 C 
HETATM   12  C3  UNL     1      10.480   8.940  25.149  1.00  0.00     0.027 C 
HETATM   13  C4  UNL     1      11.369   7.752  25.121  1.00  0.00     0.004 C 
HETATM   14  C5  UNL     1      11.254   6.815  26.252  1.00  0.00     0.019 C 
HETATM   15  C6  UNL     1      10.127   7.004  27.181  1.00  0.00     0.113 C 
HETATM   16  N2  UNL     1       8.901   7.445  26.629  1.00  0.00    -0.419 N 
HETATM   17  C7  UNL     1       8.762   7.243  25.209  1.00  0.00     0.139 C 
ATOM     18  H2  UNL     1       8.168   7.875  27.195  1.00  0.00     0.153 HD
ENDBRANCH   9  11
ENDBRANCH   1   7
BRANCH   6  19
HETATM   19  C14 UNL     1       7.385   6.228  20.823  1.00  0.00     0.225 C 
HETATM   20  O2  UNL     1       7.789   6.026  21.991  1.00  0.00    -0.273 OA
HETATM   21  N3  UNL     1       7.227   5.105  19.982  1.00  0.00    -0.347 N 
HETATM   22  C15 UNL     1       6.786   4.952  18.613  1.00  0.00     0.160 A 
HETATM   23  C17 UNL     1       7.420   3.657  20.090  1.00  0.00     0.160 A 
HETATM   24  C16 UNL     1       7.086   3.478  18.650  1.00  0.00     0.108 A 
HETATM   25 BR1  UNL     1       5.532   2.412  18.266  1.00  0.00    -0.069 Br
HETATM   26 BR2  UNL     1       8.601   3.025  17.519  1.00  0.00    -0.069 Br
ENDBRANCH   6  19
TORSDOF 3
ENDMDL
MODEL 5
REMARK VINA RESULT: -6.889374108      5.385      8.733
REMARK  3 active torsions:
REMARK  status: ('A' for Active; 'I' for Inactive)
REMARK       I    between atoms: C1_2  and  N1_3 
REMARK    1  A    between atoms: C1_2  and  C8_13 
REMARK    2  A    between atoms: N1_3  and  C2_5 
REMARK    3  A    between atoms: C13_18  and  C14_19 
REMARK       I    between atoms: C14_19  and  N3_21 
ROOT
HETATM    1  C8  UNL     1       8.689   9.057  23.655  1.00  0.00     0.091 C 
HETATM    2  C9  UNL     1      10.042   9.362  24.259  1.00  0.00     0.015 C 
HETATM    3  C10 UNL     1      10.783   8.104  24.674  1.00  0.00     0.001 C 
HETATM    4  C11 UNL     1      10.054   7.339  25.753  1.00  0.00     0.001 C 
HETATM    5  C12 UNL     1       8.588   7.590  25.560  1.00  0.00     0.015 C 
HETATM    6  C13 UNL     1       8.355   7.629  24.040  1.00  0.00     0.091 C 
ENDROOT
BRANCH   1   7
HETATM    7  C1  UNL     1       8.614   9.316  22.221  1.00  0.00     0.223 C 
HETATM    8  O1  UNL     1       9.440   8.778  21.427  1.00  0.00    -0.273 OA
HETATM    9  N1  UNL     1       7.639  10.169  21.615  1.00  0.00    -0.355 N 
ATOM     10  H1  UNL     1       6.954  10.625  22.219  1.00  0.00     0.162 HD
BRANCH   9  11
HETATM   11  C2  UNL     1       7.572  10.417  20.206  1.00  0.00     0.101 C 
HETATM   12  C3  UNL     1       7.864  11.838  19.821  1.00  0.00     0.027 C 
HETATM   13  C4  UNL     1       6.734  12.708  20.232  1.00  0.00     0.004 C 
HETATM   14  C5  UNL     1       5.602  12.807  19.296  1.00  0.00     0.019 C 
HETATM   15  C6  UNL     1       5.577  11.873  18.157  1.00  0.00     0.113 C 
HETATM   16  N2  UNL     1       6.067  10.564  18.383  1.00  0.00    -0.419 N 
HETATM   17  C7  UNL     1       6.124  10.163  19.767  1.00  0.00     0.139 C 
ATOM     18  H2  UNL     1       6.359   9.950  17.623  1.00  0.00     0.153 HD
ENDBRANCH   9  11
ENDBRANCH   1   7
BRANCH   6  19
HETATM   19  C14 UNL     1       6.946   7.293  23.763  1.00  0.00     0.225 C 
HETATM   20  O2  UNL     1       6.047   7.545  24.598  1.00  0.00    -0.273 OA
HETATM   21  N3  UNL     1       6.560   6.675  22.553  1.00  0.00    -0.347 N 
HETATM   22  C15 UNL     1       7.298   6.253  21.382  1.00  0.00     0.160 A 
HETATM   23  C17 UNL     1       5.314   6.202  21.948  1.00  0.00     0.160 A 
HETATM   24  C16 UNL     1       6.057   5.649  20.782  1.00  0.00     0.108 A 
HETATM   25 BR1  UNL     1       5.636   6.412  19.068  1.00  0.00    -0.069 Br
HETATM   26 BR2  UNL     1       6.154   3.708  20.733  1.00  0.00    -0.069 Br
ENDBRANCH   6  19
TORSDOF 3
ENDMDL
