MODEL 1
REMARK VINA RESULT: -9.387771516      0.000      0.000
REMARK  9 active torsions:
REMARK  status: ('A' for Active; 'I' for Inactive)
REMARK    1  A    between atoms: N1_1  and  C1_5 
REMARK    2  A    between atoms: C1_5  and  C2_6 
REMARK       I    between atoms: C2_6  and  N2_8 
REMARK    3  A    between atoms: N2_8  and  C3_10 
REMARK    4  A    between atoms: C3_10  and  C4_11 
REMARK    5  A    between atoms: C4_11  and  O2_12 
REMARK    6  A    between atoms: C4_11  and  N3_14 
REMARK    7  A    between atoms: N4_23  and  C11_24 
REMARK    8  A    between atoms: C11_24  and  O3_25 
REMARK    9  A    between atoms: C11_24  and  C12_27 
ROOT
HETATM    1  C3  UNL     1       7.262   8.021  21.346  1.00  0.00     0.100 C 
HETATM    2  C9  UNL     1       6.408   6.752  21.450  1.00  0.00     0.059 C 
HETATM    3  C10 UNL     1       7.041   5.558  20.829  1.00  0.00     0.127 C 
HETATM    4  N4  UNL     1       7.533   5.907  19.502  1.00  0.00    -0.365 N 
HETATM    5  C22 UNL     1       8.358   7.070  19.390  1.00  0.00     0.127 C 
HETATM    6  C23 UNL     1       8.596   7.568  20.849  1.00  0.00     0.059 C 
ENDROOT
BRANCH   1   7
HETATM    7  N2  UNL     1       6.620   8.934  20.404  1.00  0.00    -0.342 N 
HETATM    8  C2  UNL     1       7.105  10.222  20.151  1.00  0.00     0.255 C 
HETATM    9  O1  UNL     1       8.124  10.735  20.682  1.00  0.00    -0.271 OA
ATOM     10  H2  UNL     1       5.784   8.620  19.911  1.00  0.00     0.163 HD
BRANCH   8  11
HETATM   11  C1  UNL     1       6.400  11.130  19.173  1.00  0.00     0.203 A 
HETATM   12  C24 UNL     1       6.154  12.529  19.534  1.00  0.00     0.052 A 
HETATM   13  C25 UNL     1       5.003  11.573  19.542  1.00  0.00     0.052 A 
BRANCH  11  14
HETATM   14  N1  UNL     1       6.556  10.800  17.774  1.00  0.00    -0.061 N 
ATOM     15  H13 UNL     1       7.532  10.914  17.499  1.00  0.00     0.275 HD
ATOM     16  H12 UNL     1       6.443   9.795  17.641  1.00  0.00     0.275 HD
ATOM     17  H11 UNL     1       5.954  11.306  17.124  1.00  0.00     0.275 HD
ENDBRANCH  11  14
ENDBRANCH   8  11
ENDBRANCH   1   7
BRANCH   1  18
HETATM   18  C4  UNL     1       7.247   8.659  22.673  1.00  0.00     0.143 C 
BRANCH  18  19
HETATM   19  O2  UNL     1       6.255   9.441  22.986  1.00  0.00    -0.348 OA
ATOM     20  H2  UNL     1       6.428  10.359  23.155  1.00  0.00     0.219 HD
ENDBRANCH  18  19
BRANCH  18  21
HETATM   21  N3  UNL     1       8.207   8.534  23.705  1.00  0.00    -0.357 N 
HETATM   22  C5  UNL     1       8.153   7.515  24.729  1.00  0.00     0.131 C 
HETATM   23  C6  UNL     1       9.006   8.026  25.848  1.00  0.00     0.100 C 
HETATM   24  C7  UNL     1      10.163   8.635  25.032  1.00  0.00     0.261 C 
HETATM   25  F1  UNL     1      10.884   7.574  24.533  1.00  0.00    -0.204 F 
HETATM   26  F2  UNL     1      10.923   9.478  25.776  1.00  0.00    -0.204 F 
HETATM   27  C8  UNL     1       9.362   9.350  23.936  1.00  0.00     0.203 C 
ENDBRANCH  18  21
ENDBRANCH   1  18
BRANCH   4  28
HETATM   28  C11 UNL     1       7.181   5.117  18.418  1.00  0.00     0.122 C 
BRANCH  28  29
HETATM   29  O3  UNL     1       6.442   5.730  17.531  1.00  0.00    -0.349 OA
ATOM     30  H3  UNL     1       6.117   5.164  16.841  1.00  0.00     0.219 HD
ENDBRANCH  28  29
BRANCH  28  31
HETATM   31  C12 UNL     1       7.479   3.727  18.082  1.00  0.00     0.026 C 
HETATM   32  C13 UNL     1       6.503   2.716  18.647  1.00  0.00     0.022 C 
HETATM   33  C14 UNL     1       6.909   1.346  18.138  1.00  0.00    -0.013 C 
HETATM   34  C15 UNL     1       8.300   0.959  18.542  1.00  0.00     0.009 C 
HETATM   35  C19 UNL     1       6.822   1.234  16.633  1.00  0.00     0.009 C 
HETATM   36  C16 UNL     1       9.247   1.984  17.959  1.00  0.00    -0.013 C 
HETATM   37  C17 UNL     1       9.188   2.027  16.474  1.00  0.00     0.009 C 
HETATM   38  C21 UNL     1       8.858   3.344  18.509  1.00  0.00     0.022 C 
HETATM   39  C18 UNL     1       7.756   2.274  16.046  1.00  0.00    -0.013 C 
HETATM   40  C20 UNL     1       7.331   3.601  16.554  1.00  0.00     0.022 C 
ENDBRANCH  28  31
ENDBRANCH   4  28
TORSDOF 9
ENDMDL
MODEL 2
REMARK VINA RESULT: -9.365088114      0.230      1.289
REMARK  9 active torsions:
REMARK  status: ('A' for Active; 'I' for Inactive)
REMARK    1  A    between atoms: N1_1  and  C1_5 
REMARK    2  A    between atoms: C1_5  and  C2_6 
REMARK       I    between atoms: C2_6  and  N2_8 
REMARK    3  A    between atoms: N2_8  and  C3_10 
REMARK    4  A    between atoms: C3_10  and  C4_11 
REMARK    5  A    between atoms: C4_11  and  O2_12 
REMARK    6  A    between atoms: C4_11  and  N3_14 
REMARK    7  A    between atoms: N4_23  and  C11_24 
REMARK    8  A    between atoms: C11_24  and  O3_25 
REMARK    9  A    between atoms: C11_24  and  C12_27 
ROOT
HETATM    1  C3  UNL     1       7.089   7.944  21.385  1.00  0.00     0.100 C 
HETATM    2  C9  UNL     1       6.136   6.748  21.484  1.00  0.00     0.059 C 
HETATM    3  C10 UNL     1       6.675   5.506  20.870  1.00  0.00     0.127 C 
HETATM    4  N4  UNL     1       7.204   5.811  19.546  1.00  0.00    -0.365 N 
HETATM    5  C22 UNL     1       8.121   6.904  19.440  1.00  0.00     0.127 C 
HETATM    6  C23 UNL     1       8.386   7.385  20.899  1.00  0.00     0.059 C 
ENDROOT
BRANCH   1   7
HETATM    7  N2  UNL     1       6.530   8.904  20.437  1.00  0.00    -0.342 N 
HETATM    8  C2  UNL     1       7.102  10.160  20.208  1.00  0.00     0.255 C 
HETATM    9  O1  UNL     1       8.138  10.603  20.769  1.00  0.00    -0.271 OA
ATOM     10  H2  UNL     1       5.689   8.648  19.921  1.00  0.00     0.163 HD
BRANCH   8  11
HETATM   11  C1  UNL     1       6.481  11.119  19.222  1.00  0.00     0.203 A 
HETATM   12  C24 UNL     1       6.293  12.523  19.599  1.00  0.00     0.052 A 
HETATM   13  C25 UNL     1       5.096  11.628  19.548  1.00  0.00     0.052 A 
BRANCH  11  14
HETATM   14  N1  UNL     1       6.671  10.805  17.824  1.00  0.00    -0.061 N 
ATOM     15  H13 UNL     1       7.594  10.392  17.685  1.00  0.00     0.275 HD
ATOM     16  H12 UNL     1       6.076  10.019  17.562  1.00  0.00     0.275 HD
ATOM     17  H11 UNL     1       6.535  11.575  17.169  1.00  0.00     0.275 HD
ENDBRANCH  11  14
ENDBRANCH   8  11
ENDBRANCH   1   7
BRANCH   1  18
HETATM   18  C4  UNL     1       7.115   8.584  22.711  1.00  0.00     0.143 C 
BRANCH  18  19
HETATM   19  O2  UNL     1       6.122   9.347  23.064  1.00  0.00    -0.348 OA
ATOM     20  H2  UNL     1       5.384   8.960  23.520  1.00  0.00     0.219 HD
ENDBRANCH  18  19
BRANCH  18  21
HETATM   21  N3  UNL     1       8.119   8.480  23.703  1.00  0.00    -0.357 N 
HETATM   22  C5  UNL     1       8.138   7.451  24.717  1.00  0.00     0.131 C 
HETATM   23  C6  UNL     1       9.017   7.979  25.807  1.00  0.00     0.100 C 
HETATM   24  C7  UNL     1      10.122   8.632  24.954  1.00  0.00     0.261 C 
HETATM   25  F1  UNL     1      10.856   7.599  24.416  1.00  0.00    -0.204 F 
HETATM   26  F2  UNL     1      10.884   9.492  25.677  1.00  0.00    -0.204 F 
HETATM   27  C8  UNL     1       9.255   9.331  23.898  1.00  0.00     0.203 C 
ENDBRANCH  18  21
ENDBRANCH   1  18
BRANCH   4  28
HETATM   28  C11 UNL     1       6.798   5.049  18.461  1.00  0.00     0.122 C 
BRANCH  28  29
HETATM   29  O3  UNL     1       5.866   5.612  17.737  1.00  0.00    -0.349 OA
ATOM     30  H3  UNL     1       5.292   4.994  17.299  1.00  0.00     0.219 HD
ENDBRANCH  28  29
BRANCH  28  31
HETATM   31  C12 UNL     1       7.214   3.736  17.976  1.00  0.00     0.026 C 
HETATM   32  C13 UNL     1       7.278   3.608  16.469  1.00  0.00     0.022 C 
HETATM   33  C14 UNL     1       7.802   2.221  16.144  1.00  0.00    -0.013 C 
HETATM   34  C15 UNL     1       6.937   1.126  16.689  1.00  0.00     0.009 C 
HETATM   35  C19 UNL     1       9.206   1.996  16.655  1.00  0.00     0.009 C 
HETATM   36  C16 UNL     1       6.899   1.280  18.194  1.00  0.00    -0.013 C 
HETATM   37  C17 UNL     1       8.248   1.160  18.808  1.00  0.00     0.009 C 
HETATM   38  C21 UNL     1       6.333   2.653  18.507  1.00  0.00     0.022 C 
HETATM   39  C18 UNL     1       9.174   2.169  18.161  1.00  0.00    -0.013 C 
HETATM   40  C20 UNL     1       8.666   3.532  18.448  1.00  0.00     0.022 C 
ENDBRANCH  28  31
ENDBRANCH   4  28
TORSDOF 9
ENDMDL
MODEL 3
REMARK VINA RESULT: -8.956729224      3.143      5.073
REMARK  9 active torsions:
REMARK  status: ('A' for Active; 'I' for Inactive)
REMARK    1  A    between atoms: N1_1  and  C1_5 
REMARK    2  A    between atoms: C1_5  and  C2_6 
REMARK       I    between atoms: C2_6  and  N2_8 
REMARK    3  A    between atoms: N2_8  and  C3_10 
REMARK    4  A    between atoms: C3_10  and  C4_11 
REMARK    5  A    between atoms: C4_11  and  O2_12 
REMARK    6  A    between atoms: C4_11  and  N3_14 
REMARK    7  A    between atoms: N4_23  and  C11_24 
REMARK    8  A    between atoms: C11_24  and  O3_25 
REMARK    9  A    between atoms: C11_24  and  C12_27 
ROOT
HETATM    1  C3  UNL     1       6.378   7.640  20.024  1.00  0.00     0.100 C 
HETATM    2  C9  UNL     1       7.308   7.008  18.981  1.00  0.00     0.059 C 
HETATM    3  C10 UNL     1       6.910   5.630  18.588  1.00  0.00     0.127 C 
HETATM    4  N4  UNL     1       6.643   4.844  19.787  1.00  0.00    -0.365 N 
HETATM    5  C22 UNL     1       5.751   5.403  20.755  1.00  0.00     0.127 C 
HETATM    6  C23 UNL     1       5.205   6.721  20.125  1.00  0.00     0.059 C 
ENDROOT
BRANCH   1   7
HETATM    7  N2  UNL     1       7.099   7.732  21.290  1.00  0.00    -0.342 N 
HETATM    8  C2  UNL     1       8.333   8.381  21.411  1.00  0.00     0.255 C 
HETATM    9  O1  UNL     1       8.952   8.950  20.476  1.00  0.00    -0.271 OA
ATOM     10  H2  UNL     1       6.686   7.307  22.120  1.00  0.00     0.163 HD
BRANCH   8  11
HETATM   11  C1  UNL     1       9.040   8.442  22.743  1.00  0.00     0.203 A 
HETATM   12  C24 UNL     1       8.536   7.649  23.868  1.00  0.00     0.052 A 
HETATM   13  C25 UNL     1       8.307   9.128  23.872  1.00  0.00     0.052 A 
BRANCH  11  14
HETATM   14  N1  UNL     1      10.454   8.744  22.698  1.00  0.00    -0.061 N 
ATOM     15  H13 UNL     1      10.953   7.993  22.221  1.00  0.00     0.275 HD
ATOM     16  H12 UNL     1      10.622   9.517  22.053  1.00  0.00     0.275 HD
ATOM     17  H11 UNL     1      10.899   8.940  23.595  1.00  0.00     0.275 HD
ENDBRANCH  11  14
ENDBRANCH   8  11
ENDBRANCH   1   7
BRANCH   1  18
HETATM   18  C4  UNL     1       6.091   9.011  19.568  1.00  0.00     0.143 C 
BRANCH  18  19
HETATM   19  O2  UNL     1       5.897   9.943  20.454  1.00  0.00    -0.348 OA
ATOM     20  H2  UNL     1       5.043  10.021  20.862  1.00  0.00     0.219 HD
ENDBRANCH  18  19
BRANCH  18  21
HETATM   21  N3  UNL     1       5.991   9.477  18.235  1.00  0.00    -0.357 N 
HETATM   22  C5  UNL     1       4.801   9.340  17.427  1.00  0.00     0.131 C 
HETATM   23  C6  UNL     1       5.261   9.484  16.010  1.00  0.00     0.100 C 
HETATM   24  C7  UNL     1       6.285  10.623  16.186  1.00  0.00     0.261 C 
HETATM   25  F1  UNL     1       5.554  11.768  16.409  1.00  0.00    -0.204 F 
HETATM   26  F2  UNL     1       7.114  10.733  15.117  1.00  0.00    -0.204 F 
HETATM   27  C8  UNL     1       6.996  10.139  17.457  1.00  0.00     0.203 C 
ENDBRANCH  18  21
ENDBRANCH   1  18
BRANCH   4  28
HETATM   28  C11 UNL     1       7.258   3.611  19.941  1.00  0.00     0.122 C 
BRANCH  28  29
HETATM   29  O3  UNL     1       7.437   3.260  21.187  1.00  0.00    -0.349 OA
ATOM     30  H3  UNL     1       6.741   3.538  21.770  1.00  0.00     0.219 HD
ENDBRANCH  28  29
BRANCH  28  31
HETATM   31  C12 UNL     1       7.745   2.632  18.973  1.00  0.00     0.026 C 
HETATM   32  C13 UNL     1       7.890   1.225  19.513  1.00  0.00     0.022 C 
HETATM   33  C14 UNL     1       8.322   0.331  18.366  1.00  0.00    -0.013 C 
HETATM   34  C15 UNL     1       9.622   0.753  17.752  1.00  0.00     0.009 C 
HETATM   35  C19 UNL     1       7.293   0.264  17.261  1.00  0.00     0.009 C 
HETATM   36  C16 UNL     1       9.442   2.157  17.219  1.00  0.00    -0.013 C 
HETATM   37  C17 UNL     1       8.386   2.233  16.175  1.00  0.00     0.009 C 
HETATM   38  C21 UNL     1       9.053   3.050  18.383  1.00  0.00     0.022 C 
HETATM   39  C18 UNL     1       7.096   1.673  16.739  1.00  0.00    -0.013 C 
HETATM   40  C20 UNL     1       6.668   2.521  17.878  1.00  0.00     0.022 C 
ENDBRANCH  28  31
ENDBRANCH   4  28
TORSDOF 9
ENDMDL
MODEL 4
REMARK VINA RESULT: -8.801699026      2.805      4.913
REMARK  9 active torsions:
REMARK  status: ('A' for Active; 'I' for Inactive)
REMARK    1  A    between atoms: N1_1  and  C1_5 
REMARK    2  A    between atoms: C1_5  and  C2_6 
REMARK       I    between atoms: C2_6  and  N2_8 
REMARK    3  A    between atoms: N2_8  and  C3_10 
REMARK    4  A    between atoms: C3_10  and  C4_11 
REMARK    5  A    between atoms: C4_11  and  O2_12 
REMARK    6  A    between atoms: C4_11  and  N3_14 
REMARK    7  A    between atoms: N4_23  and  C11_24 
REMARK    8  A    between atoms: C11_24  and  O3_25 
REMARK    9  A    between atoms: C11_24  and  C12_27 
ROOT
HETATM    1  C3  UNL     1       7.525   7.967  20.468  1.00  0.00     0.100 C 
HETATM    2  C9  UNL     1       8.155   7.210  19.294  1.00  0.00     0.059 C 
HETATM    3  C10 UNL     1       7.402   5.990  18.900  1.00  0.00     0.127 C 
HETATM    4  N4  UNL     1       7.092   5.208  20.091  1.00  0.00    -0.365 N 
HETATM    5  C22 UNL     1       6.472   5.891  21.184  1.00  0.00     0.127 C 
HETATM    6  C23 UNL     1       6.186   7.338  20.679  1.00  0.00     0.059 C 
ENDROOT
BRANCH   1   7
HETATM    7  N2  UNL     1       8.384   7.806  21.638  1.00  0.00    -0.342 N 
HETATM    8  C2  UNL     1       8.198   8.536  22.817  1.00  0.00     0.255 C 
HETATM    9  O1  UNL     1       7.295   9.390  23.012  1.00  0.00    -0.271 OA
ATOM     10  H2  UNL     1       9.150   7.134  21.593  1.00  0.00     0.163 HD
BRANCH   8  11
HETATM   11  C1  UNL     1       9.119   8.337  23.996  1.00  0.00     0.203 A 
HETATM   12  C24 UNL     1       9.992   9.434  24.425  1.00  0.00     0.052 A 
HETATM   13  C25 UNL     1      10.600   8.275  23.700  1.00  0.00     0.052 A 
BRANCH  11  14
HETATM   14  N1  UNL     1       8.683   7.381  24.988  1.00  0.00    -0.061 N 
ATOM     15  H13 UNL     1       7.946   6.791  24.601  1.00  0.00     0.275 HD
ATOM     16  H12 UNL     1       9.414   6.685  25.143  1.00  0.00     0.275 HD
ATOM     17  H11 UNL     1       8.381   7.768  25.882  1.00  0.00     0.275 HD
ENDBRANCH  11  14
ENDBRANCH   8  11
ENDBRANCH   1   7
BRANCH   1  18
HETATM   18  C4  UNL     1       7.520   9.395  20.105  1.00  0.00     0.143 C 
BRANCH  18  19
HETATM   19  O2  UNL     1       8.608  10.091  20.269  1.00  0.00    -0.348 OA
ATOM     20  H2  UNL     1       9.436   9.636  20.366  1.00  0.00     0.219 HD
ENDBRANCH  18  19
BRANCH  18  21
HETATM   21  N3  UNL     1       6.446  10.151  19.578  1.00  0.00    -0.357 N 
HETATM   22  C5  UNL     1       5.512  10.891  20.396  1.00  0.00     0.131 C 
HETATM   23  C6  UNL     1       4.308  11.105  19.534  1.00  0.00     0.100 C 
HETATM   24  C7  UNL     1       5.002  11.413  18.193  1.00  0.00     0.261 C 
HETATM   25  F1  UNL     1       5.540  12.674  18.318  1.00  0.00    -0.204 F 
HETATM   26  F2  UNL     1       4.149  11.312  17.142  1.00  0.00    -0.204 F 
HETATM   27  C8  UNL     1       6.083  10.324  18.203  1.00  0.00     0.203 C 
ENDBRANCH  18  21
ENDBRANCH   1  18
BRANCH   4  28
HETATM   28  C11 UNL     1       7.411   3.859  20.119  1.00  0.00     0.122 C 
BRANCH  28  29
HETATM   29  O3  UNL     1       7.581   3.379  21.323  1.00  0.00    -0.349 OA
ATOM     30  H3  UNL     1       7.375   2.455  21.402  1.00  0.00     0.219 HD
ENDBRANCH  28  29
BRANCH  28  31
HETATM   31  C12 UNL     1       7.596   2.874  19.056  1.00  0.00     0.026 C 
HETATM   32  C13 UNL     1       6.530   2.895  17.982  1.00  0.00     0.022 C 
HETATM   33  C14 UNL     1       6.918   1.877  16.925  1.00  0.00    -0.013 C 
HETATM   34  C15 UNL     1       7.035   0.485  17.468  1.00  0.00     0.009 C 
HETATM   35  C19 UNL     1       8.224   2.215  16.243  1.00  0.00     0.009 C 
HETATM   36  C16 UNL     1       8.109   0.499  18.533  1.00  0.00    -0.013 C 
HETATM   37  C17 UNL     1       9.434   0.903  17.993  1.00  0.00     0.009 C 
HETATM   38  C21 UNL     1       7.689   1.488  19.605  1.00  0.00     0.022 C 
HETATM   39  C18 UNL     1       9.298   2.249  17.312  1.00  0.00    -0.013 C 
HETATM   40  C20 UNL     1       8.897   3.255  18.324  1.00  0.00     0.022 C 
ENDBRANCH  28  31
ENDBRANCH   4  28
TORSDOF 9
ENDMDL
MODEL 5
REMARK VINA RESULT: -8.726202662      2.612      4.736
REMARK  9 active torsions:
REMARK  status: ('A' for Active; 'I' for Inactive)
REMARK    1  A    between atoms: N1_1  and  C1_5 
REMARK    2  A    between atoms: C1_5  and  C2_6 
REMARK       I    between atoms: C2_6  and  N2_8 
REMARK    3  A    between atoms: N2_8  and  C3_10 
REMARK    4  A    between atoms: C3_10  and  C4_11 
REMARK    5  A    between atoms: C4_11  and  O2_12 
REMARK    6  A    between atoms: C4_11  and  N3_14 
REMARK    7  A    between atoms: N4_23  and  C11_24 
REMARK    8  A    between atoms: C11_24  and  O3_25 
REMARK    9  A    between atoms: C11_24  and  C12_27 
ROOT
HETATM    1  C3  UNL     1       7.511   7.802  20.551  1.00  0.00     0.100 C 
HETATM    2  C9  UNL     1       8.150   6.956  19.444  1.00  0.00     0.059 C 
HETATM    3  C10 UNL     1       7.291   5.833  18.983  1.00  0.00     0.127 C 
HETATM    4  N4  UNL     1       6.776   5.112  20.141  1.00  0.00    -0.365 N 
HETATM    5  C22 UNL     1       6.146   5.882  21.169  1.00  0.00     0.127 C 
HETATM    6  C23 UNL     1       6.091   7.346  20.636  1.00  0.00     0.059 C 
ENDROOT
BRANCH   1   7
HETATM    7  N2  UNL     1       8.230   7.552  21.798  1.00  0.00    -0.342 N 
HETATM    8  C2  UNL     1       8.083   8.362  22.929  1.00  0.00     0.255 C 
HETATM    9  O1  UNL     1       7.334   9.369  23.013  1.00  0.00    -0.271 OA
ATOM     10  H2  UNL     1       8.865   6.756  21.845  1.00  0.00     0.163 HD
BRANCH   8  11
HETATM   11  C1  UNL     1       8.854   8.065  24.191  1.00  0.00     0.203 A 
HETATM   12  C24 UNL     1       9.727   9.093  24.765  1.00  0.00     0.052 A 
HETATM   13  C25 UNL     1      10.354   7.934  24.057  1.00  0.00     0.052 A 
BRANCH  11  14
HETATM   14  N1  UNL     1       8.263   7.093  25.084  1.00  0.00    -0.061 N 
ATOM     15  H13 UNL     1       8.881   6.287  25.177  1.00  0.00     0.275 HD
ATOM     16  H12 UNL     1       8.278   7.449  26.041  1.00  0.00     0.275 HD
ATOM     17  H11 UNL     1       7.322   6.781  24.847  1.00  0.00     0.275 HD
ENDBRANCH  11  14
ENDBRANCH   8  11
ENDBRANCH   1   7
BRANCH   1  18
HETATM   18  C4  UNL     1       7.718   9.214  20.187  1.00  0.00     0.143 C 
BRANCH  18  19
HETATM   19  O2  UNL     1       8.911   9.724  20.292  1.00  0.00    -0.348 OA
ATOM     20  H2  UNL     1       9.001  10.659  20.438  1.00  0.00     0.219 HD
ENDBRANCH  18  19
BRANCH  18  21
HETATM   21  N3  UNL     1       6.755  10.137  19.716  1.00  0.00    -0.357 N 
HETATM   22  C5  UNL     1       6.014   9.963  18.487  1.00  0.00     0.131 C 
HETATM   23  C6  UNL     1       5.518  11.327  18.122  1.00  0.00     0.100 C 
HETATM   24  C7  UNL     1       5.125  11.842  19.521  1.00  0.00     0.261 C 
HETATM   25  F1  UNL     1       3.981  11.163  19.874  1.00  0.00    -0.204 F 
HETATM   26  F2  UNL     1       4.961  13.189  19.541  1.00  0.00    -0.204 F 
HETATM   27  C8  UNL     1       6.344  11.368  20.324  1.00  0.00     0.203 C 
ENDBRANCH  18  21
ENDBRANCH   1  18
BRANCH   4  28
HETATM   28  C11 UNL     1       6.921   3.734  20.202  1.00  0.00     0.122 C 
BRANCH  28  29
HETATM   29  O3  UNL     1       6.496   3.205  21.320  1.00  0.00    -0.349 OA
ATOM     30  H3  UNL     1       5.551   3.217  21.416  1.00  0.00     0.219 HD
ENDBRANCH  28  29
BRANCH  28  31
HETATM   31  C12 UNL     1       7.462   2.764  19.254  1.00  0.00     0.026 C 
HETATM   32  C13 UNL     1       7.623   1.363  19.805  1.00  0.00     0.022 C 
HETATM   33  C14 UNL     1       8.112   0.475  18.677  1.00  0.00    -0.013 C 
HETATM   34  C15 UNL     1       9.420   0.925  18.102  1.00  0.00     0.009 C 
HETATM   35  C19 UNL     1       7.120   0.379  17.540  1.00  0.00     0.009 C 
HETATM   36  C16 UNL     1       9.224   2.323  17.558  1.00  0.00    -0.013 C 
HETATM   37  C17 UNL     1       8.200   2.370  16.480  1.00  0.00     0.009 C 
HETATM   38  C21 UNL     1       8.777   3.211  18.704  1.00  0.00     0.022 C 
HETATM   39  C18 UNL     1       6.906   1.782  17.005  1.00  0.00    -0.013 C 
HETATM   40  C20 UNL     1       6.422   2.624  18.126  1.00  0.00     0.022 C 
ENDBRANCH  28  31
ENDBRANCH   4  28
TORSDOF 9
ENDMDL
