MODEL 1
REMARK VINA RESULT: -8.709513383      0.000      0.000
REMARK  7 active torsions:
REMARK  status: ('A' for Active; 'I' for Inactive)
REMARK    1  A    between atoms: C1_2  and  C2_3 
REMARK       I    between atoms: C1_2  and  N1_21 
REMARK    2  A    between atoms: C2_3  and  C3_4 
REMARK    3  A    between atoms: C3_4  and  C4_5 
REMARK    4  A    between atoms: C3_4  and  O2_7 
REMARK    5  A    between atoms: O2_7  and  C5_8 
REMARK    6  A    between atoms: C5_8  and  C6_10 
REMARK    7  A    between atoms: N1_21  and  C16_23 
ROOT
HETATM    1  C3  UNL     1       7.434   6.688  20.060  1.00  0.00     0.150 C 
ENDROOT
BRANCH   1   2
HETATM    2  C2  UNL     1       8.529   7.692  20.000  1.00  0.00     0.136 C 
BRANCH   2   3
HETATM    3  C1  UNL     1       8.552   8.698  21.075  1.00  0.00     0.225 C 
HETATM    4  O1  UNL     1       8.831   9.895  20.906  1.00  0.00    -0.273 OA
HETATM    5  N1  UNL     1       8.240   8.334  22.437  1.00  0.00    -0.312 N 
ATOM      6  H1  UNL     1       7.362   7.867  22.661  1.00  0.00     0.170 HD
BRANCH   5   7
HETATM    7  C16 UNL     1       9.088   8.608  23.357  1.00  0.00     0.123 A 
HETATM    8  C17 UNL     1       8.962   8.576  24.724  1.00  0.00     0.068 A 
HETATM    9  C18 UNL     1      10.168   8.962  25.268  1.00  0.00     0.111 A 
HETATM   10  N2  UNL     1      10.979   9.212  24.219  1.00  0.00    -0.310 N 
HETATM   11  N3  UNL     1      10.346   9.004  23.096  1.00  0.00    -0.286 N 
ATOM     12  H2  UNL     1      11.949   9.520  24.292  1.00  0.00     0.186 HD
ATOM     13  H3  UNL     1      10.743   9.123  22.164  1.00  0.00     0.188 HD
ENDBRANCH   5   7
ENDBRANCH   2   3
ENDBRANCH   1   2
BRANCH   1  14
HETATM   14  C4  UNL     1       6.115   7.294  19.736  1.00  0.00     0.118 C 
HETATM   15 BR1  UNL     1       5.461   6.731  17.999  1.00  0.00    -0.094 Br
ENDBRANCH   1  14
BRANCH   1  16
HETATM   16  O2  UNL     1       7.714   5.550  19.235  1.00  0.00    -0.314 OA
BRANCH  16  17
HETATM   17  C5  UNL     1       7.740   4.261  19.699  1.00  0.00     0.268 C 
HETATM   18  O3  UNL     1       7.581   4.076  20.938  1.00  0.00    -0.264 OA
BRANCH  17  19
HETATM   19  C6  UNL     1       7.941   3.067  18.860  1.00  0.00     0.050 C 
HETATM   20  C7  UNL     1       9.399   3.018  18.446  1.00  0.00     0.024 C 
HETATM   21  C8  UNL     1       9.691   1.720  17.737  1.00  0.00    -0.012 C 
HETATM   22  C9  UNL     1       9.330   0.577  18.640  1.00  0.00     0.009 C 
HETATM   23  C13 UNL     1       8.874   1.720  16.461  1.00  0.00     0.025 C 
HETATM   24  C10 UNL     1       7.839   0.578  18.886  1.00  0.00    -0.012 C 
HETATM   25  C11 UNL     1       7.041   0.604  17.615  1.00  0.00     0.025 C 
HETATM   26  C15 UNL     1       7.525   1.859  19.648  1.00  0.00     0.024 C 
HETATM   27  C12 UNL     1       7.410   1.839  16.825  1.00  0.00     0.020 C 
HETATM   28 BR2  UNL     1       6.420   1.843  15.145  1.00  0.00    -0.085 Br
HETATM   29  C14 UNL     1       7.125   3.105  17.593  1.00  0.00     0.041 C 
ENDBRANCH  17  19
ENDBRANCH  16  17
ENDBRANCH   1  16
TORSDOF 7
ENDMDL
MODEL 2
REMARK VINA RESULT: -8.324020309      1.376      2.113
REMARK  7 active torsions:
REMARK  status: ('A' for Active; 'I' for Inactive)
REMARK    1  A    between atoms: C1_2  and  C2_3 
REMARK       I    between atoms: C1_2  and  N1_21 
REMARK    2  A    between atoms: C2_3  and  C3_4 
REMARK    3  A    between atoms: C3_4  and  C4_5 
REMARK    4  A    between atoms: C3_4  and  O2_7 
REMARK    5  A    between atoms: O2_7  and  C5_8 
REMARK    6  A    between atoms: C5_8  and  C6_10 
REMARK    7  A    between atoms: N1_21  and  C16_23 
ROOT
HETATM    1  C3  UNL     1       6.914   7.582  19.579  1.00  0.00     0.150 C 
ENDROOT
BRANCH   1   2
HETATM    2  C2  UNL     1       8.056   8.534  19.570  1.00  0.00     0.136 C 
BRANCH   2   3
HETATM    3  C1  UNL     1       8.178   9.419  20.740  1.00  0.00     0.225 C 
HETATM    4  O1  UNL     1       8.552  10.601  20.685  1.00  0.00    -0.273 OA
HETATM    5  N1  UNL     1       7.858   8.944  22.065  1.00  0.00    -0.312 N 
ATOM      6  H1  UNL     1       6.948   8.529  22.261  1.00  0.00     0.170 HD
BRANCH   5   7
HETATM    7  C16 UNL     1       8.739   9.054  22.988  1.00  0.00     0.123 A 
HETATM    8  C17 UNL     1       8.598   9.297  24.332  1.00  0.00     0.068 A 
HETATM    9  C18 UNL     1       9.857   9.322  24.892  1.00  0.00     0.111 A 
HETATM   10  N2  UNL     1      10.714   9.094  23.874  1.00  0.00    -0.310 N 
HETATM   11  N3  UNL     1      10.058   8.936  22.756  1.00  0.00    -0.286 N 
ATOM     12  H2  UNL     1      11.728   9.051  23.966  1.00  0.00     0.186 HD
ATOM     13  H3  UNL     1      10.481   8.751  21.846  1.00  0.00     0.188 HD
ENDBRANCH   5   7
ENDBRANCH   2   3
ENDBRANCH   1   2
BRANCH   1  14
HETATM   14  C4  UNL     1       5.666   8.220  19.082  1.00  0.00     0.118 C 
HETATM   15 BR1  UNL     1       5.000   7.364  17.474  1.00  0.00    -0.094 Br
ENDBRANCH   1  14
BRANCH   1  16
HETATM   16  O2  UNL     1       7.220   6.381  18.861  1.00  0.00    -0.314 OA
BRANCH  16  17
HETATM   17  C5  UNL     1       7.434   5.168  19.462  1.00  0.00     0.268 C 
HETATM   18  O3  UNL     1       7.687   5.158  20.700  1.00  0.00    -0.264 OA
BRANCH  17  19
HETATM   19  C6  UNL     1       7.395   3.866  18.774  1.00  0.00     0.050 C 
HETATM   20  C7  UNL     1       6.458   2.954  19.540  1.00  0.00     0.024 C 
HETATM   21  C8  UNL     1       6.246   1.671  18.775  1.00  0.00    -0.012 C 
HETATM   22  C9  UNL     1       5.714   1.997  17.411  1.00  0.00     0.009 C 
HETATM   23  C13 UNL     1       7.586   0.968  18.713  1.00  0.00     0.025 C 
HETATM   24  C10 UNL     1       6.756   2.767  16.632  1.00  0.00    -0.012 C 
HETATM   25  C11 UNL     1       8.086   2.072  16.599  1.00  0.00     0.025 C 
HETATM   26  C15 UNL     1       6.950   4.091  17.359  1.00  0.00     0.024 C 
HETATM   27  C12 UNL     1       8.576   1.876  18.016  1.00  0.00     0.020 C 
HETATM   28 BR2  UNL     1      10.275   0.919  17.978  1.00  0.00    -0.085 Br
HETATM   29  C14 UNL     1       8.740   3.188  18.742  1.00  0.00     0.041 C 
ENDBRANCH  17  19
ENDBRANCH  16  17
ENDBRANCH   1  16
TORSDOF 7
ENDMDL
MODEL 3
REMARK VINA RESULT: -8.205030907      1.291      1.482
REMARK  7 active torsions:
REMARK  status: ('A' for Active; 'I' for Inactive)
REMARK    1  A    between atoms: C1_2  and  C2_3 
REMARK       I    between atoms: C1_2  and  N1_21 
REMARK    2  A    between atoms: C2_3  and  C3_4 
REMARK    3  A    between atoms: C3_4  and  C4_5 
REMARK    4  A    between atoms: C3_4  and  O2_7 
REMARK    5  A    between atoms: O2_7  and  C5_8 
REMARK    6  A    between atoms: C5_8  and  C6_10 
REMARK    7  A    between atoms: N1_21  and  C16_23 
ROOT
HETATM    1  C3  UNL     1       7.501   6.839  20.969  1.00  0.00     0.150 C 
ENDROOT
BRANCH   1   2
HETATM    2  C2  UNL     1       7.269   8.222  20.475  1.00  0.00     0.136 C 
BRANCH   2   3
HETATM    3  C1  UNL     1       7.910   9.305  21.240  1.00  0.00     0.225 C 
HETATM    4  O1  UNL     1       8.636  10.177  20.740  1.00  0.00    -0.273 OA
HETATM    5  N1  UNL     1       7.720   9.416  22.666  1.00  0.00    -0.312 N 
ATOM      6  H1  UNL     1       6.782   9.461  23.064  1.00  0.00     0.170 HD
BRANCH   5   7
HETATM    7  C16 UNL     1       8.753   9.458  23.423  1.00  0.00     0.123 A 
HETATM    8  C17 UNL     1       9.465   8.447  24.017  1.00  0.00     0.068 A 
HETATM    9  C18 UNL     1      10.494   9.018  24.734  1.00  0.00     0.111 A 
HETATM   10  N2  UNL     1      10.371  10.350  24.551  1.00  0.00    -0.310 N 
HETATM   11  N3  UNL     1       9.349  10.609  23.780  1.00  0.00    -0.286 N 
ATOM     12  H2  UNL     1      10.989  11.053  24.956  1.00  0.00     0.186 HD
ATOM     13  H3  UNL     1       9.050  11.541  23.493  1.00  0.00     0.188 HD
ENDBRANCH   5   7
ENDBRANCH   2   3
ENDBRANCH   1   2
BRANCH   1  14
HETATM   14  C4  UNL     1       6.260   6.244  21.535  1.00  0.00     0.118 C 
HETATM   15 BR1  UNL     1       4.689   7.300  21.114  1.00  0.00    -0.094 Br
ENDBRANCH   1  14
BRANCH   1  16
HETATM   16  O2  UNL     1       8.078   6.005  19.958  1.00  0.00    -0.314 OA
BRANCH  16  17
HETATM   17  C5  UNL     1       7.355   5.409  18.958  1.00  0.00     0.268 C 
HETATM   18  O3  UNL     1       6.563   6.132  18.289  1.00  0.00    -0.264 OA
BRANCH  17  19
HETATM   19  C6  UNL     1       7.428   3.983  18.598  1.00  0.00     0.050 C 
HETATM   20  C7  UNL     1       8.885   3.563  18.620  1.00  0.00     0.024 C 
HETATM   21  C8  UNL     1       8.994   2.070  18.434  1.00  0.00    -0.012 C 
HETATM   22  C9  UNL     1       8.200   1.384  19.506  1.00  0.00     0.009 C 
HETATM   23  C13 UNL     1       8.470   1.758  17.047  1.00  0.00     0.025 C 
HETATM   24  C10 UNL     1       6.734   1.707  19.336  1.00  0.00    -0.012 C 
HETATM   25  C11 UNL     1       6.233   1.417  17.951  1.00  0.00     0.025 C 
HETATM   26  C15 UNL     1       6.590   3.205  19.570  1.00  0.00     0.024 C 
HETATM   27  C12 UNL     1       7.034   2.227  16.957  1.00  0.00     0.020 C 
HETATM   28 BR2  UNL     1       6.425   1.806  15.153  1.00  0.00    -0.085 Br
HETATM   29  C14 UNL     1       6.912   3.709  17.209  1.00  0.00     0.041 C 
ENDBRANCH  17  19
ENDBRANCH  16  17
ENDBRANCH   1  16
TORSDOF 7
ENDMDL
MODEL 4
REMARK VINA RESULT: -8.143684724      1.909      2.603
REMARK  7 active torsions:
REMARK  status: ('A' for Active; 'I' for Inactive)
REMARK    1  A    between atoms: C1_2  and  C2_3 
REMARK       I    between atoms: C1_2  and  N1_21 
REMARK    2  A    between atoms: C2_3  and  C3_4 
REMARK    3  A    between atoms: C3_4  and  C4_5 
REMARK    4  A    between atoms: C3_4  and  O2_7 
REMARK    5  A    between atoms: O2_7  and  C5_8 
REMARK    6  A    between atoms: C5_8  and  C6_10 
REMARK    7  A    between atoms: N1_21  and  C16_23 
ROOT
HETATM    1  C3  UNL     1       7.176   6.907  21.568  1.00  0.00     0.150 C 
ENDROOT
BRANCH   1   2
HETATM    2  C2  UNL     1       7.104   8.265  20.968  1.00  0.00     0.136 C 
BRANCH   2   3
HETATM    3  C1  UNL     1       7.969   9.292  21.572  1.00  0.00     0.225 C 
HETATM    4  O1  UNL     1       8.839   9.924  20.953  1.00  0.00    -0.273 OA
HETATM    5  N1  UNL     1       7.846   9.637  22.968  1.00  0.00    -0.312 N 
ATOM      6  H1  UNL     1       6.947   9.923  23.355  1.00  0.00     0.170 HD
BRANCH   5   7
HETATM    7  C16 UNL     1       8.888   9.575  23.711  1.00  0.00     0.123 A 
HETATM    8  C17 UNL     1       9.466   8.506  24.350  1.00  0.00     0.068 A 
HETATM    9  C18 UNL     1      10.575   8.967  25.026  1.00  0.00     0.111 A 
HETATM   10  N2  UNL     1      10.631  10.292  24.775  1.00  0.00    -0.310 N 
HETATM   11  N3  UNL     1       9.641  10.650  24.002  1.00  0.00    -0.286 N 
ATOM     12  H2  UNL     1      11.345  10.924  25.137  1.00  0.00     0.186 HD
ATOM     13  H3  UNL     1       9.465  11.598  23.671  1.00  0.00     0.188 HD
ENDBRANCH   5   7
ENDBRANCH   2   3
ENDBRANCH   1   2
BRANCH   1  14
HETATM   14  C4  UNL     1       5.828   6.399  21.939  1.00  0.00     0.118 C 
HETATM   15 BR1  UNL     1       5.267   7.030  23.685  1.00  0.00    -0.094 Br
ENDBRANCH   1  14
BRANCH   1  16
HETATM   16  O2  UNL     1       7.876   5.989  20.719  1.00  0.00    -0.314 OA
BRANCH  16  17
HETATM   17  C5  UNL     1       7.442   5.624  19.471  1.00  0.00     0.268 C 
HETATM   18  O3  UNL     1       7.084   6.540  18.679  1.00  0.00    -0.264 OA
BRANCH  17  19
HETATM   19  C6  UNL     1       7.360   4.238  18.978  1.00  0.00     0.050 C 
HETATM   20  C7  UNL     1       6.661   3.401  20.032  1.00  0.00     0.024 C 
HETATM   21  C8  UNL     1       6.394   2.016  19.498  1.00  0.00    -0.012 C 
HETATM   22  C9  UNL     1       5.580   2.125  18.242  1.00  0.00     0.009 C 
HETATM   23  C13 UNL     1       7.742   1.371  19.250  1.00  0.00     0.025 C 
HETATM   24  C10 UNL     1       6.388   2.824  17.173  1.00  0.00    -0.012 C 
HETATM   25  C11 UNL     1       7.732   2.190  16.956  1.00  0.00     0.025 C 
HETATM   26  C15 UNL     1       6.628   4.244  17.669  1.00  0.00     0.024 C 
HETATM   27  C12 UNL     1       8.506   2.215  18.254  1.00  0.00     0.020 C 
HETATM   28 BR2  UNL     1      10.227   1.338  17.988  1.00  0.00    -0.085 Br
HETATM   29  C14 UNL     1       8.717   3.622  18.756  1.00  0.00     0.041 C 
ENDBRANCH  17  19
ENDBRANCH  16  17
ENDBRANCH   1  16
TORSDOF 7
ENDMDL
MODEL 5
REMARK VINA RESULT: -8.064474803      2.276      2.926
REMARK  7 active torsions:
REMARK  status: ('A' for Active; 'I' for Inactive)
REMARK    1  A    between atoms: C1_2  and  C2_3 
REMARK       I    between atoms: C1_2  and  N1_21 
REMARK    2  A    between atoms: C2_3  and  C3_4 
REMARK    3  A    between atoms: C3_4  and  C4_5 
REMARK    4  A    between atoms: C3_4  and  O2_7 
REMARK    5  A    between atoms: O2_7  and  C5_8 
REMARK    6  A    between atoms: C5_8  and  C6_10 
REMARK    7  A    between atoms: N1_21  and  C16_23 
ROOT
HETATM    1  C3  UNL     1       7.746   7.725  22.312  1.00  0.00     0.150 C 
ENDROOT
BRANCH   1   2
HETATM    2  C2  UNL     1       9.065   8.343  22.608  1.00  0.00     0.136 C 
BRANCH   2   3
HETATM    3  C1  UNL     1       9.272   8.812  23.988  1.00  0.00     0.225 C 
HETATM    4  O1  UNL     1       9.829   9.880  24.286  1.00  0.00    -0.273 OA
HETATM    5  N1  UNL     1       8.821   8.028  25.113  1.00  0.00    -0.312 N 
ATOM      6  H1  UNL     1       7.849   7.728  25.180  1.00  0.00     0.170 HD
BRANCH   5   7
HETATM    7  C16 UNL     1       9.666   7.716  26.024  1.00  0.00     0.123 A 
HETATM    8  C17 UNL     1      11.038   7.679  25.994  1.00  0.00     0.068 A 
HETATM    9  C18 UNL     1      11.478   7.277  27.236  1.00  0.00     0.111 A 
HETATM   10  N2  UNL     1      10.363   7.085  27.974  1.00  0.00    -0.310 N 
HETATM   11  N3  UNL     1       9.299   7.344  27.262  1.00  0.00    -0.286 N 
ATOM     12  H2  UNL     1      10.354   6.783  28.947  1.00  0.00     0.186 HD
ATOM     13  H3  UNL     1       8.337   7.274  27.595  1.00  0.00     0.188 HD
ENDBRANCH   5   7
ENDBRANCH   2   3
ENDBRANCH   1   2
BRANCH   1  14
HETATM   14  C4  UNL     1       6.972   8.530  21.330  1.00  0.00     0.118 C 
HETATM   15 BR1  UNL     1       7.956   8.812  19.683  1.00  0.00    -0.094 Br
ENDBRANCH   1  14
BRANCH   1  16
HETATM   16  O2  UNL     1       7.882   6.361  21.894  1.00  0.00    -0.314 OA
BRANCH  16  17
HETATM   17  C5  UNL     1       6.833   5.584  21.478  1.00  0.00     0.268 C 
HETATM   18  O3  UNL     1       5.721   5.730  22.061  1.00  0.00    -0.264 OA
BRANCH  17  19
HETATM   19  C6  UNL     1       6.899   4.584  20.399  1.00  0.00     0.050 C 
HETATM   20  C7  UNL     1       7.972   5.015  19.419  1.00  0.00     0.024 C 
HETATM   21  C8  UNL     1       8.200   3.932  18.393  1.00  0.00    -0.012 C 
HETATM   22  C9  UNL     1       8.568   2.660  19.099  1.00  0.00     0.009 C 
HETATM   23  C13 UNL     1       6.915   3.795  17.603  1.00  0.00     0.025 C 
HETATM   24  C10 UNL     1       7.401   2.188  19.935  1.00  0.00    -0.012 C 
HETATM   25  C11 UNL     1       6.129   2.081  19.145  1.00  0.00     0.025 C 
HETATM   26  C15 UNL     1       7.183   3.243  21.011  1.00  0.00     0.024 C 
HETATM   27  C12 UNL     1       5.798   3.434  18.556  1.00  0.00     0.020 C 
HETATM   28 BR2  UNL     1       4.178   3.282  17.481  1.00  0.00    -0.085 Br
HETATM   29  C14 UNL     1       5.610   4.482  19.624  1.00  0.00     0.041 C 
ENDBRANCH  17  19
ENDBRANCH  16  17
ENDBRANCH   1  16
TORSDOF 7
ENDMDL
