MODEL 1
REMARK VINA RESULT: -10.058473910      0.000      0.000
REMARK  5 active torsions:
REMARK  status: ('A' for Active; 'I' for Inactive)
REMARK    1  A    between atoms: C7_7  and  C8_8 
REMARK       I    between atoms: C8_8  and  N1_10 
REMARK    2  A    between atoms: N1_10  and  C9_12 
REMARK    3  A    between atoms: C17_20  and  C18_21 
REMARK       I    between atoms: C18_21  and  N2_23 
REMARK    4  A    between atoms: N2_23  and  C19_25 
REMARK       I    between atoms: N3_28  and  C22_29 
REMARK    5  A    between atoms: C22_29  and  C23_31 
ROOT
HETATM    1  C9  UNL     1       6.105   8.207  20.500  1.00  0.00     0.106 C 
HETATM    2  C10 UNL     1       5.296   8.754  19.339  1.00  0.00     0.010 C 
HETATM    3  C11 UNL     1       4.243   9.651  19.897  1.00  0.00     0.011 C 
HETATM    4  C12 UNL     1       4.931  10.789  20.616  1.00  0.00    -0.013 C 
HETATM    5  C13 UNL     1       5.697  11.575  19.599  1.00  0.00     0.009 C 
HETATM    6  C14 UNL     1       6.730  10.677  18.972  1.00  0.00    -0.013 C 
HETATM    7  C15 UNL     1       6.107   9.458  18.309  1.00  0.00     0.011 C 
HETATM    8  C16 UNL     1       7.646  10.141  20.054  1.00  0.00     0.026 C 
HETATM    9  C17 UNL     1       6.881   9.321  21.090  1.00  0.00     0.062 C 
HETATM   10  C26 UNL     1       5.864  10.305  21.692  1.00  0.00     0.026 C 
ENDROOT
BRANCH   9  11
HETATM   11  C18 UNL     1       7.850   8.930  22.122  1.00  0.00     0.228 C 
HETATM   12  O2  UNL     1       8.747   8.103  21.840  1.00  0.00    -0.273 OA
HETATM   13  N2  UNL     1       7.816   9.455  23.440  1.00  0.00    -0.356 N 
ATOM     14  H2  UNL     1       7.088  10.129  23.674  1.00  0.00     0.162 HD
BRANCH  13  15
HETATM   15  C19 UNL     1       8.757   9.086  24.464  1.00  0.00     0.087 C 
HETATM   16  C20 UNL     1      10.162   8.934  23.918  1.00  0.00     0.045 C 
HETATM   17  C21 UNL     1      11.128   8.761  25.065  1.00  0.00     0.128 C 
HETATM   18  N3  UNL     1      10.663   7.827  26.065  1.00  0.00    -0.347 N 
HETATM   19  C22 UNL     1      11.639   7.223  26.902  1.00  0.00     0.284 C 
HETATM   20  C24 UNL     1       9.286   7.475  26.264  1.00  0.00     0.128 C 
HETATM   21  O3  UNL     1      11.285   6.401  27.790  1.00  0.00    -0.267 OA
HETATM   22  C25 UNL     1       8.404   7.738  25.084  1.00  0.00     0.045 C 
BRANCH  19  23
HETATM   23  C23 UNL     1      13.081   7.536  26.758  1.00  0.00     0.444 C 
HETATM   24  F1  UNL     1      13.810   7.206  27.885  1.00  0.00    -0.204 F 
HETATM   25  F2  UNL     1      13.603   6.874  25.676  1.00  0.00    -0.204 F 
ENDBRANCH  19  23
ENDBRANCH  13  15
ENDBRANCH   9  11
BRANCH   1  26
HETATM   26  N1  UNL     1       6.826   7.062  20.078  1.00  0.00    -0.355 N 
HETATM   27  C8  UNL     1       6.543   5.785  20.599  1.00  0.00     0.222 C 
HETATM   28  O1  UNL     1       5.632   5.673  21.450  1.00  0.00    -0.273 OA
ATOM     29  H1  UNL     1       7.566   7.166  19.383  1.00  0.00     0.162 HD
BRANCH  27  30
HETATM   30  C7  UNL     1       7.261   4.581  20.197  1.00  0.00     0.082 C 
HETATM   31  C6  UNL     1       7.231   4.332  18.717  1.00  0.00     0.003 C 
HETATM   32  C2  UNL     1       6.285   3.131  18.559  1.00  0.00    -0.010 C 
HETATM   33  C5  UNL     1       8.541   3.591  18.400  1.00  0.00     0.006 C 
HETATM   34  C1  UNL     1       4.856   3.454  18.742  1.00  0.00     0.011 C 
HETATM   35  C3  UNL     1       6.906   2.326  19.697  1.00  0.00    -0.010 C 
HETATM   36  C4  UNL     1       8.364   2.359  19.288  1.00  0.00     0.005 C 
HETATM   37  C27 UNL     1       6.733   3.315  20.838  1.00  0.00     0.019 C 
ENDBRANCH  27  30
ENDBRANCH   1  26
TORSDOF 5
ENDMDL
MODEL 2
REMARK VINA RESULT: -9.959214444      4.219      7.229
REMARK  5 active torsions:
REMARK  status: ('A' for Active; 'I' for Inactive)
REMARK    1  A    between atoms: C7_7  and  C8_8 
REMARK       I    between atoms: C8_8  and  N1_10 
REMARK    2  A    between atoms: N1_10  and  C9_12 
REMARK    3  A    between atoms: C17_20  and  C18_21 
REMARK       I    between atoms: C18_21  and  N2_23 
REMARK    4  A    between atoms: N2_23  and  C19_25 
REMARK       I    between atoms: N3_28  and  C22_29 
REMARK    5  A    between atoms: C22_29  and  C23_31 
ROOT
HETATM    1  C9  UNL     1       6.630   1.928  18.582  1.00  0.00     0.106 C 
HETATM    2  C10 UNL     1       7.360   0.637  18.263  1.00  0.00     0.010 C 
HETATM    3  C11 UNL     1       7.401   0.489  16.780  1.00  0.00     0.011 C 
HETATM    4  C12 UNL     1       8.173   1.659  16.214  1.00  0.00    -0.013 C 
HETATM    5  C13 UNL     1       9.580   1.564  16.715  1.00  0.00     0.009 C 
HETATM    6  C14 UNL     1       9.565   1.649  18.218  1.00  0.00    -0.013 C 
HETATM    7  C15 UNL     1       8.725   0.548  18.848  1.00  0.00     0.011 C 
HETATM    8  C16 UNL     1       8.922   2.956  18.636  1.00  0.00     0.026 C 
HETATM    9  C17 UNL     1       7.479   3.060  18.148  1.00  0.00     0.062 C 
HETATM   10  C26 UNL     1       7.579   2.982  16.616  1.00  0.00     0.026 C 
ENDROOT
BRANCH   9  11
HETATM   11  C18 UNL     1       6.994   4.390  18.537  1.00  0.00     0.228 C 
HETATM   12  O2  UNL     1       5.861   4.765  18.158  1.00  0.00    -0.273 OA
HETATM   13  N2  UNL     1       7.759   5.281  19.334  1.00  0.00    -0.356 N 
ATOM     14  H2  UNL     1       8.682   4.980  19.645  1.00  0.00     0.162 HD
BRANCH  13  15
HETATM   15  C19 UNL     1       7.300   6.587  19.726  1.00  0.00     0.087 C 
HETATM   16  C20 UNL     1       8.445   7.567  19.886  1.00  0.00     0.045 C 
HETATM   17  C21 UNL     1       7.889   8.956  20.084  1.00  0.00     0.128 C 
HETATM   18  N3  UNL     1       6.794   9.003  21.026  1.00  0.00    -0.347 N 
HETATM   19  C22 UNL     1       6.520  10.248  21.651  1.00  0.00     0.284 C 
HETATM   20  C24 UNL     1       5.972   7.876  21.366  1.00  0.00     0.128 C 
HETATM   21  O3  UNL     1       5.575  10.342  22.481  1.00  0.00    -0.267 OA
HETATM   22  C25 UNL     1       6.596   6.546  21.078  1.00  0.00     0.045 C 
BRANCH  19  23
HETATM   23  C23 UNL     1       7.324  11.458  21.352  1.00  0.00     0.444 C 
HETATM   24  F1  UNL     1       6.547  12.519  20.930  1.00  0.00    -0.204 F 
HETATM   25  F2  UNL     1       8.038  11.836  22.459  1.00  0.00    -0.204 F 
ENDBRANCH  19  23
ENDBRANCH  13  15
ENDBRANCH   9  11
BRANCH   1  26
HETATM   26  N1  UNL     1       6.206   1.912  19.935  1.00  0.00    -0.355 N 
HETATM   27  C8  UNL     1       4.872   1.621  20.281  1.00  0.00     0.222 C 
HETATM   28  O1  UNL     1       4.056   1.372  19.366  1.00  0.00    -0.273 OA
ATOM     29  H1  UNL     1       6.881   2.116  20.672  1.00  0.00     0.162 HD
BRANCH  27  30
HETATM   30  C7  UNL     1       4.391   1.597  21.657  1.00  0.00     0.082 C 
HETATM   31  C6  UNL     1       2.896   1.527  21.768  1.00  0.00     0.003 C 
HETATM   32  C2  UNL     1       2.490   2.928  22.254  1.00  0.00    -0.010 C 
HETATM   33  C5  UNL     1       2.617   0.777  23.081  1.00  0.00     0.006 C 
HETATM   34  C1  UNL     1       2.571   3.978  21.219  1.00  0.00     0.011 C 
HETATM   35  C3  UNL     1       3.571   3.009  23.329  1.00  0.00    -0.010 C 
HETATM   36  C4  UNL     1       3.316   1.713  24.068  1.00  0.00     0.005 C 
HETATM   37  C27 UNL     1       4.808   2.806  22.469  1.00  0.00     0.019 C 
ENDBRANCH  27  30
ENDBRANCH   1  26
TORSDOF 5
ENDMDL
MODEL 3
REMARK VINA RESULT: -9.732272557      3.713      5.995
REMARK  5 active torsions:
REMARK  status: ('A' for Active; 'I' for Inactive)
REMARK    1  A    between atoms: C7_7  and  C8_8 
REMARK       I    between atoms: C8_8  and  N1_10 
REMARK    2  A    between atoms: N1_10  and  C9_12 
REMARK    3  A    between atoms: C17_20  and  C18_21 
REMARK       I    between atoms: C18_21  and  N2_23 
REMARK    4  A    between atoms: N2_23  and  C19_25 
REMARK       I    between atoms: N3_28  and  C22_29 
REMARK    5  A    between atoms: C22_29  and  C23_31 
ROOT
HETATM    1  C9  UNL     1       5.172   4.202  15.445  1.00  0.00     0.106 C 
HETATM    2  C10 UNL     1       5.018   4.181  13.936  1.00  0.00     0.010 C 
HETATM    3  C11 UNL     1       3.565   4.303  13.623  1.00  0.00     0.011 C 
HETATM    4  C12 UNL     1       3.080   5.630  14.162  1.00  0.00    -0.013 C 
HETATM    5  C13 UNL     1       3.794   6.714  13.416  1.00  0.00     0.009 C 
HETATM    6  C14 UNL     1       5.273   6.579  13.664  1.00  0.00    -0.013 C 
HETATM    7  C15 UNL     1       5.808   5.223  13.227  1.00  0.00     0.011 C 
HETATM    8  C16 UNL     1       5.538   6.671  15.154  1.00  0.00     0.026 C 
HETATM    9  C17 UNL     1       4.831   5.561  15.926  1.00  0.00     0.062 C 
HETATM   10  C26 UNL     1       3.336   5.775  15.637  1.00  0.00     0.026 C 
ENDROOT
BRANCH   9  11
HETATM   11  C18 UNL     1       5.091   5.802  17.351  1.00  0.00     0.228 C 
HETATM   12  O2  UNL     1       4.591   5.034  18.205  1.00  0.00    -0.273 OA
HETATM   13  N2  UNL     1       5.893   6.878  17.810  1.00  0.00    -0.356 N 
ATOM     14  H2  UNL     1       6.302   7.506  17.119  1.00  0.00     0.162 HD
BRANCH  13  15
HETATM   15  C19 UNL     1       6.160   7.131  19.202  1.00  0.00     0.087 C 
HETATM   16  C20 UNL     1       6.458   8.593  19.467  1.00  0.00     0.045 C 
HETATM   17  C21 UNL     1       6.516   8.828  20.957  1.00  0.00     0.128 C 
HETATM   18  N3  UNL     1       7.274   7.821  21.665  1.00  0.00    -0.347 N 
HETATM   19  C22 UNL     1       7.801   8.171  22.936  1.00  0.00     0.284 C 
HETATM   20  C24 UNL     1       7.524   6.499  21.165  1.00  0.00     0.128 C 
HETATM   21  O3  UNL     1       8.471   7.329  23.593  1.00  0.00    -0.267 OA
HETATM   22  C25 UNL     1       7.388   6.362  19.681  1.00  0.00     0.045 C 
BRANCH  19  23
HETATM   23  C23 UNL     1       7.585   9.517  23.519  1.00  0.00     0.444 C 
HETATM   24  F1  UNL     1       6.541   9.540  24.424  1.00  0.00    -0.204 F 
HETATM   25  F2  UNL     1       8.727   9.952  24.140  1.00  0.00    -0.204 F 
ENDBRANCH  19  23
ENDBRANCH  13  15
ENDBRANCH   9  11
BRANCH   1  26
HETATM   26  N1  UNL     1       6.443   3.686  15.800  1.00  0.00    -0.355 N 
HETATM   27  C8  UNL     1       6.569   2.485  16.525  1.00  0.00     0.222 C 
HETATM   28  O1  UNL     1       5.529   1.871  16.854  1.00  0.00    -0.273 OA
ATOM     29  H1  UNL     1       7.283   4.194  15.524  1.00  0.00     0.162 HD
BRANCH  27  30
HETATM   30  C7  UNL     1       7.855   1.918  16.914  1.00  0.00     0.082 C 
HETATM   31  C6  UNL     1       7.733   0.665  17.734  1.00  0.00     0.003 C 
HETATM   32  C2  UNL     1       8.144   1.103  19.149  1.00  0.00    -0.010 C 
HETATM   33  C5  UNL     1       8.991  -0.158  17.412  1.00  0.00     0.006 C 
HETATM   34  C1  UNL     1       7.128   1.910  19.854  1.00  0.00     0.011 C 
HETATM   35  C3  UNL     1       9.372   1.885  18.691  1.00  0.00    -0.010 C 
HETATM   36  C4  UNL     1      10.070   0.830  17.858  1.00  0.00     0.005 C 
HETATM   37  C27 UNL     1       8.714   2.861  17.729  1.00  0.00     0.019 C 
ENDBRANCH  27  30
ENDBRANCH   1  26
TORSDOF 5
ENDMDL
MODEL 4
REMARK VINA RESULT: -9.696492791      1.834      2.577
REMARK  5 active torsions:
REMARK  status: ('A' for Active; 'I' for Inactive)
REMARK    1  A    between atoms: C7_7  and  C8_8 
REMARK       I    between atoms: C8_8  and  N1_10 
REMARK    2  A    between atoms: N1_10  and  C9_12 
REMARK    3  A    between atoms: C17_20  and  C18_21 
REMARK       I    between atoms: C18_21  and  N2_23 
REMARK    4  A    between atoms: N2_23  and  C19_25 
REMARK       I    between atoms: N3_28  and  C22_29 
REMARK    5  A    between atoms: C22_29  and  C23_31 
ROOT
HETATM    1  C9  UNL     1       5.406   7.243  18.659  1.00  0.00     0.106 C 
HETATM    2  C10 UNL     1       4.436   7.590  17.546  1.00  0.00     0.010 C 
HETATM    3  C11 UNL     1       3.210   8.166  18.170  1.00  0.00     0.011 C 
HETATM    4  C12 UNL     1       3.608   9.426  18.905  1.00  0.00    -0.013 C 
HETATM    5  C13 UNL     1       4.101  10.410  17.891  1.00  0.00     0.009 C 
HETATM    6  C14 UNL     1       5.305   9.829  17.199  1.00  0.00    -0.013 C 
HETATM    7  C15 UNL     1       4.993   8.506  16.515  1.00  0.00     0.011 C 
HETATM    8  C16 UNL     1       6.373   9.522  18.231  1.00  0.00     0.026 C 
HETATM    9  C17 UNL     1       5.890   8.506  19.262  1.00  0.00     0.062 C 
HETATM   10  C26 UNL     1       4.678   9.174  19.931  1.00  0.00     0.026 C 
ENDROOT
BRANCH   9  11
HETATM   11  C18 UNL     1       6.969   8.355  20.247  1.00  0.00     0.228 C 
HETATM   12  O2  UNL     1       8.098   7.970  19.867  1.00  0.00    -0.273 OA
HETATM   13  N2  UNL     1       6.788   8.631  21.627  1.00  0.00    -0.356 N 
ATOM     14  H2  UNL     1       5.870   8.945  21.941  1.00  0.00     0.162 HD
BRANCH  13  15
HETATM   15  C19 UNL     1       7.832   8.491  22.607  1.00  0.00     0.087 C 
HETATM   16  C20 UNL     1       7.376   7.697  23.814  1.00  0.00     0.045 C 
HETATM   17  C21 UNL     1       8.564   7.403  24.697  1.00  0.00     0.128 C 
HETATM   18  N3  UNL     1       9.422   8.549  24.899  1.00  0.00    -0.347 N 
HETATM   19  C22 UNL     1      10.256   8.548  26.047  1.00  0.00     0.284 C 
HETATM   20  C24 UNL     1       9.481   9.678  24.016  1.00  0.00     0.128 C 
HETATM   21  O3  UNL     1      11.023   9.525  26.269  1.00  0.00    -0.267 OA
HETATM   22  C25 UNL     1       8.275   9.848  23.145  1.00  0.00     0.045 C 
BRANCH  19  23
HETATM   23  C23 UNL     1      10.252   7.417  27.006  1.00  0.00     0.444 C 
HETATM   24  F1  UNL     1      11.391   7.380  27.787  1.00  0.00    -0.204 F 
HETATM   25  F2  UNL     1       9.152   7.492  27.820  1.00  0.00    -0.204 F 
ENDBRANCH  19  23
ENDBRANCH  13  15
ENDBRANCH   9  11
BRANCH   1  26
HETATM   26  N1  UNL     1       6.382   6.337  18.174  1.00  0.00    -0.355 N 
HETATM   27  C8  UNL     1       6.298   4.957  18.442  1.00  0.00     0.222 C 
HETATM   28  O1  UNL     1       5.335   4.536  19.122  1.00  0.00    -0.273 OA
ATOM     29  H1  UNL     1       7.161   6.692  17.619  1.00  0.00     0.162 HD
BRANCH  27  30
HETATM   30  C7  UNL     1       7.280   3.989  17.966  1.00  0.00     0.082 C 
HETATM   31  C6  UNL     1       6.775   2.575  17.966  1.00  0.00     0.003 C 
HETATM   32  C2  UNL     1       7.528   1.909  19.129  1.00  0.00    -0.010 C 
HETATM   33  C5  UNL     1       7.524   1.873  16.822  1.00  0.00     0.006 C 
HETATM   34  C1  UNL     1       7.046   2.300  20.469  1.00  0.00     0.011 C 
HETATM   35  C3  UNL     1       8.889   2.487  18.749  1.00  0.00    -0.010 C 
HETATM   36  C4  UNL     1       8.965   2.068  17.296  1.00  0.00     0.005 C 
HETATM   37  C27 UNL     1       8.558   3.970  18.777  1.00  0.00     0.019 C 
ENDBRANCH  27  30
ENDBRANCH   1  26
TORSDOF 5
ENDMDL
MODEL 5
REMARK VINA RESULT: -9.652751927      2.503      4.401
REMARK  5 active torsions:
REMARK  status: ('A' for Active; 'I' for Inactive)
REMARK    1  A    between atoms: C7_7  and  C8_8 
REMARK       I    between atoms: C8_8  and  N1_10 
REMARK    2  A    between atoms: N1_10  and  C9_12 
REMARK    3  A    between atoms: C17_20  and  C18_21 
REMARK       I    between atoms: C18_21  and  N2_23 
REMARK    4  A    between atoms: N2_23  and  C19_25 
REMARK       I    between atoms: N3_28  and  C22_29 
REMARK    5  A    between atoms: C22_29  and  C23_31 
ROOT
HETATM    1  C9  UNL     1       4.064   3.845  19.854  1.00  0.00     0.106 C 
HETATM    2  C10 UNL     1       2.804   3.782  19.011  1.00  0.00     0.010 C 
HETATM    3  C11 UNL     1       1.633   3.845  19.933  1.00  0.00     0.011 C 
HETATM    4  C12 UNL     1       1.686   5.166  20.667  1.00  0.00    -0.013 C 
HETATM    5  C13 UNL     1       1.520   6.256  19.655  1.00  0.00     0.009 C 
HETATM    6  C14 UNL     1       2.658   6.180  18.672  1.00  0.00    -0.013 C 
HETATM    7  C15 UNL     1       2.718   4.835  17.964  1.00  0.00     0.011 C 
HETATM    8  C16 UNL     1       3.971   6.318  19.418  1.00  0.00     0.026 C 
HETATM    9  C17 UNL     1       4.162   5.201  20.440  1.00  0.00     0.062 C 
HETATM   10  C26 UNL     1       2.979   5.355  21.411  1.00  0.00     0.026 C 
ENDROOT
BRANCH   9  11
HETATM   11  C18 UNL     1       5.415   5.486  21.151  1.00  0.00     0.228 C 
HETATM   12  O2  UNL     1       6.163   4.537  21.480  1.00  0.00    -0.273 OA
HETATM   13  N2  UNL     1       5.822   6.804  21.486  1.00  0.00    -0.356 N 
ATOM     14  H2  UNL     1       5.215   7.579  21.220  1.00  0.00     0.162 HD
BRANCH  13  15
HETATM   15  C19 UNL     1       7.046   7.103  22.181  1.00  0.00     0.087 C 
HETATM   16  C20 UNL     1       6.794   7.577  23.597  1.00  0.00     0.045 C 
HETATM   17  C21 UNL     1       8.108   7.667  24.335  1.00  0.00     0.128 C 
HETATM   18  N3  UNL     1       9.153   8.299  23.563  1.00  0.00    -0.347 N 
HETATM   19  C22 UNL     1      10.241   8.868  24.276  1.00  0.00     0.284 C 
HETATM   20  C24 UNL     1       9.159   8.385  22.130  1.00  0.00     0.128 C 
HETATM   21  O3  UNL     1      11.179   9.432  23.649  1.00  0.00    -0.267 OA
HETATM   22  C25 UNL     1       7.813   8.229  21.495  1.00  0.00     0.045 C 
BRANCH  19  23
HETATM   23  C23 UNL     1      10.306   8.819  25.757  1.00  0.00     0.444 C 
HETATM   24  F1  UNL     1      10.764   7.603  26.226  1.00  0.00    -0.204 F 
HETATM   25  F2  UNL     1      11.119   9.817  26.227  1.00  0.00    -0.204 F 
ENDBRANCH  19  23
ENDBRANCH  13  15
ENDBRANCH   9  11
BRANCH   1  26
HETATM   26  N1  UNL     1       5.167   3.383  19.094  1.00  0.00    -0.355 N 
HETATM   27  C8  UNL     1       5.713   2.101  19.300  1.00  0.00     0.222 C 
HETATM   28  O1  UNL     1       5.202   1.365  20.174  1.00  0.00    -0.273 OA
ATOM     29  H1  UNL     1       5.574   3.992  18.384  1.00  0.00     0.162 HD
BRANCH  27  30
HETATM   30  C7  UNL     1       6.849   1.586  18.545  1.00  0.00     0.082 C 
HETATM   31  C6  UNL     1       8.153   1.687  19.282  1.00  0.00     0.003 C 
HETATM   32  C2  UNL     1       8.909   2.809  18.552  1.00  0.00    -0.010 C 
HETATM   33  C5  UNL     1       9.005   0.513  18.770  1.00  0.00     0.006 C 
HETATM   34  C1  UNL     1       8.406   4.167  18.839  1.00  0.00     0.011 C 
HETATM   35  C3  UNL     1       8.587   2.293  17.153  1.00  0.00    -0.010 C 
HETATM   36  C4  UNL     1       9.051   0.857  17.280  1.00  0.00     0.005 C 
HETATM   37  C27 UNL     1       7.069   2.287  17.222  1.00  0.00     0.019 C 
ENDBRANCH  27  30
ENDBRANCH   1  26
TORSDOF 5
ENDMDL
