MODEL 1
REMARK VINA RESULT: -8.955264638      0.000      0.000
REMARK  7 active torsions:
REMARK  status: ('A' for Active; 'I' for Inactive)
REMARK    1  A    between atoms: C2_2  and  C3_3 
REMARK    2  A    between atoms: C2_2  and  C18_27 
REMARK    3  A    between atoms: C3_3  and  N1_4 
REMARK       I    between atoms: N1_4  and  C4_6 
REMARK    4  A    between atoms: C4_6  and  C5_8 
REMARK       I    between atoms: N2_11  and  C8_12 
REMARK       I    between atoms: C8_12  and  N3_14 
REMARK    5  A    between atoms: N3_14  and  C9_16 
REMARK    6  A    between atoms: C18_27  and  O3_28 
REMARK    7  A    between atoms: C18_27  and  N4_30 
ROOT
HETATM    1  C5  UNL     1       5.667   7.384  20.719  1.00  0.00     0.090 C 
HETATM    2  C6  UNL     1       5.420   8.053  19.374  1.00  0.00     0.026 C 
HETATM    3  C7  UNL     1       5.641   6.964  18.338  1.00  0.00     0.134 C 
HETATM    4  N2  UNL     1       6.746   6.137  18.753  1.00  0.00    -0.333 N 
HETATM    5  C8  UNL     1       6.874   4.838  18.201  1.00  0.00     0.318 C 
HETATM    6  O2  UNL     1       6.022   4.428  17.371  1.00  0.00    -0.247 OA
HETATM    7  N3  UNL     1       7.935   3.972  18.551  1.00  0.00    -0.338 N 
ATOM      8  H3  UNL     1       8.636   4.286  19.222  1.00  0.00     0.164 HD
HETATM    9  C13 UNL     1       7.738   6.588  19.723  1.00  0.00     0.134 C 
HETATM   10  C14 UNL     1       7.146   7.745  20.503  1.00  0.00     0.026 C 
HETATM   11  C15 UNL     1       6.693   8.785  19.566  1.00  0.00    -0.028 A 
HETATM   12  C16 UNL     1       6.805  10.227  19.766  1.00  0.00     0.011 A 
HETATM   13  C17 UNL     1       7.471   9.480  18.577  1.00  0.00     0.011 A 
ENDROOT
BRANCH   1  14
HETATM   14  C4  UNL     1       5.022   8.226  21.794  1.00  0.00     0.222 C 
HETATM   15  N1  UNL     1       5.813   8.801  22.816  1.00  0.00    -0.360 N 
ATOM     16  H1  UNL     1       6.818   8.627  22.790  1.00  0.00     0.162 HD
HETATM   17  O1  UNL     1       3.781   8.350  21.687  1.00  0.00    -0.273 OA
BRANCH  15  18
HETATM   18  C3  UNL     1       5.302   9.618  23.896  1.00  0.00     0.135 C 
BRANCH  18  19
HETATM   19  C2  UNL     1       5.594   8.912  25.198  1.00  0.00     0.074 C 
HETATM   20  C1  UNL     1       4.294   8.252  25.693  1.00  0.00     0.020 C 
BRANCH  19  21
HETATM   21  C18 UNL     1       6.660   7.883  25.089  1.00  0.00     0.118 C 
BRANCH  21  22
HETATM   22  O3  UNL     1       6.254   6.661  24.905  1.00  0.00    -0.349 OA
ATOM     23  H3  UNL     1       5.845   6.482  24.066  1.00  0.00     0.219 HD
ENDBRANCH  21  22
BRANCH  21  24
HETATM   24  N4  UNL     1       8.047   8.071  25.158  1.00  0.00    -0.365 N 
HETATM   25  C19 UNL     1       8.615   7.990  23.839  1.00  0.00     0.124 C 
HETATM   26  C20 UNL     1       9.882   8.726  23.594  1.00  0.00     0.020 C 
HETATM   27  C21 UNL     1      10.228   9.811  24.532  1.00  0.00     0.002 C 
HETATM   28  C22 UNL     1      10.980   9.415  25.748  1.00  0.00     0.000 C 
HETATM   29  C23 UNL     1      10.985   7.979  26.088  1.00  0.00     0.002 C 
HETATM   30  C24 UNL     1       9.782   7.445  26.791  1.00  0.00     0.020 C 
HETATM   31  C25 UNL     1       8.512   8.271  26.519  1.00  0.00     0.124 C 
ENDBRANCH  21  24
ENDBRANCH  19  21
ENDBRANCH  18  19
ENDBRANCH  15  18
ENDBRANCH   1  14
BRANCH   7  32
HETATM   32  C9  UNL     1       8.044   2.665  17.982  1.00  0.00     0.097 C 
HETATM   33  C10 UNL     1       9.484   2.201  17.749  1.00  0.00     0.104 C 
HETATM   34  C11 UNL     1       9.038   0.838  18.250  1.00  0.00     0.247 C 
HETATM   35  F1  UNL     1       9.936   0.195  19.061  1.00  0.00    -0.206 F 
HETATM   36  F2  UNL     1       8.550   0.079  17.213  1.00  0.00    -0.206 F 
HETATM   37  C12 UNL     1       7.930   1.555  19.001  1.00  0.00     0.104 C 
ENDBRANCH   7  32
TORSDOF 7
ENDMDL
MODEL 2
REMARK VINA RESULT: -8.922362236      3.399      8.229
REMARK  7 active torsions:
REMARK  status: ('A' for Active; 'I' for Inactive)
REMARK    1  A    between atoms: C2_2  and  C3_3 
REMARK    2  A    between atoms: C2_2  and  C18_27 
REMARK    3  A    between atoms: C3_3  and  N1_4 
REMARK       I    between atoms: N1_4  and  C4_6 
REMARK    4  A    between atoms: C4_6  and  C5_8 
REMARK       I    between atoms: N2_11  and  C8_12 
REMARK       I    between atoms: C8_12  and  N3_14 
REMARK    5  A    between atoms: N3_14  and  C9_16 
REMARK    6  A    between atoms: C18_27  and  O3_28 
REMARK    7  A    between atoms: C18_27  and  N4_30 
ROOT
HETATM    1  C5  UNL     1       6.442   8.666  19.494  1.00  0.00     0.090 C 
HETATM    2  C6  UNL     1       5.663   9.955  19.718  1.00  0.00     0.026 C 
HETATM    3  C7  UNL     1       6.367  10.655  20.867  1.00  0.00     0.134 C 
HETATM    4  N2  UNL     1       6.790   9.669  21.830  1.00  0.00    -0.333 N 
HETATM    5  C8  UNL     1       7.815  10.005  22.750  1.00  0.00     0.318 C 
HETATM    6  O2  UNL     1       8.341  11.147  22.705  1.00  0.00    -0.247 OA
HETATM    7  N3  UNL     1       8.276   9.097  23.729  1.00  0.00    -0.338 N 
ATOM      8  H3  UNL     1       7.862   8.165  23.782  1.00  0.00     0.164 HD
HETATM    9  C13 UNL     1       6.203   8.335  21.891  1.00  0.00     0.134 C 
HETATM   10  C14 UNL     1       5.524   8.055  20.565  1.00  0.00     0.026 C 
HETATM   11  C15 UNL     1       4.564   9.131  20.271  1.00  0.00    -0.028 A 
HETATM   12  C16 UNL     1       3.253   8.964  19.652  1.00  0.00     0.011 A 
HETATM   13  C17 UNL     1       3.452   9.563  21.072  1.00  0.00     0.011 A 
ENDROOT
BRANCH   1  14
HETATM   14  C4  UNL     1       6.127   8.154  18.108  1.00  0.00     0.222 C 
HETATM   15  N1  UNL     1       5.788   6.795  17.913  1.00  0.00    -0.360 N 
ATOM     16  H1  UNL     1       5.764   6.191  18.736  1.00  0.00     0.162 HD
HETATM   17  O1  UNL     1       6.195   9.018  17.204  1.00  0.00    -0.273 OA
BRANCH  15  18
HETATM   18  C3  UNL     1       5.473   6.198  16.633  1.00  0.00     0.135 C 
BRANCH  18  19
HETATM   19  C2  UNL     1       5.462   4.697  16.805  1.00  0.00     0.074 C 
HETATM   20  C1  UNL     1       4.257   4.131  16.034  1.00  0.00     0.020 C 
BRANCH  19  21
HETATM   21  C18 UNL     1       6.706   4.036  16.332  1.00  0.00     0.118 C 
BRANCH  21  22
HETATM   22  O3  UNL     1       6.969   4.162  15.065  1.00  0.00    -0.349 OA
ATOM     23  H3  UNL     1       7.432   4.953  14.813  1.00  0.00     0.219 HD
ENDBRANCH  21  22
BRANCH  21  24
HETATM   24  N4  UNL     1       7.628   3.298  17.086  1.00  0.00    -0.365 N 
HETATM   25  C19 UNL     1       7.932   4.000  18.305  1.00  0.00     0.124 C 
HETATM   26  C20 UNL     1       8.364   3.188  19.471  1.00  0.00     0.020 C 
HETATM   27  C21 UNL     1       8.039   1.749  19.455  1.00  0.00     0.002 C 
HETATM   28  C22 UNL     1       9.017   0.860  18.783  1.00  0.00     0.000 C 
HETATM   29  C23 UNL     1      10.002   1.506  17.896  1.00  0.00     0.002 C 
HETATM   30  C24 UNL     1       9.546   1.859  16.520  1.00  0.00     0.020 C 
HETATM   31  C25 UNL     1       8.023   2.066  16.427  1.00  0.00     0.124 C 
ENDBRANCH  21  24
ENDBRANCH  19  21
ENDBRANCH  18  19
ENDBRANCH  15  18
ENDBRANCH   1  14
BRANCH   7  32
HETATM   32  C9  UNL     1       9.311   9.457  24.647  1.00  0.00     0.097 C 
HETATM   33  C10 UNL     1       9.396   8.556  25.882  1.00  0.00     0.104 C 
HETATM   34  C11 UNL     1      10.906   8.628  25.727  1.00  0.00     0.247 C 
HETATM   35  F1  UNL     1      11.570   7.453  25.960  1.00  0.00    -0.206 F 
HETATM   36  F2  UNL     1      11.407   9.717  26.399  1.00  0.00    -0.206 F 
HETATM   37  C12 UNL     1      10.671   8.926  24.257  1.00  0.00     0.104 C 
ENDBRANCH   7  32
TORSDOF 7
ENDMDL
MODEL 3
REMARK VINA RESULT: -8.781644696      3.281      8.021
REMARK  7 active torsions:
REMARK  status: ('A' for Active; 'I' for Inactive)
REMARK    1  A    between atoms: C2_2  and  C3_3 
REMARK    2  A    between atoms: C2_2  and  C18_27 
REMARK    3  A    between atoms: C3_3  and  N1_4 
REMARK       I    between atoms: N1_4  and  C4_6 
REMARK    4  A    between atoms: C4_6  and  C5_8 
REMARK       I    between atoms: N2_11  and  C8_12 
REMARK       I    between atoms: C8_12  and  N3_14 
REMARK    5  A    between atoms: N3_14  and  C9_16 
REMARK    6  A    between atoms: C18_27  and  O3_28 
REMARK    7  A    between atoms: C18_27  and  N4_30 
ROOT
HETATM    1  C5  UNL     1       7.370   7.941  21.035  1.00  0.00     0.090 C 
HETATM    2  C6  UNL     1       7.913   9.295  20.596  1.00  0.00     0.026 C 
HETATM    3  C7  UNL     1       8.979   9.649  21.618  1.00  0.00     0.134 C 
HETATM    4  N2  UNL     1       8.539   9.226  22.924  1.00  0.00    -0.333 N 
HETATM    5  C8  UNL     1       9.503   9.054  23.949  1.00  0.00     0.318 C 
HETATM    6  O2  UNL     1      10.718   9.265  23.702  1.00  0.00    -0.247 OA
HETATM    7  N3  UNL     1       9.149   8.651  25.256  1.00  0.00    -0.338 N 
ATOM      8  H3  UNL     1       8.168   8.476  25.477  1.00  0.00     0.164 HD
HETATM    9  C13 UNL     1       7.137   8.964  23.229  1.00  0.00     0.134 C 
HETATM   10  C14 UNL     1       6.402   8.740  21.923  1.00  0.00     0.026 C 
HETATM   11  C15 UNL     1       6.628   9.889  21.031  1.00  0.00    -0.028 A 
HETATM   12  C16 UNL     1       5.641  10.489  20.139  1.00  0.00     0.011 A 
HETATM   13  C17 UNL     1       6.335  11.272  21.286  1.00  0.00     0.011 A 
ENDROOT
BRANCH   1  14
HETATM   14  C4  UNL     1       6.675   7.302  19.856  1.00  0.00     0.222 C 
HETATM   15  N1  UNL     1       5.520   6.510  20.057  1.00  0.00    -0.360 N 
ATOM     16  H1  UNL     1       5.185   6.397  21.014  1.00  0.00     0.162 HD
HETATM   17  O1  UNL     1       7.204   7.539  18.746  1.00  0.00    -0.273 OA
BRANCH  15  18
HETATM   18  C3  UNL     1       4.779   5.849  19.004  1.00  0.00     0.135 C 
BRANCH  18  19
HETATM   19  C2  UNL     1       5.243   4.414  18.934  1.00  0.00     0.074 C 
HETATM   20  C1  UNL     1       4.062   3.546  18.463  1.00  0.00     0.020 C 
BRANCH  19  21
HETATM   21  C18 UNL     1       6.400   4.208  18.024  1.00  0.00     0.118 C 
BRANCH  21  22
HETATM   22  O3  UNL     1       6.622   5.157  17.164  1.00  0.00    -0.349 OA
ATOM     23  H3  UNL     1       5.856   5.502  16.719  1.00  0.00     0.219 HD
ENDBRANCH  21  22
BRANCH  21  24
HETATM   24  N4  UNL     1       7.280   3.117  17.985  1.00  0.00    -0.365 N 
HETATM   25  C19 UNL     1       7.237   2.506  16.683  1.00  0.00     0.124 C 
HETATM   26  C20 UNL     1       8.450   1.778  16.231  1.00  0.00     0.020 C 
HETATM   27  C21 UNL     1       9.722   2.091  16.910  1.00  0.00     0.002 C 
HETATM   28  C22 UNL     1      10.018   1.320  18.142  1.00  0.00     0.000 C 
HETATM   29  C23 UNL     1       8.888   0.606  18.767  1.00  0.00     0.002 C 
HETATM   30  C24 UNL     1       7.969   1.411  19.623  1.00  0.00     0.020 C 
HETATM   31  C25 UNL     1       7.956   2.905  19.252  1.00  0.00     0.124 C 
ENDBRANCH  21  24
ENDBRANCH  19  21
ENDBRANCH  18  19
ENDBRANCH  15  18
ENDBRANCH   1  14
BRANCH   7  32
HETATM   32  C9  UNL     1      10.138   8.485  26.275  1.00  0.00     0.097 C 
HETATM   33  C10 UNL     1       9.798   7.407  27.309  1.00  0.00     0.104 C 
HETATM   34  C11 UNL     1      11.261   7.001  27.242  1.00  0.00     0.247 C 
HETATM   35  F1  UNL     1      11.489   5.650  27.267  1.00  0.00    -0.206 F 
HETATM   36  F2  UNL     1      12.004   7.729  28.140  1.00  0.00    -0.206 F 
HETATM   37  C12 UNL     1      11.294   7.608  25.851  1.00  0.00     0.104 C 
ENDBRANCH   7  32
TORSDOF 7
ENDMDL
MODEL 4
REMARK VINA RESULT: -8.755222507      3.314      8.293
REMARK  7 active torsions:
REMARK  status: ('A' for Active; 'I' for Inactive)
REMARK    1  A    between atoms: C2_2  and  C3_3 
REMARK    2  A    between atoms: C2_2  and  C18_27 
REMARK    3  A    between atoms: C3_3  and  N1_4 
REMARK       I    between atoms: N1_4  and  C4_6 
REMARK    4  A    between atoms: C4_6  and  C5_8 
REMARK       I    between atoms: N2_11  and  C8_12 
REMARK       I    between atoms: C8_12  and  N3_14 
REMARK    5  A    between atoms: N3_14  and  C9_16 
REMARK    6  A    between atoms: C18_27  and  O3_28 
REMARK    7  A    between atoms: C18_27  and  N4_30 
ROOT
HETATM    1  C5  UNL     1       6.034   7.998  19.817  1.00  0.00     0.090 C 
HETATM    2  C6  UNL     1       4.839   8.699  20.450  1.00  0.00     0.026 C 
HETATM    3  C7  UNL     1       5.394   9.411  21.671  1.00  0.00     0.134 C 
HETATM    4  N2  UNL     1       6.391   8.576  22.291  1.00  0.00    -0.333 N 
HETATM    5  C8  UNL     1       7.336   9.170  23.165  1.00  0.00     0.318 C 
HETATM    6  O2  UNL     1       7.295  10.409  23.376  1.00  0.00    -0.247 OA
HETATM    7  N3  UNL     1       8.338   8.416  23.817  1.00  0.00    -0.338 N 
ATOM      8  H3  UNL     1       8.388   7.409  23.659  1.00  0.00     0.164 HD
HETATM    9  C13 UNL     1       6.466   7.139  22.050  1.00  0.00     0.134 C 
HETATM   10  C14 UNL     1       5.716   6.834  20.769  1.00  0.00     0.026 C 
HETATM   11  C15 UNL     1       4.347   7.366  20.866  1.00  0.00    -0.028 A 
HETATM   12  C16 UNL     1       3.140   6.724  20.354  1.00  0.00     0.011 A 
HETATM   13  C17 UNL     1       3.351   7.060  21.856  1.00  0.00     0.011 A 
ENDROOT
BRANCH   1  14
HETATM   14  C4  UNL     1       5.691   7.676  18.381  1.00  0.00     0.222 C 
HETATM   15  N1  UNL     1       5.866   6.362  17.887  1.00  0.00    -0.360 N 
ATOM     16  H1  UNL     1       6.223   5.658  18.533  1.00  0.00     0.162 HD
HETATM   17  O1  UNL     1       5.259   8.645  17.717  1.00  0.00    -0.273 OA
BRANCH  15  18
HETATM   18  C3  UNL     1       5.574   5.944  16.533  1.00  0.00     0.135 C 
BRANCH  18  19
HETATM   19  C2  UNL     1       5.523   4.435  16.508  1.00  0.00     0.074 C 
HETATM   20  C1  UNL     1       4.427   4.004  15.517  1.00  0.00     0.020 C 
BRANCH  19  21
HETATM   21  C18 UNL     1       6.813   3.804  16.123  1.00  0.00     0.118 C 
BRANCH  21  22
HETATM   22  O3  UNL     1       7.146   3.909  14.871  1.00  0.00    -0.349 OA
ATOM     23  H3  UNL     1       7.388   4.780  14.577  1.00  0.00     0.219 HD
ENDBRANCH  21  22
BRANCH  21  24
HETATM   24  N4  UNL     1       7.712   3.113  16.947  1.00  0.00    -0.365 N 
HETATM   25  C19 UNL     1       7.955   3.872  18.144  1.00  0.00     0.124 C 
HETATM   26  C20 UNL     1       8.349   3.119  19.363  1.00  0.00     0.020 C 
HETATM   27  C21 UNL     1       8.042   1.677  19.398  1.00  0.00     0.002 C 
HETATM   28  C22 UNL     1       9.059   0.772  18.807  1.00  0.00     0.000 C 
HETATM   29  C23 UNL     1      10.072   1.393  17.933  1.00  0.00     0.002 C 
HETATM   30  C24 UNL     1       9.669   1.678  16.525  1.00  0.00     0.020 C 
HETATM   31  C25 UNL     1       8.149   1.858  16.361  1.00  0.00     0.124 C 
ENDBRANCH  21  24
ENDBRANCH  19  21
ENDBRANCH  18  19
ENDBRANCH  15  18
ENDBRANCH   1  14
BRANCH   7  32
HETATM   32  C9  UNL     1       9.280   9.037  24.694  1.00  0.00     0.097 C 
HETATM   33  C10 UNL     1       9.694   8.168  25.886  1.00  0.00     0.104 C 
HETATM   34  C11 UNL     1      11.108   8.675  25.657  1.00  0.00     0.247 C 
HETATM   35  F1  UNL     1      12.092   7.734  25.809  1.00  0.00    -0.206 F 
HETATM   36  F2  UNL     1      11.318   9.846  26.346  1.00  0.00    -0.206 F 
HETATM   37  C12 UNL     1      10.710   8.927  24.214  1.00  0.00     0.104 C 
ENDBRANCH   7  32
TORSDOF 7
ENDMDL
MODEL 5
REMARK VINA RESULT: -8.728843301      3.329      8.133
REMARK  7 active torsions:
REMARK  status: ('A' for Active; 'I' for Inactive)
REMARK    1  A    between atoms: C2_2  and  C3_3 
REMARK    2  A    between atoms: C2_2  and  C18_27 
REMARK    3  A    between atoms: C3_3  and  N1_4 
REMARK       I    between atoms: N1_4  and  C4_6 
REMARK    4  A    between atoms: C4_6  and  C5_8 
REMARK       I    between atoms: N2_11  and  C8_12 
REMARK       I    between atoms: C8_12  and  N3_14 
REMARK    5  A    between atoms: N3_14  and  C9_16 
REMARK    6  A    between atoms: C18_27  and  O3_28 
REMARK    7  A    between atoms: C18_27  and  N4_30 
ROOT
HETATM    1  C5  UNL     1       7.407   8.075  21.903  1.00  0.00     0.090 C 
HETATM    2  C6  UNL     1       6.990   9.519  22.151  1.00  0.00     0.026 C 
HETATM    3  C7  UNL     1       8.052  10.089  23.077  1.00  0.00     0.134 C 
HETATM    4  N2  UNL     1       8.439   9.078  24.028  1.00  0.00    -0.333 N 
HETATM    5  C8  UNL     1       9.680   9.210  24.701  1.00  0.00     0.318 C 
HETATM    6  O2  UNL     1      10.420  10.196  24.452  1.00  0.00    -0.247 OA
HETATM    7  N3  UNL     1      10.124   8.266  25.653  1.00  0.00    -0.338 N 
ATOM      8  H3  UNL     1       9.538   7.459  25.869  1.00  0.00     0.164 HD
HETATM    9  C13 UNL     1       7.602   7.920  24.322  1.00  0.00     0.134 C 
HETATM   10  C14 UNL     1       6.620   7.743  23.181  1.00  0.00     0.026 C 
HETATM   11  C15 UNL     1       5.877   8.997  22.977  1.00  0.00    -0.028 A 
HETATM   12  C16 UNL     1       4.462   9.110  22.638  1.00  0.00     0.011 A 
HETATM   13  C17 UNL     1       5.075   9.712  23.932  1.00  0.00     0.011 A 
ENDROOT
BRANCH   1  14
HETATM   14  C4  UNL     1       6.710   7.587  20.655  1.00  0.00     0.222 C 
HETATM   15  N1  UNL     1       5.698   6.603  20.747  1.00  0.00    -0.360 N 
ATOM     16  H1  UNL     1       5.464   6.250  21.676  1.00  0.00     0.162 HD
HETATM   17  O1  UNL     1       7.104   8.119  19.593  1.00  0.00    -0.273 OA
BRANCH  15  18
HETATM   18  C3  UNL     1       4.969   6.061  19.621  1.00  0.00     0.135 C 
BRANCH  18  19
HETATM   19  C2  UNL     1       5.408   4.630  19.422  1.00  0.00     0.074 C 
HETATM   20  C1  UNL     1       4.235   3.843  18.810  1.00  0.00     0.020 C 
BRANCH  19  21
HETATM   21  C18 UNL     1       6.604   4.492  18.549  1.00  0.00     0.118 C 
BRANCH  21  22
HETATM   22  O3  UNL     1       6.967   5.564  17.910  1.00  0.00    -0.349 OA
ATOM     23  H3  UNL     1       6.603   5.670  17.038  1.00  0.00     0.219 HD
ENDBRANCH  21  22
BRANCH  21  24
HETATM   24  N4  UNL     1       7.386   3.348  18.336  1.00  0.00    -0.365 N 
HETATM   25  C19 UNL     1       7.318   2.965  16.951  1.00  0.00     0.124 C 
HETATM   26  C20 UNL     1       8.472   2.216  16.392  1.00  0.00     0.020 C 
HETATM   27  C21 UNL     1       9.752   2.298  17.122  1.00  0.00     0.002 C 
HETATM   28  C22 UNL     1       9.954   1.313  18.212  1.00  0.00     0.000 C 
HETATM   29  C23 UNL     1       8.753   0.610  18.702  1.00  0.00     0.002 C 
HETATM   30  C24 UNL     1       7.889   1.342  19.673  1.00  0.00     0.020 C 
HETATM   31  C25 UNL     1       8.014   2.872  19.555  1.00  0.00     0.124 C 
ENDBRANCH  21  24
ENDBRANCH  19  21
ENDBRANCH  18  19
ENDBRANCH  15  18
ENDBRANCH   1  14
BRANCH   7  32
HETATM   32  C9  UNL     1      11.380   8.419  26.320  1.00  0.00     0.097 C 
HETATM   33  C10 UNL     1      11.832   7.180  27.098  1.00  0.00     0.104 C 
HETATM   34  C11 UNL     1      13.229   7.464  26.572  1.00  0.00     0.247 C 
HETATM   35  F1  UNL     1      13.944   6.356  26.198  1.00  0.00    -0.206 F 
HETATM   36  F2  UNL     1      13.895   8.323  27.413  1.00  0.00    -0.206 F 
HETATM   37  C12 UNL     1      12.571   8.195  25.416  1.00  0.00     0.104 C 
ENDBRANCH   7  32
TORSDOF 7
ENDMDL
