MODEL 1
REMARK VINA RESULT: -7.294849354      0.000      0.000
REMARK  8 active torsions:
REMARK  status: ('A' for Active; 'I' for Inactive)
REMARK    1  A    between atoms: N1_1  and  C1_5 
REMARK    2  A    between atoms: C1_5  and  C2_6 
REMARK    3  A    between atoms: C2_6  and  C3_7 
REMARK    4  A    between atoms: C3_7  and  O1_8 
REMARK    5  A    between atoms: O1_8  and  C4_9 
REMARK    6  A    between atoms: C5_10  and  C6_11 
REMARK    7  A    between atoms: C6_11  and  N2_12 
REMARK    8  A    between atoms: C6_11  and  N3_16 
ROOT
HETATM    1  C4  UNL     1      17.355 -18.621  41.727  1.00  0.00     0.103 A 
HETATM    2  C5  UNL     1      16.818 -18.388  40.490  1.00  0.00     0.101 A 
HETATM    3  C7  UNL     1      15.506 -18.722  40.237  1.00  0.00     0.259 A 
HETATM    4  O2  UNL     1      14.979 -18.513  39.091  1.00  0.00    -0.267 OA
HETATM    5  N4  UNL     1      14.705 -19.272  41.141  1.00  0.00    -0.308 N 
ATOM      6  H4  UNL     1      13.738 -19.503  40.913  1.00  0.00     0.170 HD
HETATM    7  C8  UNL     1      15.202 -19.514  42.359  1.00  0.00     0.130 A 
HETATM    8  N5  UNL     1      14.423 -20.080  43.289  1.00  0.00    -0.293 N 
ATOM      9  H5  UNL     1      13.457 -20.306  43.050  1.00  0.00     0.172 HD
HETATM   10  C9  UNL     1      14.869 -20.363  44.533  1.00  0.00     0.328 A 
HETATM   11  O3  UNL     1      14.145 -20.890  45.404  1.00  0.00    -0.247 OA
HETATM   12  N6  UNL     1      16.143 -20.066  44.855  1.00  0.00    -0.275 N 
ATOM     13  H6  UNL     1      16.498 -20.273  45.789  1.00  0.00     0.173 HD
HETATM   14  C10 UNL     1      16.940 -19.499  43.939  1.00  0.00     0.266 A 
HETATM   15  O4  UNL     1      18.101 -19.249  44.280  1.00  0.00    -0.267 OA
HETATM   16  C11 UNL     1      16.536 -19.190  42.663  1.00  0.00     0.110 A 
ENDROOT
BRANCH   2  17
HETATM   17  C6  UNL     1      17.574 -17.783  39.368  1.00  0.00     0.419 C 
BRANCH  17  18
HETATM   18  N2  UNL     1      17.005 -16.471  39.132  1.00  0.00    -0.046 N 
ATOM     19  H23 UNL     1      16.520 -16.401  38.237  1.00  0.00     0.277 HD
ATOM     20  H22 UNL     1      16.204 -16.268  39.730  1.00  0.00     0.277 HD
ATOM     21  H21 UNL     1      17.763 -15.795  39.232  1.00  0.00     0.277 HD
ENDBRANCH  17  18
BRANCH  17  22
HETATM   22  N3  UNL     1      17.297 -18.560  38.149  1.00  0.00    -0.046 N 
ATOM     23  H33 UNL     1      18.146 -18.906  37.702  1.00  0.00     0.277 HD
ATOM     24  H32 UNL     1      16.868 -19.464  38.348  1.00  0.00     0.277 HD
ATOM     25  H31 UNL     1      16.731 -17.987  37.523  1.00  0.00     0.277 HD
ENDBRANCH  17  22
ENDBRANCH   2  17
BRANCH   1  26
HETATM   26  O1  UNL     1      18.639 -18.299  41.992  1.00  0.00    -0.349 OA
BRANCH  26  27
HETATM   27  C3  UNL     1      19.814 -18.724  41.377  1.00  0.00     0.177 C 
BRANCH  27  28
HETATM   28  C2  UNL     1      20.055 -20.188  41.696  1.00  0.00     0.054 C 
BRANCH  28  29
HETATM   29  C1  UNL     1      21.100 -20.365  42.770  1.00  0.00     0.231 C 
BRANCH  29  30
HETATM   30  N1  UNL     1      20.987 -19.304  43.748  1.00  0.00    -0.079 N 
ATOM     31  H13 UNL     1      21.777 -18.661  43.708  1.00  0.00     0.274 HD
ATOM     32  H12 UNL     1      20.246 -18.644  43.512  1.00  0.00     0.274 HD
ATOM     33  H11 UNL     1      20.863 -19.701  44.679  1.00  0.00     0.274 HD
ENDBRANCH  29  30
ENDBRANCH  28  29
ENDBRANCH  27  28
ENDBRANCH  26  27
ENDBRANCH   1  26
TORSDOF 8
ENDMDL
MODEL 2
REMARK VINA RESULT: -7.131765754      1.774      4.668
REMARK  8 active torsions:
REMARK  status: ('A' for Active; 'I' for Inactive)
REMARK    1  A    between atoms: N1_1  and  C1_5 
REMARK    2  A    between atoms: C1_5  and  C2_6 
REMARK    3  A    between atoms: C2_6  and  C3_7 
REMARK    4  A    between atoms: C3_7  and  O1_8 
REMARK    5  A    between atoms: O1_8  and  C4_9 
REMARK    6  A    between atoms: C5_10  and  C6_11 
REMARK    7  A    between atoms: C6_11  and  N2_12 
REMARK    8  A    between atoms: C6_11  and  N3_16 
ROOT
HETATM    1  C4  UNL     1      17.147 -18.557  41.542  1.00  0.00     0.103 A 
HETATM    2  C5  UNL     1      15.903 -18.798  42.060  1.00  0.00     0.101 A 
HETATM    3  C7  UNL     1      15.777 -19.403  43.290  1.00  0.00     0.259 A 
HETATM    4  O2  UNL     1      14.627 -19.637  43.798  1.00  0.00    -0.267 OA
HETATM    5  N4  UNL     1      16.813 -19.779  44.028  1.00  0.00    -0.308 N 
ATOM      6  H4  UNL     1      16.676 -20.224  44.936  1.00  0.00     0.170 HD
HETATM    7  C8  UNL     1      18.042 -19.559  43.549  1.00  0.00     0.130 A 
HETATM    8  N5  UNL     1      19.108 -19.940  44.264  1.00  0.00    -0.293 N 
ATOM      9  H5  UNL     1      18.958 -20.383  45.171  1.00  0.00     0.172 HD
HETATM   10  C9  UNL     1      20.374 -19.759  43.829  1.00  0.00     0.328 A 
HETATM   11  O3  UNL     1      21.371 -20.112  44.493  1.00  0.00    -0.247 OA
HETATM   12  N6  UNL     1      20.578 -19.174  42.632  1.00  0.00    -0.275 N 
ATOM     13  H6  UNL     1      21.527 -19.029  42.286  1.00  0.00     0.173 HD
HETATM   14  C10 UNL     1      19.525 -18.785  41.900  1.00  0.00     0.266 A 
HETATM   15  O4  UNL     1      19.762 -18.257  40.809  1.00  0.00    -0.267 OA
HETATM   16  C11 UNL     1      18.220 -18.944  42.296  1.00  0.00     0.110 A 
ENDROOT
BRANCH   2  17
HETATM   17  C6  UNL     1      14.642 -18.441  41.366  1.00  0.00     0.419 C 
BRANCH  17  18
HETATM   18  N2  UNL     1      14.103 -17.276  42.037  1.00  0.00    -0.046 N 
ATOM     19  H23 UNL     1      13.867 -17.450  43.014  1.00  0.00     0.277 HD
ATOM     20  H22 UNL     1      14.800 -16.548  42.200  1.00  0.00     0.277 HD
ATOM     21  H21 UNL     1      13.309 -16.953  41.484  1.00  0.00     0.277 HD
ENDBRANCH  17  18
BRANCH  17  22
HETATM   22  N3  UNL     1      13.666 -19.518  41.596  1.00  0.00    -0.046 N 
ATOM     23  H33 UNL     1      13.226 -19.840  40.734  1.00  0.00     0.277 HD
ATOM     24  H32 UNL     1      14.107 -20.398  41.864  1.00  0.00     0.277 HD
ATOM     25  H31 UNL     1      12.987 -19.194  42.286  1.00  0.00     0.277 HD
ENDBRANCH  17  22
ENDBRANCH   2  17
BRANCH   1  26
HETATM   26  O1  UNL     1      17.289 -17.963  40.338  1.00  0.00    -0.349 OA
BRANCH  26  27
HETATM   27  C3  UNL     1      17.055 -18.464  39.059  1.00  0.00     0.177 C 
BRANCH  27  28
HETATM   28  C2  UNL     1      17.313 -17.376  38.032  1.00  0.00     0.054 C 
BRANCH  28  29
HETATM   29  C1  UNL     1      16.944 -17.819  36.638  1.00  0.00     0.231 C 
BRANCH  29  30
HETATM   30  N1  UNL     1      16.498 -19.196  36.661  1.00  0.00    -0.079 N 
ATOM     31  H13 UNL     1      16.605 -19.618  37.583  1.00  0.00     0.274 HD
ATOM     32  H12 UNL     1      15.484 -19.271  36.580  1.00  0.00     0.274 HD
ATOM     33  H11 UNL     1      16.980 -19.729  35.937  1.00  0.00     0.274 HD
ENDBRANCH  29  30
ENDBRANCH  28  29
ENDBRANCH  27  28
ENDBRANCH  26  27
ENDBRANCH   1  26
TORSDOF 8
ENDMDL
MODEL 3
REMARK VINA RESULT: -6.946507100      1.782      4.541
REMARK  8 active torsions:
REMARK  status: ('A' for Active; 'I' for Inactive)
REMARK    1  A    between atoms: N1_1  and  C1_5 
REMARK    2  A    between atoms: C1_5  and  C2_6 
REMARK    3  A    between atoms: C2_6  and  C3_7 
REMARK    4  A    between atoms: C3_7  and  O1_8 
REMARK    5  A    between atoms: O1_8  and  C4_9 
REMARK    6  A    between atoms: C5_10  and  C6_11 
REMARK    7  A    between atoms: C6_11  and  N2_12 
REMARK    8  A    between atoms: C6_11  and  N3_16 
ROOT
HETATM    1  C4  UNL     1      16.426 -19.199  41.691  1.00  0.00     0.103 A 
HETATM    2  C5  UNL     1      15.164 -19.426  42.169  1.00  0.00     0.101 A 
HETATM    3  C7  UNL     1      14.071 -19.156  41.377  1.00  0.00     0.259 A 
HETATM    4  O2  UNL     1      12.881 -19.361  41.798  1.00  0.00    -0.267 OA
HETATM    5  N4  UNL     1      14.163 -18.676  40.144  1.00  0.00    -0.308 N 
ATOM      6  H4  UNL     1      13.327 -18.491  39.589  1.00  0.00     0.170 HD
HETATM    7  C8  UNL     1      15.383 -18.441  39.649  1.00  0.00     0.130 A 
HETATM    8  N5  UNL     1      15.510 -17.945  38.412  1.00  0.00    -0.293 N 
ATOM      9  H5  UNL     1      14.667 -17.764  37.866  1.00  0.00     0.172 HD
HETATM   10  C9  UNL     1      16.713 -17.673  37.860  1.00  0.00     0.328 A 
HETATM   11  O3  UNL     1      16.836 -17.210  36.707  1.00  0.00    -0.247 OA
HETATM   12  N6  UNL     1      17.830 -17.909  38.575  1.00  0.00    -0.275 N 
ATOM     13  H6  UNL     1      18.747 -17.710  38.176  1.00  0.00     0.173 HD
HETATM   14  C10 UNL     1      17.726 -18.407  39.816  1.00  0.00     0.266 A 
HETATM   15  O4  UNL     1      18.778 -18.603  40.433  1.00  0.00    -0.267 OA
HETATM   16  C11 UNL     1      16.530 -18.701  40.421  1.00  0.00     0.110 A 
ENDROOT
BRANCH   2  17
HETATM   17  C6  UNL     1      14.883 -19.958  43.525  1.00  0.00     0.419 C 
BRANCH  17  18
HETATM   18  N2  UNL     1      15.957 -19.508  44.388  1.00  0.00    -0.046 N 
ATOM     19  H23 UNL     1      16.606 -18.874  43.921  1.00  0.00     0.277 HD
ATOM     20  H22 UNL     1      15.644 -18.864  45.114  1.00  0.00     0.277 HD
ATOM     21  H21 UNL     1      16.410 -20.343  44.760  1.00  0.00     0.277 HD
ENDBRANCH  17  18
BRANCH  17  22
HETATM   22  N3  UNL     1      15.000 -21.425  43.479  1.00  0.00    -0.046 N 
ATOM     23  H33 UNL     1      14.104 -21.895  43.609  1.00  0.00     0.277 HD
ATOM     24  H32 UNL     1      15.205 -21.774  42.543  1.00  0.00     0.277 HD
ATOM     25  H31 UNL     1      15.697 -21.714  44.167  1.00  0.00     0.277 HD
ENDBRANCH  17  22
ENDBRANCH   2  17
BRANCH   1  26
HETATM   26  O1  UNL     1      17.509 -19.459  42.454  1.00  0.00    -0.349 OA
BRANCH  26  27
HETATM   27  C3  UNL     1      18.283 -20.614  42.547  1.00  0.00     0.177 C 
BRANCH  27  28
HETATM   28  C2  UNL     1      19.575 -20.302  43.281  1.00  0.00     0.054 C 
BRANCH  28  29
HETATM   29  C1  UNL     1      19.555 -18.924  43.895  1.00  0.00     0.231 C 
BRANCH  29  30
HETATM   30  N1  UNL     1      19.964 -17.941  42.915  1.00  0.00    -0.079 N 
ATOM     31  H13 UNL     1      20.908 -17.597  43.089  1.00  0.00     0.274 HD
ATOM     32  H12 UNL     1      20.126 -18.359  41.999  1.00  0.00     0.274 HD
ATOM     33  H11 UNL     1      19.281 -17.184  42.876  1.00  0.00     0.274 HD
ENDBRANCH  29  30
ENDBRANCH  28  29
ENDBRANCH  27  28
ENDBRANCH  26  27
ENDBRANCH   1  26
TORSDOF 8
ENDMDL
MODEL 4
REMARK VINA RESULT: -6.842959544      1.722      4.606
REMARK  8 active torsions:
REMARK  status: ('A' for Active; 'I' for Inactive)
REMARK    1  A    between atoms: N1_1  and  C1_5 
REMARK    2  A    between atoms: C1_5  and  C2_6 
REMARK    3  A    between atoms: C2_6  and  C3_7 
REMARK    4  A    between atoms: C3_7  and  O1_8 
REMARK    5  A    between atoms: O1_8  and  C4_9 
REMARK    6  A    between atoms: C5_10  and  C6_11 
REMARK    7  A    between atoms: C6_11  and  N2_12 
REMARK    8  A    between atoms: C6_11  and  N3_16 
ROOT
HETATM    1  C4  UNL     1      17.050 -19.882  42.331  1.00  0.00     0.103 A 
HETATM    2  C5  UNL     1      15.857 -20.058  42.979  1.00  0.00     0.101 A 
HETATM    3  C7  UNL     1      14.710 -19.490  42.472  1.00  0.00     0.259 A 
HETATM    4  O2  UNL     1      13.583 -19.640  43.056  1.00  0.00    -0.267 OA
HETATM    5  N4  UNL     1      14.684 -18.761  41.364  1.00  0.00    -0.308 N 
ATOM      6  H4  UNL     1      13.812 -18.359  41.021  1.00  0.00     0.170 HD
HETATM    7  C8  UNL     1      15.835 -18.570  40.709  1.00  0.00     0.130 A 
HETATM    8  N5  UNL     1      15.844 -17.828  39.594  1.00  0.00    -0.293 N 
ATOM      9  H5  UNL     1      14.965 -17.432  39.260  1.00  0.00     0.172 HD
HETATM   10  C9  UNL     1      16.975 -17.586  38.895  1.00  0.00     0.328 A 
HETATM   11  O3  UNL     1      16.988 -16.895  37.854  1.00  0.00    -0.247 OA
HETATM   12  N6  UNL     1      18.138 -18.107  39.330  1.00  0.00    -0.275 N 
ATOM     13  H6  UNL     1      19.003 -17.935  38.816  1.00  0.00     0.173 HD
HETATM   14  C10 UNL     1      18.151 -18.853  40.444  1.00  0.00     0.266 A 
HETATM   15  O4  UNL     1      19.242 -19.305  40.806  1.00  0.00    -0.267 OA
HETATM   16  C11 UNL     1      17.032 -19.130  41.189  1.00  0.00     0.110 A 
ENDROOT
BRANCH   2  17
HETATM   17  C6  UNL     1      15.710 -20.842  44.229  1.00  0.00     0.419 C 
BRANCH  17  18
HETATM   18  N2  UNL     1      14.863 -21.976  43.921  1.00  0.00    -0.046 N 
ATOM     19  H23 UNL     1      15.318 -22.664  43.322  1.00  0.00     0.277 HD
ATOM     20  H22 UNL     1      14.703 -22.587  44.723  1.00  0.00     0.277 HD
ATOM     21  H21 UNL     1      14.001 -21.604  43.522  1.00  0.00     0.277 HD
ENDBRANCH  17  18
BRANCH  17  22
HETATM   22  N3  UNL     1      14.952 -20.032  45.198  1.00  0.00    -0.046 N 
ATOM     23  H33 UNL     1      13.946 -20.070  45.038  1.00  0.00     0.277 HD
ATOM     24  H32 UNL     1      14.959 -20.434  46.136  1.00  0.00     0.277 HD
ATOM     25  H31 UNL     1      15.317 -19.080  45.176  1.00  0.00     0.277 HD
ENDBRANCH  17  22
ENDBRANCH   2  17
BRANCH   1  26
HETATM   26  O1  UNL     1      18.184 -20.432  42.814  1.00  0.00    -0.349 OA
BRANCH  26  27
HETATM   27  C3  UNL     1      18.760 -20.333  44.079  1.00  0.00     0.177 C 
BRANCH  27  28
HETATM   28  C2  UNL     1      19.962 -19.408  44.018  1.00  0.00     0.054 C 
BRANCH  28  29
HETATM   29  C1  UNL     1      19.557 -17.955  44.041  1.00  0.00     0.231 C 
BRANCH  29  30
HETATM   30  N1  UNL     1      20.399 -17.222  44.962  1.00  0.00    -0.079 N 
ATOM     31  H13 UNL     1      19.993 -17.171  45.895  1.00  0.00     0.274 HD
ATOM     32  H12 UNL     1      21.247 -17.738  45.197  1.00  0.00     0.274 HD
ATOM     33  H11 UNL     1      20.606 -16.298  44.583  1.00  0.00     0.274 HD
ENDBRANCH  29  30
ENDBRANCH  28  29
ENDBRANCH  27  28
ENDBRANCH  26  27
ENDBRANCH   1  26
TORSDOF 8
ENDMDL
MODEL 5
REMARK VINA RESULT: -6.832306818      1.590      4.103
REMARK  8 active torsions:
REMARK  status: ('A' for Active; 'I' for Inactive)
REMARK    1  A    between atoms: N1_1  and  C1_5 
REMARK    2  A    between atoms: C1_5  and  C2_6 
REMARK    3  A    between atoms: C2_6  and  C3_7 
REMARK    4  A    between atoms: C3_7  and  O1_8 
REMARK    5  A    between atoms: O1_8  and  C4_9 
REMARK    6  A    between atoms: C5_10  and  C6_11 
REMARK    7  A    between atoms: C6_11  and  N2_12 
REMARK    8  A    between atoms: C6_11  and  N3_16 
ROOT
HETATM    1  C4  UNL     1      17.324 -19.200  41.590  1.00  0.00     0.103 A 
HETATM    2  C5  UNL     1      18.642 -19.335  41.935  1.00  0.00     0.101 A 
HETATM    3  C7  UNL     1      18.982 -19.754  43.201  1.00  0.00     0.259 A 
HETATM    4  O2  UNL     1      20.205 -19.889  43.548  1.00  0.00    -0.267 OA
HETATM    5  N4  UNL     1      18.089 -20.044  44.138  1.00  0.00    -0.308 N 
ATOM      6  H4  UNL     1      18.383 -20.353  45.065  1.00  0.00     0.170 HD
HETATM    7  C8  UNL     1      16.793 -19.921  43.834  1.00  0.00     0.130 A 
HETATM    8  N5  UNL     1      15.868 -20.194  44.762  1.00  0.00    -0.293 N 
ATOM      9  H5  UNL     1      16.173 -20.503  45.685  1.00  0.00     0.172 HD
HETATM   10  C9  UNL     1      14.543 -20.076  44.521  1.00  0.00     0.328 A 
HETATM   11  O3  UNL     1      13.676 -20.330  45.383  1.00  0.00    -0.247 OA
HETATM   12  N6  UNL     1      14.132 -19.669  43.304  1.00  0.00    -0.275 N 
ATOM     13  H6  UNL     1      13.137 -19.574  43.103  1.00  0.00     0.173 HD
HETATM   14  C10 UNL     1      15.043 -19.391  42.360  1.00  0.00     0.266 A 
HETATM   15  O4  UNL     1      14.618 -19.018  41.261  1.00  0.00    -0.267 OA
HETATM   16  C11 UNL     1      16.398 -19.496  42.552  1.00  0.00     0.110 A 
ENDROOT
BRANCH   2  17
HETATM   17  C6  UNL     1      19.765 -19.050  41.008  1.00  0.00     0.419 C 
BRANCH  17  18
HETATM   18  N2  UNL     1      20.628 -20.214  41.018  1.00  0.00    -0.046 N 
ATOM     19  H23 UNL     1      21.519 -20.047  41.486  1.00  0.00     0.277 HD
ATOM     20  H22 UNL     1      20.294 -20.956  41.634  1.00  0.00     0.277 HD
ATOM     21  H21 UNL     1      20.734 -20.515  40.049  1.00  0.00     0.277 HD
ENDBRANCH  17  18
BRANCH  17  22
HETATM   22  N3  UNL     1      20.569 -17.956  41.577  1.00  0.00    -0.046 N 
ATOM     23  H33 UNL     1      20.059 -17.417  42.277  1.00  0.00     0.277 HD
ATOM     24  H32 UNL     1      21.320 -18.292  42.180  1.00  0.00     0.277 HD
ATOM     25  H31 UNL     1      20.911 -17.377  40.810  1.00  0.00     0.277 HD
ENDBRANCH  17  22
ENDBRANCH   2  17
BRANCH   1  26
HETATM   26  O1  UNL     1      16.973 -18.792  40.353  1.00  0.00    -0.349 OA
BRANCH  26  27
HETATM   27  C3  UNL     1      16.784 -19.530  39.186  1.00  0.00     0.177 C 
BRANCH  27  28
HETATM   28  C2  UNL     1      16.303 -18.612  38.077  1.00  0.00     0.054 C 
BRANCH  28  29
HETATM   29  C1  UNL     1      17.277 -17.492  37.811  1.00  0.00     0.231 C 
BRANCH  29  30
HETATM   30  N1  UNL     1      16.965 -16.357  38.653  1.00  0.00    -0.079 N 
ATOM     31  H13 UNL     1      17.777 -15.758  38.805  1.00  0.00     0.274 HD
ATOM     32  H12 UNL     1      16.369 -15.680  38.177  1.00  0.00     0.274 HD
ATOM     33  H11 UNL     1      16.557 -16.678  39.531  1.00  0.00     0.274 HD
ENDBRANCH  29  30
ENDBRANCH  28  29
ENDBRANCH  27  28
ENDBRANCH  26  27
ENDBRANCH   1  26
TORSDOF 8
ENDMDL
