MODEL 1
REMARK VINA RESULT: -6.036265741      0.000      0.000
REMARK  10 active torsions:
REMARK  status: ('A' for Active; 'I' for Inactive)
REMARK    1  A    between atoms: N1_1  and  C1_5 
REMARK    2  A    between atoms: C1_5  and  C2_6 
REMARK    3  A    between atoms: C4_8  and  C5_9 
REMARK    4  A    between atoms: C5_9  and  O1_10 
REMARK    5  A    between atoms: C6_12  and  N2_13 
REMARK    6  A    between atoms: C7_17  and  O2_18 
REMARK    7  A    between atoms: O2_18  and  C8_19 
REMARK    8  A    between atoms: C9_20  and  N3_21 
REMARK    9  A    between atoms: C11_26  and  N4_27 
REMARK   10  A    between atoms: C13_32  and  N5_33 
ROOT
HETATM    1  C8  UNL     1      17.640 -18.941  42.711  1.00  0.00     0.182 C 
HETATM    2  C9  UNL     1      18.321 -19.358  41.445  1.00  0.00     0.216 C 
HETATM    3  C10 UNL     1      17.438 -19.314  40.234  1.00  0.00     0.068 C 
HETATM    4  C11 UNL     1      16.596 -18.080  40.153  1.00  0.00     0.187 C 
HETATM    5  C12 UNL     1      15.892 -17.750  41.439  1.00  0.00     0.068 C 
HETATM    6  C13 UNL     1      16.154 -18.737  42.535  1.00  0.00     0.216 C 
ENDROOT
BRANCH   1   7
HETATM    7  O2  UNL     1      17.943 -19.813  43.724  1.00  0.00    -0.374 OA
BRANCH   7   8
HETATM    8  C7  UNL     1      19.139 -20.478  43.584  1.00  0.00     0.158 C 
HETATM    9  C2  UNL     1      19.037 -21.967  43.731  1.00  0.00     0.043 C 
HETATM   10  C3  UNL     1      20.207 -22.423  44.564  1.00  0.00     0.017 C 
HETATM   11  C4  UNL     1      21.115 -21.214  44.622  1.00  0.00     0.043 C 
HETATM   12  C6  UNL     1      20.125 -20.087  44.632  1.00  0.00     0.218 C 
BRANCH   9  13
HETATM   13  C1  UNL     1      17.782 -22.395  44.470  1.00  0.00     0.236 C 
BRANCH  13  14
HETATM   14  N1  UNL     1      16.776 -22.900  43.578  1.00  0.00    -0.079 N 
ATOM     15  H13 UNL     1      16.962 -22.620  42.615  1.00  0.00     0.274 HD
ATOM     16  H12 UNL     1      16.851 -23.911  43.469  1.00  0.00     0.274 HD
ATOM     17  H11 UNL     1      15.836 -22.628  43.866  1.00  0.00     0.274 HD
ENDBRANCH  13  14
ENDBRANCH   9  13
BRANCH  11  18
HETATM   18  C5  UNL     1      21.963 -21.235  43.373  1.00  0.00     0.170 C 
BRANCH  18  19
HETATM   19  O1  UNL     1      23.188 -20.638  43.523  1.00  0.00    -0.400 OA
ATOM     20  H1  UNL     1      23.919 -21.245  43.489  1.00  0.00     0.209 HD
ENDBRANCH  18  19
ENDBRANCH  11  18
BRANCH  12  21
HETATM   21  N2  UNL     1      20.820 -18.863  44.376  1.00  0.00    -0.072 N 
ATOM     22  H23 UNL     1      21.833 -18.979  44.393  1.00  0.00     0.274 HD
ATOM     23  H22 UNL     1      20.728 -18.558  43.408  1.00  0.00     0.274 HD
ATOM     24  H21 UNL     1      20.498 -18.159  45.040  1.00  0.00     0.274 HD
ENDBRANCH  12  21
ENDBRANCH   7   8
ENDBRANCH   1   7
BRANCH   2  25
HETATM   25  N3  UNL     1      19.497 -18.574  41.179  1.00  0.00    -0.072 N 
ATOM     26  H33 UNL     1      19.254 -17.614  40.939  1.00  0.00     0.274 HD
ATOM     27  H32 UNL     1      20.025 -18.398  42.035  1.00  0.00     0.274 HD
ATOM     28  H31 UNL     1      20.086 -18.997  40.463  1.00  0.00     0.274 HD
ENDBRANCH   2  25
BRANCH   6  29
HETATM   29  N5  UNL     1      15.422 -19.963  42.400  1.00  0.00    -0.072 N 
ATOM     30  H53 UNL     1      14.788 -19.920  41.602  1.00  0.00     0.274 HD
ATOM     31  H52 UNL     1      16.035 -20.717  42.089  1.00  0.00     0.274 HD
ATOM     32  H51 UNL     1      14.921 -20.231  43.247  1.00  0.00     0.274 HD
ENDBRANCH   6  29
BRANCH   4  33
HETATM   33  N4  UNL     1      15.579 -18.298  39.138  1.00  0.00    -0.075 N 
ATOM     34  H43 UNL     1      15.971 -18.410  38.203  1.00  0.00     0.274 HD
ATOM     35  H42 UNL     1      15.139 -19.216  39.211  1.00  0.00     0.274 HD
ATOM     36  H41 UNL     1      14.908 -17.532  39.195  1.00  0.00     0.274 HD
ENDBRANCH   4  33
TORSDOF 10
ENDMDL
MODEL 2
REMARK VINA RESULT: -6.027863845      0.663      1.912
REMARK  10 active torsions:
REMARK  status: ('A' for Active; 'I' for Inactive)
REMARK    1  A    between atoms: N1_1  and  C1_5 
REMARK    2  A    between atoms: C1_5  and  C2_6 
REMARK    3  A    between atoms: C4_8  and  C5_9 
REMARK    4  A    between atoms: C5_9  and  O1_10 
REMARK    5  A    between atoms: C6_12  and  N2_13 
REMARK    6  A    between atoms: C7_17  and  O2_18 
REMARK    7  A    between atoms: O2_18  and  C8_19 
REMARK    8  A    between atoms: C9_20  and  N3_21 
REMARK    9  A    between atoms: C11_26  and  N4_27 
REMARK   10  A    between atoms: C13_32  and  N5_33 
ROOT
HETATM    1  C8  UNL     1      17.053 -20.021  42.403  1.00  0.00     0.182 C 
HETATM    2  C9  UNL     1      15.741 -19.316  42.552  1.00  0.00     0.216 C 
HETATM    3  C10 UNL     1      15.374 -18.456  41.381  1.00  0.00     0.068 C 
HETATM    4  C11 UNL     1      15.623 -19.109  40.058  1.00  0.00     0.187 C 
HETATM    5  C12 UNL     1      16.980 -19.746  39.951  1.00  0.00     0.068 C 
HETATM    6  C13 UNL     1      17.820 -19.576  41.180  1.00  0.00     0.216 C 
ENDROOT
BRANCH   1   7
HETATM    7  O2  UNL     1      17.784 -19.918  43.557  1.00  0.00    -0.374 OA
BRANCH   7   8
HETATM    8  C7  UNL     1      18.985 -20.589  43.551  1.00  0.00     0.158 C 
HETATM    9  C2  UNL     1      18.886 -22.031  43.953  1.00  0.00     0.043 C 
HETATM   10  C3  UNL     1      20.046 -22.329  44.867  1.00  0.00     0.017 C 
HETATM   11  C4  UNL     1      20.949 -21.122  44.726  1.00  0.00     0.043 C 
HETATM   12  C6  UNL     1      19.954 -20.016  44.528  1.00  0.00     0.218 C 
BRANCH   9  13
HETATM   13  C1  UNL     1      17.623 -22.332  44.737  1.00  0.00     0.236 C 
BRANCH  13  14
HETATM   14  N1  UNL     1      16.624 -22.972  43.928  1.00  0.00    -0.079 N 
ATOM     15  H13 UNL     1      15.868 -22.329  43.696  1.00  0.00     0.274 HD
ATOM     16  H12 UNL     1      16.972 -23.156  42.987  1.00  0.00     0.274 HD
ATOM     17  H11 UNL     1      16.265 -23.823  44.362  1.00  0.00     0.274 HD
ENDBRANCH  13  14
ENDBRANCH   9  13
BRANCH  11  18
HETATM   18  C5  UNL     1      21.814 -21.353  43.511  1.00  0.00     0.170 C 
BRANCH  18  19
HETATM   19  O1  UNL     1      23.003 -20.670  43.537  1.00  0.00    -0.400 OA
ATOM     20  H1  UNL     1      22.906 -19.733  43.657  1.00  0.00     0.209 HD
ENDBRANCH  18  19
ENDBRANCH  11  18
BRANCH  12  21
HETATM   21  N2  UNL     1      20.647 -18.851  44.073  1.00  0.00    -0.072 N 
ATOM     22  H23 UNL     1      21.532 -19.076  43.618  1.00  0.00     0.274 HD
ATOM     23  H22 UNL     1      20.187 -18.409  43.278  1.00  0.00     0.274 HD
ATOM     24  H21 UNL     1      20.766 -18.212  44.860  1.00  0.00     0.274 HD
ENDBRANCH  12  21
ENDBRANCH   7   8
ENDBRANCH   1   7
BRANCH   2  25
HETATM   25  N3  UNL     1      14.660 -20.231  42.802  1.00  0.00    -0.072 N 
ATOM     26  H33 UNL     1      14.681 -20.574  43.762  1.00  0.00     0.274 HD
ATOM     27  H32 UNL     1      13.763 -19.746  42.823  1.00  0.00     0.274 HD
ATOM     28  H31 UNL     1      14.647 -21.002  42.135  1.00  0.00     0.274 HD
ENDBRANCH   2  25
BRANCH   6  29
HETATM   29  N5  UNL     1      18.397 -18.269  41.314  1.00  0.00    -0.072 N 
ATOM     30  H53 UNL     1      19.379 -18.334  41.582  1.00  0.00     0.274 HD
ATOM     31  H52 UNL     1      18.499 -17.825  40.402  1.00  0.00     0.274 HD
ATOM     32  H51 UNL     1      17.885 -17.665  41.956  1.00  0.00     0.274 HD
ENDBRANCH   6  29
BRANCH   4  33
HETATM   33  N4  UNL     1      15.535 -18.085  39.030  1.00  0.00    -0.075 N 
ATOM     34  H43 UNL     1      16.412 -17.954  38.527  1.00  0.00     0.274 HD
ATOM     35  H42 UNL     1      14.963 -18.372  38.235  1.00  0.00     0.274 HD
ATOM     36  H41 UNL     1      15.199 -17.228  39.469  1.00  0.00     0.274 HD
ENDBRANCH   4  33
TORSDOF 10
ENDMDL
MODEL 3
REMARK VINA RESULT: -5.879375325      2.272      5.772
REMARK  10 active torsions:
REMARK  status: ('A' for Active; 'I' for Inactive)
REMARK    1  A    between atoms: N1_1  and  C1_5 
REMARK    2  A    between atoms: C1_5  and  C2_6 
REMARK    3  A    between atoms: C4_8  and  C5_9 
REMARK    4  A    between atoms: C5_9  and  O1_10 
REMARK    5  A    between atoms: C6_12  and  N2_13 
REMARK    6  A    between atoms: C7_17  and  O2_18 
REMARK    7  A    between atoms: O2_18  and  C8_19 
REMARK    8  A    between atoms: C9_20  and  N3_21 
REMARK    9  A    between atoms: C11_26  and  N4_27 
REMARK   10  A    between atoms: C13_32  and  N5_33 
ROOT
HETATM    1  C8  UNL     1      17.204 -21.287  43.780  1.00  0.00     0.182 C 
HETATM    2  C9  UNL     1      18.157 -21.768  44.829  1.00  0.00     0.216 C 
HETATM    3  C10 UNL     1      17.491 -22.347  46.040  1.00  0.00     0.068 C 
HETATM    4  C11 UNL     1      16.353 -23.263  45.716  1.00  0.00     0.187 C 
HETATM    5  C12 UNL     1      15.399 -22.697  44.702  1.00  0.00     0.068 C 
HETATM    6  C13 UNL     1      15.766 -21.319  44.240  1.00  0.00     0.216 C 
ENDROOT
BRANCH   1   7
HETATM    7  O2  UNL     1      17.588 -20.056  43.316  1.00  0.00    -0.374 OA
BRANCH   7   8
HETATM    8  C7  UNL     1      17.151 -19.748  42.048  1.00  0.00     0.158 C 
HETATM    9  C2  UNL     1      18.225 -19.788  41.001  1.00  0.00     0.043 C 
HETATM   10  C3  UNL     1      18.032 -18.590  40.106  1.00  0.00     0.017 C 
HETATM   11  C4  UNL     1      16.667 -18.058  40.488  1.00  0.00     0.043 C 
HETATM   12  C6  UNL     1      16.621 -18.358  41.958  1.00  0.00     0.218 C 
BRANCH   9  13
HETATM   13  C1  UNL     1      19.618 -19.672  41.590  1.00  0.00     0.236 C 
BRANCH  13  14
HETATM   14  N1  UNL     1      19.984 -18.308  41.848  1.00  0.00    -0.079 N 
ATOM     15  H13 UNL     1      20.282 -17.837  40.994  1.00  0.00     0.274 HD
ATOM     16  H12 UNL     1      19.165 -17.740  42.067  1.00  0.00     0.274 HD
ATOM     17  H11 UNL     1      20.692 -18.231  42.578  1.00  0.00     0.274 HD
ENDBRANCH  13  14
ENDBRANCH   9  13
BRANCH  11  18
HETATM   18  C5  UNL     1      15.647 -18.844  39.700  1.00  0.00     0.170 C 
BRANCH  18  19
HETATM   19  O1  UNL     1      14.378 -18.329  39.766  1.00  0.00    -0.400 OA
ATOM     20  H1  UNL     1      14.060 -18.201  40.652  1.00  0.00     0.209 HD
ENDBRANCH  18  19
ENDBRANCH  11  18
BRANCH  12  21
HETATM   21  N2  UNL     1      15.277 -18.196  42.417  1.00  0.00    -0.072 N 
ATOM     22  H23 UNL     1      15.067 -17.233  42.678  1.00  0.00     0.274 HD
ATOM     23  H22 UNL     1      14.594 -18.293  41.666  1.00  0.00     0.274 HD
ATOM     24  H21 UNL     1      15.111 -18.851  43.182  1.00  0.00     0.274 HD
ENDBRANCH  12  21
ENDBRANCH   7   8
ENDBRANCH   1   7
BRANCH   2  25
HETATM   25  N3  UNL     1      19.086 -22.737  44.313  1.00  0.00    -0.072 N 
ATOM     26  H33 UNL     1      19.680 -22.331  43.590  1.00  0.00     0.274 HD
ATOM     27  H32 UNL     1      19.803 -22.965  45.001  1.00  0.00     0.274 HD
ATOM     28  H31 UNL     1      18.617 -23.577  43.976  1.00  0.00     0.274 HD
ENDBRANCH   2  25
BRANCH   6  29
HETATM   29  N5  UNL     1      15.444 -20.286  45.181  1.00  0.00    -0.072 N 
ATOM     30  H53 UNL     1      15.399 -20.661  46.129  1.00  0.00     0.274 HD
ATOM     31  H52 UNL     1      16.228 -19.642  45.292  1.00  0.00     0.274 HD
ATOM     32  H51 UNL     1      14.590 -19.780  44.951  1.00  0.00     0.274 HD
ENDBRANCH   6  29
BRANCH   4  33
HETATM   33  N4  UNL     1      15.606 -23.499  46.940  1.00  0.00    -0.075 N 
ATOM     34  H43 UNL     1      14.960 -22.740  47.161  1.00  0.00     0.274 HD
ATOM     35  H42 UNL     1      14.914 -24.242  46.843  1.00  0.00     0.274 HD
ATOM     36  H41 UNL     1      16.276 -23.677  47.688  1.00  0.00     0.274 HD
ENDBRANCH   4  33
TORSDOF 10
ENDMDL
MODEL 4
REMARK VINA RESULT: -5.873667035      2.099      6.117
REMARK  10 active torsions:
REMARK  status: ('A' for Active; 'I' for Inactive)
REMARK    1  A    between atoms: N1_1  and  C1_5 
REMARK    2  A    between atoms: C1_5  and  C2_6 
REMARK    3  A    between atoms: C4_8  and  C5_9 
REMARK    4  A    between atoms: C5_9  and  O1_10 
REMARK    5  A    between atoms: C6_12  and  N2_13 
REMARK    6  A    between atoms: C7_17  and  O2_18 
REMARK    7  A    between atoms: O2_18  and  C8_19 
REMARK    8  A    between atoms: C9_20  and  N3_21 
REMARK    9  A    between atoms: C11_26  and  N4_27 
REMARK   10  A    between atoms: C13_32  and  N5_33 
ROOT
HETATM    1  C8  UNL     1      18.529 -19.354  42.449  1.00  0.00     0.182 C 
HETATM    2  C9  UNL     1      19.005 -20.773  42.457  1.00  0.00     0.216 C 
HETATM    3  C10 UNL     1      20.428 -20.938  42.898  1.00  0.00     0.068 C 
HETATM    4  C11 UNL     1      20.779 -20.120  44.101  1.00  0.00     0.187 C 
HETATM    5  C12 UNL     1      20.327 -18.690  44.005  1.00  0.00     0.068 C 
HETATM    6  C13 UNL     1      19.639 -18.365  42.714  1.00  0.00     0.216 C 
ENDROOT
BRANCH   1   7
HETATM    7  O2  UNL     1      17.842 -19.088  41.294  1.00  0.00    -0.374 OA
BRANCH   7   8
HETATM    8  C7  UNL     1      16.479 -19.259  41.373  1.00  0.00     0.158 C 
HETATM    9  C2  UNL     1      15.802 -19.428  40.044  1.00  0.00     0.043 C 
HETATM   10  C3  UNL     1      14.537 -18.610  40.072  1.00  0.00     0.017 C 
HETATM   11  C4  UNL     1      14.372 -18.230  41.528  1.00  0.00     0.043 C 
HETATM   12  C6  UNL     1      15.798 -18.074  41.968  1.00  0.00     0.218 C 
BRANCH   9  13
HETATM   13  C1  UNL     1      16.638 -18.901  38.893  1.00  0.00     0.236 C 
BRANCH  13  14
HETATM   14  N1  UNL     1      15.987 -17.825  38.202  1.00  0.00    -0.079 N 
ATOM     15  H13 UNL     1      16.646 -17.082  37.969  1.00  0.00     0.274 HD
ATOM     16  H12 UNL     1      15.717 -18.101  37.257  1.00  0.00     0.274 HD
ATOM     17  H11 UNL     1      15.189 -17.461  38.723  1.00  0.00     0.274 HD
ENDBRANCH  13  14
ENDBRANCH   9  13
BRANCH  11  18
HETATM   18  C5  UNL     1      13.673 -19.381  42.211  1.00  0.00     0.170 C 
BRANCH  18  19
HETATM   19  O1  UNL     1      12.496 -19.751  41.612  1.00  0.00    -0.400 OA
ATOM     20  H1  UNL     1      12.458 -19.553  40.684  1.00  0.00     0.209 HD
ENDBRANCH  18  19
ENDBRANCH  11  18
BRANCH  12  21
HETATM   21  N2  UNL     1      15.834 -18.015  43.396  1.00  0.00    -0.072 N 
ATOM     22  H23 UNL     1      15.147 -18.632  43.829  1.00  0.00     0.274 HD
ATOM     23  H22 UNL     1      16.674 -18.444  43.783  1.00  0.00     0.274 HD
ATOM     24  H21 UNL     1      15.722 -17.044  43.687  1.00  0.00     0.274 HD
ENDBRANCH  12  21
ENDBRANCH   7   8
ENDBRANCH   1   7
BRANCH   2  25
HETATM   25  N3  UNL     1      18.175 -21.618  43.272  1.00  0.00    -0.072 N 
ATOM     26  H33 UNL     1      18.453 -21.575  44.252  1.00  0.00     0.274 HD
ATOM     27  H32 UNL     1      17.231 -21.240  43.355  1.00  0.00     0.274 HD
ATOM     28  H31 UNL     1      18.159 -22.581  42.935  1.00  0.00     0.274 HD
ENDBRANCH   2  25
BRANCH   6  29
HETATM   29  N5  UNL     1      20.533 -18.201  41.604  1.00  0.00    -0.072 N 
ATOM     30  H53 UNL     1      20.555 -19.044  41.030  1.00  0.00     0.274 HD
ATOM     31  H52 UNL     1      20.150 -17.544  40.926  1.00  0.00     0.274 HD
ATOM     32  H51 UNL     1      21.476 -17.927  41.881  1.00  0.00     0.274 HD
ENDBRANCH   6  29
BRANCH   4  33
HETATM   33  N4  UNL     1      22.227 -20.116  44.232  1.00  0.00    -0.075 N 
ATOM     34  H43 UNL     1      22.621 -19.175  44.231  1.00  0.00     0.274 HD
ATOM     35  H42 UNL     1      22.539 -20.394  45.162  1.00  0.00     0.274 HD
ATOM     36  H41 UNL     1      22.611 -20.705  43.494  1.00  0.00     0.274 HD
ENDBRANCH   4  33
TORSDOF 10
ENDMDL
MODEL 5
REMARK VINA RESULT: -5.747603754      2.429      5.912
REMARK  10 active torsions:
REMARK  status: ('A' for Active; 'I' for Inactive)
REMARK    1  A    between atoms: N1_1  and  C1_5 
REMARK    2  A    between atoms: C1_5  and  C2_6 
REMARK    3  A    between atoms: C4_8  and  C5_9 
REMARK    4  A    between atoms: C5_9  and  O1_10 
REMARK    5  A    between atoms: C6_12  and  N2_13 
REMARK    6  A    between atoms: C7_17  and  O2_18 
REMARK    7  A    between atoms: O2_18  and  C8_19 
REMARK    8  A    between atoms: C9_20  and  N3_21 
REMARK    9  A    between atoms: C11_26  and  N4_27 
REMARK   10  A    between atoms: C13_32  and  N5_33 
ROOT
HETATM    1  C8  UNL     1      16.961 -20.277  44.378  1.00  0.00     0.182 C 
HETATM    2  C9  UNL     1      15.599 -20.785  44.023  1.00  0.00     0.216 C 
HETATM    3  C10 UNL     1      15.397 -22.243  44.309  1.00  0.00     0.068 C 
HETATM    4  C11 UNL     1      15.934 -22.671  45.639  1.00  0.00     0.187 C 
HETATM    5  C12 UNL     1      17.327 -22.179  45.909  1.00  0.00     0.068 C 
HETATM    6  C13 UNL     1      17.909 -21.381  44.782  1.00  0.00     0.216 C 
ENDROOT
BRANCH   1   7
HETATM    7  O2  UNL     1      17.454 -19.492  43.370  1.00  0.00    -0.374 OA
BRANCH   7   8
HETATM    8  C7  UNL     1      16.724 -19.512  42.203  1.00  0.00     0.158 C 
HETATM    9  C2  UNL     1      17.488 -19.999  41.007  1.00  0.00     0.043 C 
HETATM   10  C3  UNL     1      17.140 -19.101  39.849  1.00  0.00     0.017 C 
HETATM   11  C4  UNL     1      15.952 -18.302  40.343  1.00  0.00     0.043 C 
HETATM   12  C6  UNL     1      16.269 -18.151  41.801  1.00  0.00     0.218 C 
BRANCH   9  13
HETATM   13  C1  UNL     1      18.990 -19.904  41.198  1.00  0.00     0.236 C 
BRANCH  13  14
HETATM   14  N1  UNL     1      19.459 -18.548  41.128  1.00  0.00    -0.079 N 
ATOM     15  H13 UNL     1      20.054 -18.321  41.924  1.00  0.00     0.274 HD
ATOM     16  H12 UNL     1      20.140 -18.430  40.378  1.00  0.00     0.274 HD
ATOM     17  H11 UNL     1      18.692 -17.881  41.038  1.00  0.00     0.274 HD
ENDBRANCH  13  14
ENDBRANCH   9  13
BRANCH  11  18
HETATM   18  C5  UNL     1      14.721 -19.140  40.097  1.00  0.00     0.170 C 
BRANCH  18  19
HETATM   19  O1  UNL     1      13.543 -18.465  40.291  1.00  0.00    -0.400 OA
ATOM     20  H1  UNL     1      12.767 -18.996  40.151  1.00  0.00     0.209 HD
ENDBRANCH  18  19
ENDBRANCH  11  18
BRANCH  12  21
HETATM   21  N2  UNL     1      15.100 -17.683  42.479  1.00  0.00    -0.072 N 
ATOM     22  H23 UNL     1      15.323 -17.150  43.319  1.00  0.00     0.274 HD
ATOM     23  H22 UNL     1      14.621 -16.944  41.965  1.00  0.00     0.274 HD
ATOM     24  H21 UNL     1      14.493 -18.480  42.673  1.00  0.00     0.274 HD
ENDBRANCH  12  21
ENDBRANCH   7   8
ENDBRANCH   1   7
BRANCH   2  25
HETATM   25  N3  UNL     1      14.556 -20.045  44.680  1.00  0.00    -0.072 N 
ATOM     26  H33 UNL     1      14.278 -20.493  45.553  1.00  0.00     0.274 HD
ATOM     27  H32 UNL     1      14.908 -19.164  45.056  1.00  0.00     0.274 HD
ATOM     28  H31 UNL     1      13.752 -19.891  44.072  1.00  0.00     0.274 HD
ENDBRANCH   2  25
BRANCH   6  29
HETATM   29  N5  UNL     1      18.360 -22.177  43.677  1.00  0.00    -0.072 N 
ATOM     30  H53 UNL     1      17.643 -22.230  42.953  1.00  0.00     0.274 HD
ATOM     31  H52 UNL     1      19.090 -21.693  43.157  1.00  0.00     0.274 HD
ATOM     32  H51 UNL     1      18.667 -23.110  43.950  1.00  0.00     0.274 HD
ENDBRANCH   6  29
BRANCH   4  33
HETATM   33  N4  UNL     1      15.968 -24.124  45.660  1.00  0.00    -0.075 N 
ATOM     34  H43 UNL     1      16.906 -24.499  45.520  1.00  0.00     0.274 HD
ATOM     35  H42 UNL     1      15.805 -24.509  46.590  1.00  0.00     0.274 HD
ATOM     36  H41 UNL     1      15.300 -24.464  44.969  1.00  0.00     0.274 HD
ENDBRANCH   4  33
TORSDOF 10
ENDMDL
