MODEL 1
REMARK VINA RESULT: -7.732147181      0.000      0.000
REMARK  8 active torsions:
REMARK  status: ('A' for Active; 'I' for Inactive)
REMARK    1  A    between atoms: N1_1  and  C1_5 
REMARK    2  A    between atoms: C1_5  and  C2_6 
REMARK    3  A    between atoms: C2_6  and  C3_7 
REMARK    4  A    between atoms: C4_10  and  N3_11 
REMARK    5  A    between atoms: C6_16  and  N4_17 
REMARK    6  A    between atoms: C8_22  and  O1_23 
REMARK    7  A    between atoms: O1_23  and  C9_24 
REMARK    8  A    between atoms: C11_29  and  N8_30 
ROOT
HETATM    1  C3  UNL     1      20.759 -32.114  18.752  1.00  0.00     0.111 C 
HETATM    2  N2  UNL     1      20.903 -30.785  19.234  1.00  0.00    -0.389 N 
ATOM      3  H2  UNL     1      21.697 -30.491  19.804  1.00  0.00     0.155 HD
HETATM    4  C4  UNL     1      19.849 -29.888  18.859  1.00  0.00     0.280 C 
HETATM    5  C5  UNL     1      18.497 -30.308  19.308  1.00  0.00     0.081 C 
HETATM    6  C6  UNL     1      18.518 -31.778  19.660  1.00  0.00     0.118 C 
HETATM    7  C8  UNL     1      19.336 -32.587  18.656  1.00  0.00     0.169 C 
ENDROOT
BRANCH   7   8
HETATM    8  O1  UNL     1      19.271 -33.905  19.051  1.00  0.00    -0.355 OA
BRANCH   8   9
HETATM    9  C9  UNL     1      18.557 -34.734  18.252  1.00  0.00     0.256 C 
HETATM   10  N7  UNL     1      17.763 -34.177  17.203  1.00  0.00    -0.330 N 
HETATM   11  C10 UNL     1      18.007 -35.354  16.456  1.00  0.00     0.246 C 
ATOM     12  H7  UNL     1      17.245 -33.310  17.056  1.00  0.00     0.165 HD
HETATM   13  O2  UNL     1      17.380 -35.963  15.572  1.00  0.00    -0.271 OA
HETATM   14  C11 UNL     1      19.282 -35.497  17.189  1.00  0.00     0.225 C 
BRANCH  14  15
HETATM   15  N8  UNL     1      19.660 -36.847  17.534  1.00  0.00    -0.350 N 
HETATM   16  C12 UNL     1      20.570 -37.414  16.817  1.00  0.00     0.197 C 
HETATM   17  N9  UNL     1      21.200 -36.766  15.720  1.00  0.00    -0.067 NA
HETATM   18  N10 UNL     1      20.970 -38.742  17.124  1.00  0.00    -0.067 NA
ATOM     19  H8  UNL     1      19.223 -37.334  18.316  1.00  0.00     0.162 HD
ENDBRANCH  14  15
ENDBRANCH   8   9
ENDBRANCH   7   8
BRANCH   1  20
HETATM   20  C2  UNL     1      21.457 -32.240  17.419  1.00  0.00     0.054 C 
BRANCH  20  21
HETATM   21  C1  UNL     1      20.497 -32.174  16.264  1.00  0.00     0.231 C 
BRANCH  21  22
HETATM   22  N1  UNL     1      20.459 -30.927  15.590  1.00  0.00    -0.079 N 
ATOM     23  H13 UNL     1      20.096 -30.203  16.210  1.00  0.00     0.274 HD
ATOM     24  H12 UNL     1      21.406 -30.577  15.444  1.00  0.00     0.274 HD
ATOM     25  H11 UNL     1      19.945 -30.930  14.710  1.00  0.00     0.274 HD
ENDBRANCH  21  22
ENDBRANCH  20  21
ENDBRANCH   1  20
BRANCH   6  26
HETATM   26  N4  UNL     1      19.037 -32.012  20.985  1.00  0.00    -0.360 N 
HETATM   27  C7  UNL     1      18.436 -32.623  21.910  1.00  0.00     0.197 C 
HETATM   28  N5  UNL     1      17.139 -33.149  21.698  1.00  0.00    -0.067 NA
HETATM   29  N6  UNL     1      19.048 -32.792  23.175  1.00  0.00    -0.067 NA
ATOM     30  H4  UNL     1      19.970 -31.652  21.191  1.00  0.00     0.162 HD
ENDBRANCH   6  26
BRANCH   4  31
HETATM   31  N3  UNL     1      20.125 -28.557  19.328  1.00  0.00    -0.059 N 
ATOM     32  H33 UNL     1      19.715 -28.387  20.247  1.00  0.00     0.276 HD
ATOM     33  H32 UNL     1      21.107 -28.438  19.575  1.00  0.00     0.276 HD
ATOM     34  H31 UNL     1      19.820 -27.864  18.645  1.00  0.00     0.276 HD
ENDBRANCH   4  31
TORSDOF 8
ENDMDL
MODEL 2
REMARK VINA RESULT: -7.175852842      2.809      5.581
REMARK  8 active torsions:
REMARK  status: ('A' for Active; 'I' for Inactive)
REMARK    1  A    between atoms: N1_1  and  C1_5 
REMARK    2  A    between atoms: C1_5  and  C2_6 
REMARK    3  A    between atoms: C2_6  and  C3_7 
REMARK    4  A    between atoms: C4_10  and  N3_11 
REMARK    5  A    between atoms: C6_16  and  N4_17 
REMARK    6  A    between atoms: C8_22  and  O1_23 
REMARK    7  A    between atoms: O1_23  and  C9_24 
REMARK    8  A    between atoms: C11_29  and  N8_30 
ROOT
HETATM    1  C3  UNL     1      18.743 -33.880  17.027  1.00  0.00     0.111 C 
HETATM    2  N2  UNL     1      17.906 -32.940  17.686  1.00  0.00    -0.389 N 
ATOM      3  H2  UNL     1      17.071 -32.548  17.249  1.00  0.00     0.155 HD
HETATM    4  C4  UNL     1      18.322 -32.584  19.011  1.00  0.00     0.280 C 
HETATM    5  C5  UNL     1      19.684 -31.996  19.090  1.00  0.00     0.081 C 
HETATM    6  C6  UNL     1      20.447 -32.326  17.827  1.00  0.00     0.118 C 
HETATM    7  C8  UNL     1      20.199 -33.764  17.377  1.00  0.00     0.169 C 
ENDROOT
BRANCH   7   8
HETATM    8  O1  UNL     1      20.954 -33.968  16.243  1.00  0.00    -0.355 OA
BRANCH   8   9
HETATM    9  C9  UNL     1      22.298 -33.902  16.399  1.00  0.00     0.256 C 
HETATM   10  N7  UNL     1      23.044 -35.113  16.535  1.00  0.00    -0.330 N 
HETATM   11  C10 UNL     1      24.126 -34.465  15.895  1.00  0.00     0.246 C 
ATOM     12  H7  UNL     1      22.871 -36.041  16.925  1.00  0.00     0.165 HD
HETATM   13  O2  UNL     1      25.362 -34.597  15.939  1.00  0.00    -0.271 OA
HETATM   14  C11 UNL     1      23.141 -33.614  15.197  1.00  0.00     0.225 C 
BRANCH  14  15
HETATM   15  N8  UNL     1      23.521 -32.233  15.015  1.00  0.00    -0.350 N 
HETATM   16  C12 UNL     1      23.513 -31.764  13.814  1.00  0.00     0.197 C 
HETATM   17  N9  UNL     1      23.148 -32.547  12.685  1.00  0.00    -0.067 NA
HETATM   18  N10 UNL     1      23.880 -30.410  13.593  1.00  0.00    -0.067 NA
ATOM     19  H8  UNL     1      23.787 -31.650  15.808  1.00  0.00     0.162 HD
ENDBRANCH  14  15
ENDBRANCH   8   9
ENDBRANCH   7   8
BRANCH   1  20
HETATM   20  C2  UNL     1      18.236 -35.277  17.298  1.00  0.00     0.054 C 
BRANCH  20  21
HETATM   21  C1  UNL     1      19.048 -35.984  18.347  1.00  0.00     0.231 C 
BRANCH  21  22
HETATM   22  N1  UNL     1      18.327 -36.355  19.510  1.00  0.00    -0.079 N 
ATOM     23  H13 UNL     1      17.802 -35.558  19.868  1.00  0.00     0.274 HD
ATOM     24  H12 UNL     1      17.557 -36.978  19.264  1.00  0.00     0.274 HD
ATOM     25  H11 UNL     1      18.892 -36.769  20.252  1.00  0.00     0.274 HD
ENDBRANCH  21  22
ENDBRANCH  20  21
ENDBRANCH   1  20
BRANCH   6  26
HETATM   26  N4  UNL     1      20.118 -31.433  16.744  1.00  0.00    -0.360 N 
HETATM   27  C7  UNL     1      20.836 -30.478  16.338  1.00  0.00     0.197 C 
HETATM   28  N5  UNL     1      22.082 -30.207  16.950  1.00  0.00    -0.067 NA
HETATM   29  N6  UNL     1      20.407 -29.665  15.262  1.00  0.00    -0.067 NA
ATOM     30  H4  UNL     1      19.228 -31.585  16.268  1.00  0.00     0.162 HD
ENDBRANCH   6  26
BRANCH   4  31
HETATM   31  N3  UNL     1      17.373 -31.691  19.619  1.00  0.00    -0.059 N 
ATOM     32  H33 UNL     1      16.704 -31.330  18.938  1.00  0.00     0.276 HD
ATOM     33  H32 UNL     1      16.720 -32.188  20.224  1.00  0.00     0.276 HD
ATOM     34  H31 UNL     1      17.851 -30.940  20.115  1.00  0.00     0.276 HD
ENDBRANCH   4  31
TORSDOF 8
ENDMDL
MODEL 3
REMARK VINA RESULT: -7.173819137      2.300      4.596
REMARK  8 active torsions:
REMARK  status: ('A' for Active; 'I' for Inactive)
REMARK    1  A    between atoms: N1_1  and  C1_5 
REMARK    2  A    between atoms: C1_5  and  C2_6 
REMARK    3  A    between atoms: C2_6  and  C3_7 
REMARK    4  A    between atoms: C4_10  and  N3_11 
REMARK    5  A    between atoms: C6_16  and  N4_17 
REMARK    6  A    between atoms: C8_22  and  O1_23 
REMARK    7  A    between atoms: O1_23  and  C9_24 
REMARK    8  A    between atoms: C11_29  and  N8_30 
ROOT
HETATM    1  C3  UNL     1      18.770 -33.560  17.324  1.00  0.00     0.111 C 
HETATM    2  N2  UNL     1      18.224 -32.654  18.273  1.00  0.00    -0.389 N 
ATOM      3  H2  UNL     1      17.351 -32.152  18.112  1.00  0.00     0.155 HD
HETATM    4  C4  UNL     1      18.992 -32.501  19.474  1.00  0.00     0.280 C 
HETATM    5  C5  UNL     1      20.383 -32.026  19.257  1.00  0.00     0.081 C 
HETATM    6  C6  UNL     1      20.769 -32.245  17.811  1.00  0.00     0.118 C 
HETATM    7  C8  UNL     1      20.272 -33.593  17.294  1.00  0.00     0.169 C 
ENDROOT
BRANCH   7   8
HETATM    8  O1  UNL     1      20.695 -33.704  15.987  1.00  0.00    -0.355 OA
BRANCH   8   9
HETATM    9  C9  UNL     1      21.841 -34.397  15.785  1.00  0.00     0.256 C 
HETATM   10  N7  UNL     1      23.093 -33.770  16.069  1.00  0.00    -0.330 N 
HETATM   11  C10 UNL     1      23.601 -35.046  16.412  1.00  0.00     0.246 C 
ATOM     12  H7  UNL     1      23.461 -32.819  16.038  1.00  0.00     0.165 HD
HETATM   13  O2  UNL     1      24.733 -35.561  16.387  1.00  0.00    -0.271 OA
HETATM   14  C11 UNL     1      22.228 -35.439  16.787  1.00  0.00     0.225 C 
BRANCH  14  15
HETATM   15  N8  UNL     1      21.851 -36.793  16.458  1.00  0.00    -0.350 N 
HETATM   16  C12 UNL     1      21.263 -37.489  17.371  1.00  0.00     0.197 C 
HETATM   17  N9  UNL     1      20.980 -36.974  18.666  1.00  0.00    -0.067 NA
HETATM   18  N10 UNL     1      20.876 -38.825  17.088  1.00  0.00    -0.067 NA
ATOM     19  H8  UNL     1      22.043 -37.186  15.537  1.00  0.00     0.162 HD
ENDBRANCH  14  15
ENDBRANCH   8   9
ENDBRANCH   7   8
BRANCH   1  20
HETATM   20  C2  UNL     1      18.209 -34.940  17.570  1.00  0.00     0.054 C 
BRANCH  20  21
HETATM   21  C1  UNL     1      17.093 -35.279  16.620  1.00  0.00     0.231 C 
BRANCH  21  22
HETATM   22  N1  UNL     1      17.417 -36.256  15.645  1.00  0.00    -0.079 N 
ATOM     23  H13 UNL     1      16.958 -37.139  15.865  1.00  0.00     0.274 HD
ATOM     24  H12 UNL     1      16.960 -36.035  14.760  1.00  0.00     0.274 HD
ATOM     25  H11 UNL     1      18.416 -36.402  15.499  1.00  0.00     0.274 HD
ENDBRANCH  21  22
ENDBRANCH  20  21
ENDBRANCH   1  20
BRANCH   6  26
HETATM   26  N4  UNL     1      20.271 -31.200  16.952  1.00  0.00    -0.360 N 
HETATM   27  C7  UNL     1      20.970 -30.502  16.167  1.00  0.00     0.197 C 
HETATM   28  N5  UNL     1      22.366 -30.711  16.072  1.00  0.00    -0.067 NA
HETATM   29  N6  UNL     1      20.368 -29.501  15.369  1.00  0.00    -0.067 NA
ATOM     30  H4  UNL     1      19.269 -31.008  16.982  1.00  0.00     0.162 HD
ENDBRANCH   6  26
BRANCH   4  31
HETATM   31  N3  UNL     1      18.320 -31.628  20.398  1.00  0.00    -0.059 N 
ATOM     32  H33 UNL     1      18.914 -30.849  20.683  1.00  0.00     0.276 HD
ATOM     33  H32 UNL     1      17.578 -31.096  19.945  1.00  0.00     0.276 HD
ATOM     34  H31 UNL     1      17.973 -32.152  21.201  1.00  0.00     0.276 HD
ENDBRANCH   4  31
TORSDOF 8
ENDMDL
MODEL 4
REMARK VINA RESULT: -7.014966336      2.180      5.222
REMARK  8 active torsions:
REMARK  status: ('A' for Active; 'I' for Inactive)
REMARK    1  A    between atoms: N1_1  and  C1_5 
REMARK    2  A    between atoms: C1_5  and  C2_6 
REMARK    3  A    between atoms: C2_6  and  C3_7 
REMARK    4  A    between atoms: C4_10  and  N3_11 
REMARK    5  A    between atoms: C6_16  and  N4_17 
REMARK    6  A    between atoms: C8_22  and  O1_23 
REMARK    7  A    between atoms: O1_23  and  C9_24 
REMARK    8  A    between atoms: C11_29  and  N8_30 
ROOT
HETATM    1  C3  UNL     1      18.114 -33.895  18.466  1.00  0.00     0.111 C 
HETATM    2  N2  UNL     1      18.697 -35.115  18.904  1.00  0.00    -0.389 N 
ATOM      3  H2  UNL     1      18.138 -35.913  19.207  1.00  0.00     0.155 HD
HETATM    4  C4  UNL     1      20.130 -35.140  18.888  1.00  0.00     0.280 C 
HETATM    5  C5  UNL     1      20.772 -34.094  19.725  1.00  0.00     0.081 C 
HETATM    6  C6  UNL     1      19.767 -33.006  20.027  1.00  0.00     0.118 C 
HETATM    7  C8  UNL     1      18.915 -32.670  18.805  1.00  0.00     0.169 C 
ENDROOT
BRANCH   7   8
HETATM    8  O1  UNL     1      18.057 -31.658  19.177  1.00  0.00    -0.355 OA
BRANCH   8   9
HETATM    9  C9  UNL     1      18.495 -30.394  18.963  1.00  0.00     0.256 C 
HETATM   10  N7  UNL     1      18.839 -29.577  20.084  1.00  0.00    -0.330 N 
HETATM   11  C10 UNL     1      19.805 -28.944  19.267  1.00  0.00     0.246 C 
ATOM     12  H7  UNL     1      18.525 -29.489  21.051  1.00  0.00     0.165 HD
HETATM   13  O2  UNL     1      20.318 -27.811  19.254  1.00  0.00    -0.271 OA
HETATM   14  C11 UNL     1      19.901 -30.197  18.491  1.00  0.00     0.225 C 
BRANCH  14  15
HETATM   15  N8  UNL     1      20.066 -30.042  17.065  1.00  0.00    -0.350 N 
HETATM   16  C12 UNL     1      21.033 -30.683  16.502  1.00  0.00     0.197 C 
HETATM   17  N9  UNL     1      21.924 -31.521  17.227  1.00  0.00    -0.067 NA
HETATM   18  N10 UNL     1      21.230 -30.557  15.102  1.00  0.00    -0.067 NA
ATOM     19  H8  UNL     1      19.441 -29.446  16.523  1.00  0.00     0.162 HD
ENDBRANCH  14  15
ENDBRANCH   8   9
ENDBRANCH   7   8
BRANCH   1  20
HETATM   20  C2  UNL     1      17.853 -33.971  16.980  1.00  0.00     0.054 C 
BRANCH  20  21
HETATM   21  C1  UNL     1      16.906 -35.083  16.624  1.00  0.00     0.231 C 
BRANCH  21  22
HETATM   22  N1  UNL     1      17.472 -36.120  15.841  1.00  0.00    -0.079 N 
ATOM     23  H13 UNL     1      18.012 -35.726  15.071  1.00  0.00     0.274 HD
ATOM     24  H12 UNL     1      18.217 -36.587  16.358  1.00  0.00     0.274 HD
ATOM     25  H11 UNL     1      16.803 -36.805  15.489  1.00  0.00     0.274 HD
ENDBRANCH  21  22
ENDBRANCH  20  21
ENDBRANCH   1  20
BRANCH   6  26
HETATM   26  N4  UNL     1      18.899 -33.357  21.122  1.00  0.00    -0.360 N 
HETATM   27  C7  UNL     1      18.807 -32.733  22.215  1.00  0.00     0.197 C 
HETATM   28  N5  UNL     1      19.594 -31.580  22.450  1.00  0.00    -0.067 NA
HETATM   29  N6  UNL     1      17.916 -33.173  23.221  1.00  0.00    -0.067 NA
ATOM     30  H4  UNL     1      18.309 -34.182  21.005  1.00  0.00     0.162 HD
ENDBRANCH   6  26
BRANCH   4  31
HETATM   31  N3  UNL     1      20.619 -36.437  19.273  1.00  0.00    -0.059 N 
ATOM     32  H33 UNL     1      19.917 -37.162  19.133  1.00  0.00     0.276 HD
ATOM     33  H32 UNL     1      21.326 -36.782  18.624  1.00  0.00     0.276 HD
ATOM     34  H31 UNL     1      20.963 -36.422  20.233  1.00  0.00     0.276 HD
ENDBRANCH   4  31
TORSDOF 8
ENDMDL
MODEL 5
REMARK VINA RESULT: -7.002620522      2.763      4.913
REMARK  8 active torsions:
REMARK  status: ('A' for Active; 'I' for Inactive)
REMARK    1  A    between atoms: N1_1  and  C1_5 
REMARK    2  A    between atoms: C1_5  and  C2_6 
REMARK    3  A    between atoms: C2_6  and  C3_7 
REMARK    4  A    between atoms: C4_10  and  N3_11 
REMARK    5  A    between atoms: C6_16  and  N4_17 
REMARK    6  A    between atoms: C8_22  and  O1_23 
REMARK    7  A    between atoms: O1_23  and  C9_24 
REMARK    8  A    between atoms: C11_29  and  N8_30 
ROOT
HETATM    1  C3  UNL     1      18.678 -33.604  17.291  1.00  0.00     0.111 C 
HETATM    2  N2  UNL     1      18.057 -32.609  18.093  1.00  0.00    -0.389 N 
ATOM      3  H2  UNL     1      17.211 -32.118  17.801  1.00  0.00     0.155 HD
HETATM    4  C4  UNL     1      18.708 -32.346  19.343  1.00  0.00     0.280 C 
HETATM    5  C5  UNL     1      20.120 -31.903  19.218  1.00  0.00     0.081 C 
HETATM    6  C6  UNL     1      20.640 -32.261  17.844  1.00  0.00     0.118 C 
HETATM    7  C8  UNL     1      20.175 -33.649  17.410  1.00  0.00     0.169 C 
ENDROOT
BRANCH   7   8
HETATM    8  O1  UNL     1      20.720 -33.886  16.167  1.00  0.00    -0.355 OA
BRANCH   8   9
HETATM    9  C9  UNL     1      21.613 -34.901  16.088  1.00  0.00     0.256 C 
HETATM   10  N7  UNL     1      21.161 -36.243  16.285  1.00  0.00    -0.330 N 
HETATM   11  C10 UNL     1      22.168 -36.664  15.383  1.00  0.00     0.246 C 
ATOM     12  H7  UNL     1      20.432 -36.698  16.834  1.00  0.00     0.165 HD
HETATM   13  O2  UNL     1      22.819 -37.715  15.245  1.00  0.00    -0.271 OA
HETATM   14  C11 UNL     1      22.074 -35.341  14.735  1.00  0.00     0.225 C 
BRANCH  14  15
HETATM   15  N8  UNL     1      23.323 -34.773  14.284  1.00  0.00    -0.350 N 
HETATM   16  C12 UNL     1      23.302 -34.058  13.211  1.00  0.00     0.197 C 
HETATM   17  N9  UNL     1      22.111 -33.816  12.472  1.00  0.00    -0.067 NA
HETATM   18  N10 UNL     1      24.508 -33.482  12.734  1.00  0.00    -0.067 NA
ATOM     19  H8  UNL     1      24.191 -34.932  14.796  1.00  0.00     0.162 HD
ENDBRANCH  14  15
ENDBRANCH   8   9
ENDBRANCH   7   8
BRANCH   1  20
HETATM   20  C2  UNL     1      18.074 -34.951  17.609  1.00  0.00     0.054 C 
BRANCH  20  21
HETATM   21  C1  UNL     1      17.007 -35.345  16.626  1.00  0.00     0.231 C 
BRANCH  21  22
HETATM   22  N1  UNL     1      17.429 -36.249  15.619  1.00  0.00    -0.079 N 
ATOM     23  H13 UNL     1      16.792 -37.044  15.570  1.00  0.00     0.274 HD
ATOM     24  H12 UNL     1      17.278 -35.844  14.695  1.00  0.00     0.274 HD
ATOM     25  H11 UNL     1      18.392 -36.573  15.709  1.00  0.00     0.274 HD
ENDBRANCH  21  22
ENDBRANCH  20  21
ENDBRANCH   1  20
BRANCH   6  26
HETATM   26  N4  UNL     1      20.244 -31.299  16.846  1.00  0.00    -0.360 N 
HETATM   27  C7  UNL     1      20.984 -30.401  16.360  1.00  0.00     0.197 C 
HETATM   28  N5  UNL     1      22.327 -30.270  16.784  1.00  0.00    -0.067 NA
HETATM   29  N6  UNL     1      20.483 -29.510  15.381  1.00  0.00    -0.067 NA
ATOM     30  H4  UNL     1      19.283 -31.349  16.505  1.00  0.00     0.162 HD
ENDBRANCH   6  26
BRANCH   4  31
HETATM   31  N3  UNL     1      17.964 -31.385  20.111  1.00  0.00    -0.059 N 
ATOM     32  H33 UNL     1      17.060 -31.755  20.405  1.00  0.00     0.276 HD
ATOM     33  H32 UNL     1      18.375 -31.237  21.032  1.00  0.00     0.276 HD
ATOM     34  H31 UNL     1      17.865 -30.511  19.595  1.00  0.00     0.276 HD
ENDBRANCH   4  31
TORSDOF 8
ENDMDL
