MODEL 1
REMARK VINA RESULT: -7.530581019      0.000      0.000
REMARK  10 active torsions:
REMARK  status: ('A' for Active; 'I' for Inactive)
REMARK    1  A    between atoms: N1_1  and  C1_4 
REMARK    2  A    between atoms: C3_8  and  C4_9 
REMARK    3  A    between atoms: C4_9  and  N3_10 
REMARK       I    between atoms: N3_10  and  C5_12 
REMARK    4  A    between atoms: C5_12  and  C6_14 
REMARK       I    between atoms: C6_14  and  N4_16 
REMARK    5  A    between atoms: N4_16  and  C7_18 
REMARK    6  A    between atoms: C7_18  and  C8_19 
REMARK       I    between atoms: C8_19  and  N5_21 
REMARK    7  A    between atoms: N5_21  and  C9_23 
REMARK    8  A    between atoms: C9_23  and  C10_24 
REMARK       I    between atoms: C10_24  and  N6_26 
REMARK    9  A    between atoms: C11_28  and  N7_29 
REMARK   10  A    between atoms: N7_29  and  N8_31 
ROOT
HETATM    1  C6  UNL     1      20.725 -30.898  16.208  1.00  0.00     0.309 C 
HETATM    2  O2  UNL     1      20.073 -30.838  15.148  1.00  0.00    -0.262 OA
HETATM    3  N4  UNL     1      21.964 -31.571  16.244  1.00  0.00    -0.344 N 
ATOM      4  H4  UNL     1      22.505 -31.624  17.108  1.00  0.00     0.163 HD
ENDROOT
BRANCH   3   5
HETATM    5  C7  UNL     1      22.448 -32.183  15.032  1.00  0.00     0.225 C 
BRANCH   5   6
HETATM    6  C8  UNL     1      22.182 -33.640  14.999  1.00  0.00     0.235 C 
HETATM    7  O3  UNL     1      22.147 -34.194  13.874  1.00  0.00    -0.272 OA
HETATM    8  N5  UNL     1      21.985 -34.311  16.218  1.00  0.00    -0.351 N 
ATOM      9  H5  UNL     1      22.026 -33.797  17.099  1.00  0.00     0.163 HD
BRANCH   8  10
HETATM   10  C9  UNL     1      21.725 -35.720  16.218  1.00  0.00     0.225 C 
BRANCH  10  11
HETATM   11  C10 UNL     1      20.307 -36.054  16.452  1.00  0.00     0.240 C 
HETATM   12  O4  UNL     1      19.956 -37.259  16.438  1.00  0.00    -0.271 OA
HETATM   13  N6  UNL     1      19.372 -35.035  16.687  1.00  0.00    -0.321 N 
HETATM   14  C11 UNL     1      18.139 -35.278  16.988  1.00  0.00     0.199 C 
ATOM     15  H6  UNL     1      19.677 -34.064  16.617  1.00  0.00     0.169 HD
BRANCH  14  16
HETATM   16  N7  UNL     1      17.278 -34.172  17.205  1.00  0.00    -0.303 N 
ATOM     17  H7  UNL     1      16.275 -34.279  17.055  1.00  0.00     0.187 HD
BRANCH  16  18
HETATM   18  N8  UNL     1      17.783 -32.935  17.623  1.00  0.00    -0.344 N 
ATOM     19  H82 UNL     1      18.194 -32.866  18.554  1.00  0.00     0.176 HD
ATOM     20  H81 UNL     1      17.743 -32.117  17.014  1.00  0.00     0.176 HD
ENDBRANCH  16  18
ENDBRANCH  14  16
ENDBRANCH  10  11
ENDBRANCH   8  10
ENDBRANCH   5   6
ENDBRANCH   3   5
BRANCH   1  21
HETATM   21  C5  UNL     1      20.244 -30.283  17.439  1.00  0.00     0.309 C 
HETATM   22  N3  UNL     1      20.462 -30.953  18.673  1.00  0.00    -0.347 N 
ATOM     23  H3  UNL     1      20.953 -31.846  18.666  1.00  0.00     0.163 HD
HETATM   24  O1  UNL     1      19.644 -29.181  17.427  1.00  0.00    -0.262 OA
BRANCH  22  25
HETATM   25  C4  UNL     1      20.017 -30.419  19.926  1.00  0.00     0.182 C 
BRANCH  25  26
HETATM   26  C3  UNL     1      19.410 -31.472  20.763  1.00  0.00     0.060 A 
HETATM   27  C2  UNL     1      19.443 -32.847  20.672  1.00  0.00     0.133 A 
HETATM   28  N2  UNL     1      18.721 -33.349  21.691  1.00  0.00    -0.200 N 
HETATM   29  C1  UNL     1      18.227 -32.348  22.428  1.00  0.00     0.676 A 
ATOM     30  H2  UNL     1      18.572 -34.342  21.873  1.00  0.00     0.183 HD
HETATM   31  N9  UNL     1      18.653 -31.216  21.855  1.00  0.00    -0.193 N 
ATOM     32  H9  UNL     1      18.435 -30.280  22.198  1.00  0.00     0.184 HD
BRANCH  29  33
HETATM   33  N1  UNL     1      17.487 -32.403  23.488  1.00  0.00    -0.234 N 
ATOM     34  H12 UNL     1      16.912 -33.203  23.754  1.00  0.00     0.174 HD
ATOM     35  H11 UNL     1      17.346 -31.698  24.212  1.00  0.00     0.174 HD
ENDBRANCH  29  33
ENDBRANCH  25  26
ENDBRANCH  22  25
ENDBRANCH   1  21
TORSDOF 10
ENDMDL
MODEL 2
REMARK VINA RESULT: -7.510024651      1.007      1.095
REMARK  10 active torsions:
REMARK  status: ('A' for Active; 'I' for Inactive)
REMARK    1  A    between atoms: N1_1  and  C1_4 
REMARK    2  A    between atoms: C3_8  and  C4_9 
REMARK    3  A    between atoms: C4_9  and  N3_10 
REMARK       I    between atoms: N3_10  and  C5_12 
REMARK    4  A    between atoms: C5_12  and  C6_14 
REMARK       I    between atoms: C6_14  and  N4_16 
REMARK    5  A    between atoms: N4_16  and  C7_18 
REMARK    6  A    between atoms: C7_18  and  C8_19 
REMARK       I    between atoms: C8_19  and  N5_21 
REMARK    7  A    between atoms: N5_21  and  C9_23 
REMARK    8  A    between atoms: C9_23  and  C10_24 
REMARK       I    between atoms: C10_24  and  N6_26 
REMARK    9  A    between atoms: C11_28  and  N7_29 
REMARK   10  A    between atoms: N7_29  and  N8_31 
ROOT
HETATM    1  C6  UNL     1      20.789 -30.752  16.031  1.00  0.00     0.309 C 
HETATM    2  O2  UNL     1      20.061 -30.867  15.027  1.00  0.00    -0.262 OA
HETATM    3  N4  UNL     1      22.140 -31.153  15.980  1.00  0.00    -0.344 N 
ATOM      4  H4  UNL     1      22.743 -31.062  16.799  1.00  0.00     0.163 HD
ENDROOT
BRANCH   3   5
HETATM    5  C7  UNL     1      22.650 -31.696  14.746  1.00  0.00     0.225 C 
BRANCH   5   6
HETATM    6  C8  UNL     1      22.440 -33.160  14.653  1.00  0.00     0.235 C 
HETATM    7  O3  UNL     1      21.915 -33.602  13.603  1.00  0.00    -0.272 OA
HETATM    8  N5  UNL     1      22.839 -33.962  15.737  1.00  0.00    -0.351 N 
ATOM      9  H5  UNL     1      23.260 -33.535  16.563  1.00  0.00     0.163 HD
BRANCH   8  10
HETATM   10  C9  UNL     1      22.649 -35.381  15.676  1.00  0.00     0.225 C 
BRANCH  10  11
HETATM   11  C10 UNL     1      21.514 -35.855  16.491  1.00  0.00     0.240 C 
HETATM   12  O4  UNL     1      21.738 -36.306  17.641  1.00  0.00    -0.271 OA
HETATM   13  N6  UNL     1      20.208 -35.801  15.981  1.00  0.00    -0.321 N 
HETATM   14  C11 UNL     1      19.173 -36.118  16.686  1.00  0.00     0.199 C 
ATOM     15  H6  UNL     1      20.070 -35.500  15.016  1.00  0.00     0.169 HD
BRANCH  14  16
HETATM   16  N7  UNL     1      17.897 -36.027  16.071  1.00  0.00    -0.303 N 
ATOM     17  H7  UNL     1      17.756 -36.431  15.145  1.00  0.00     0.187 HD
BRANCH  16  18
HETATM   18  N8  UNL     1      16.829 -35.391  16.716  1.00  0.00    -0.344 N 
ATOM     19  H82 UNL     1      17.017 -34.878  17.577  1.00  0.00     0.176 HD
ATOM     20  H81 UNL     1      15.883 -35.437  16.337  1.00  0.00     0.176 HD
ENDBRANCH  16  18
ENDBRANCH  14  16
ENDBRANCH  10  11
ENDBRANCH   8  10
ENDBRANCH   5   6
ENDBRANCH   3   5
BRANCH   1  21
HETATM   21  C5  UNL     1      20.284 -30.205  17.284  1.00  0.00     0.309 C 
HETATM   22  N3  UNL     1      20.500 -30.929  18.487  1.00  0.00    -0.347 N 
ATOM     23  H3  UNL     1      21.008 -31.812  18.444  1.00  0.00     0.163 HD
HETATM   24  O1  UNL     1      19.664 -29.115  17.318  1.00  0.00    -0.262 OA
BRANCH  22  25
HETATM   25  C4  UNL     1      20.033 -30.463  19.759  1.00  0.00     0.182 C 
BRANCH  25  26
HETATM   26  C3  UNL     1      19.312 -31.531  20.480  1.00  0.00     0.060 A 
HETATM   27  C2  UNL     1      19.076 -32.852  20.164  1.00  0.00     0.133 A 
HETATM   28  N2  UNL     1      18.364 -33.399  21.166  1.00  0.00    -0.200 N 
HETATM   29  C1  UNL     1      18.135 -32.478  22.109  1.00  0.00     0.676 A 
ATOM     30  H2  UNL     1      18.046 -34.367  21.201  1.00  0.00     0.183 HD
HETATM   31  N9  UNL     1      18.716 -31.351  21.681  1.00  0.00    -0.193 N 
ATOM     32  H9  UNL     1      18.710 -30.470  22.195  1.00  0.00     0.184 HD
BRANCH  29  33
HETATM   33  N1  UNL     1      17.493 -32.596  23.227  1.00  0.00    -0.234 N 
ATOM     34  H12 UNL     1      16.773 -33.296  23.411  1.00  0.00     0.174 HD
ATOM     35  H11 UNL     1      17.580 -32.045  24.080  1.00  0.00     0.174 HD
ENDBRANCH  29  33
ENDBRANCH  25  26
ENDBRANCH  22  25
ENDBRANCH   1  21
TORSDOF 10
ENDMDL
MODEL 3
REMARK VINA RESULT: -6.987970332      3.381      4.370
REMARK  10 active torsions:
REMARK  status: ('A' for Active; 'I' for Inactive)
REMARK    1  A    between atoms: N1_1  and  C1_4 
REMARK    2  A    between atoms: C3_8  and  C4_9 
REMARK    3  A    between atoms: C4_9  and  N3_10 
REMARK       I    between atoms: N3_10  and  C5_12 
REMARK    4  A    between atoms: C5_12  and  C6_14 
REMARK       I    between atoms: C6_14  and  N4_16 
REMARK    5  A    between atoms: N4_16  and  C7_18 
REMARK    6  A    between atoms: C7_18  and  C8_19 
REMARK       I    between atoms: C8_19  and  N5_21 
REMARK    7  A    between atoms: N5_21  and  C9_23 
REMARK    8  A    between atoms: C9_23  and  C10_24 
REMARK       I    between atoms: C10_24  and  N6_26 
REMARK    9  A    between atoms: C11_28  and  N7_29 
REMARK   10  A    between atoms: N7_29  and  N8_31 
ROOT
HETATM    1  C6  UNL     1      18.684 -33.140  17.583  1.00  0.00     0.309 C 
HETATM    2  O2  UNL     1      19.042 -32.659  16.492  1.00  0.00    -0.262 OA
HETATM    3  N4  UNL     1      18.475 -34.528  17.715  1.00  0.00    -0.344 N 
ATOM      4  H4  UNL     1      18.182 -34.930  18.607  1.00  0.00     0.163 HD
ENDROOT
BRANCH   3   5
HETATM    5  C7  UNL     1      18.685 -35.366  16.562  1.00  0.00     0.225 C 
BRANCH   5   6
HETATM    6  C8  UNL     1      20.015 -36.019  16.583  1.00  0.00     0.235 C 
HETATM    7  O3  UNL     1      21.013 -35.302  16.334  1.00  0.00    -0.272 OA
HETATM    8  N5  UNL     1      20.080 -37.393  16.877  1.00  0.00    -0.351 N 
ATOM      9  H5  UNL     1      19.226 -37.917  17.069  1.00  0.00     0.163 HD
BRANCH   8  10
HETATM   10  C9  UNL     1      21.353 -38.051  16.904  1.00  0.00     0.225 C 
BRANCH  10  11
HETATM   11  C10 UNL     1      21.712 -38.682  15.619  1.00  0.00     0.240 C 
HETATM   12  O4  UNL     1      22.486 -38.074  14.839  1.00  0.00    -0.271 OA
HETATM   13  N6  UNL     1      21.193 -39.941  15.280  1.00  0.00    -0.321 N 
HETATM   14  C11 UNL     1      21.547 -40.575  14.212  1.00  0.00     0.199 C 
ATOM     15  H6  UNL     1      20.509 -40.372  15.902  1.00  0.00     0.169 HD
BRANCH  14  16
HETATM   16  N7  UNL     1      20.960 -41.843  13.967  1.00  0.00    -0.303 N 
ATOM     17  H7  UNL     1      19.993 -41.895  13.647  1.00  0.00     0.187 HD
BRANCH  16  18
HETATM   18  N8  UNL     1      21.687 -43.025  14.157  1.00  0.00    -0.344 N 
ATOM     19  H82 UNL     1      21.406 -43.857  13.639  1.00  0.00     0.176 HD
ATOM     20  H81 UNL     1      22.479 -43.057  14.798  1.00  0.00     0.176 HD
ENDBRANCH  16  18
ENDBRANCH  14  16
ENDBRANCH  10  11
ENDBRANCH   8  10
ENDBRANCH   5   6
ENDBRANCH   3   5
BRANCH   1  21
HETATM   21  C5  UNL     1      18.468 -32.300  18.755  1.00  0.00     0.309 C 
HETATM   22  N3  UNL     1      19.453 -31.337  19.102  1.00  0.00    -0.347 N 
ATOM     23  H3  UNL     1      20.286 -31.256  18.520  1.00  0.00     0.163 HD
HETATM   24  O1  UNL     1      17.435 -32.413  19.458  1.00  0.00    -0.262 OA
BRANCH  22  25
HETATM   25  C4  UNL     1      19.320 -30.476  20.240  1.00  0.00     0.182 C 
BRANCH  25  26
HETATM   26  C3  UNL     1      19.397 -31.246  21.497  1.00  0.00     0.060 A 
HETATM   27  C2  UNL     1      20.458 -31.843  22.142  1.00  0.00     0.133 A 
HETATM   28  N2  UNL     1      19.991 -32.423  23.263  1.00  0.00    -0.200 N 
HETATM   29  C1  UNL     1      18.673 -32.220  23.358  1.00  0.00     0.676 A 
ATOM     30  H2  UNL     1      20.556 -32.939  23.937  1.00  0.00     0.183 HD
HETATM   31  N9  UNL     1      18.325 -31.505  22.282  1.00  0.00    -0.193 N 
ATOM     32  H9  UNL     1      17.375 -31.195  22.079  1.00  0.00     0.184 HD
BRANCH  29  33
HETATM   33  N1  UNL     1      17.850 -32.610  24.279  1.00  0.00    -0.234 N 
ATOM     34  H12 UNL     1      18.129 -32.927  25.208  1.00  0.00     0.174 HD
ATOM     35  H11 UNL     1      16.833 -32.672  24.249  1.00  0.00     0.174 HD
ENDBRANCH  29  33
ENDBRANCH  25  26
ENDBRANCH  22  25
ENDBRANCH   1  21
TORSDOF 10
ENDMDL
MODEL 4
REMARK VINA RESULT: -6.951127791      2.957      6.041
REMARK  10 active torsions:
REMARK  status: ('A' for Active; 'I' for Inactive)
REMARK    1  A    between atoms: N1_1  and  C1_4 
REMARK    2  A    between atoms: C3_8  and  C4_9 
REMARK    3  A    between atoms: C4_9  and  N3_10 
REMARK       I    between atoms: N3_10  and  C5_12 
REMARK    4  A    between atoms: C5_12  and  C6_14 
REMARK       I    between atoms: C6_14  and  N4_16 
REMARK    5  A    between atoms: N4_16  and  C7_18 
REMARK    6  A    between atoms: C7_18  and  C8_19 
REMARK       I    between atoms: C8_19  and  N5_21 
REMARK    7  A    between atoms: N5_21  and  C9_23 
REMARK    8  A    between atoms: C9_23  and  C10_24 
REMARK       I    between atoms: C10_24  and  N6_26 
REMARK    9  A    between atoms: C11_28  and  N7_29 
REMARK   10  A    between atoms: N7_29  and  N8_31 
ROOT
HETATM    1  C6  UNL     1      19.821 -32.652  16.847  1.00  0.00     0.309 C 
HETATM    2  O2  UNL     1      18.896 -32.220  17.560  1.00  0.00    -0.262 OA
HETATM    3  N4  UNL     1      20.135 -34.027  16.842  1.00  0.00    -0.344 N 
ATOM      4  H4  UNL     1      20.891 -34.389  16.261  1.00  0.00     0.163 HD
ENDROOT
BRANCH   3   5
HETATM    5  C7  UNL     1      19.361 -34.910  17.679  1.00  0.00     0.225 C 
BRANCH   5   6
HETATM    6  C8  UNL     1      19.605 -34.667  19.120  1.00  0.00     0.235 C 
HETATM    7  O3  UNL     1      20.742 -34.950  19.569  1.00  0.00    -0.272 OA
HETATM    8  N5  UNL     1      18.557 -34.139  19.895  1.00  0.00    -0.351 N 
ATOM      9  H5  UNL     1      17.655 -33.933  19.465  1.00  0.00     0.163 HD
BRANCH   8  10
HETATM   10  C9  UNL     1      18.762 -33.894  21.292  1.00  0.00     0.225 C 
BRANCH  10  11
HETATM   11  C10 UNL     1      19.088 -32.487  21.596  1.00  0.00     0.240 C 
HETATM   12  O4  UNL     1      19.668 -32.217  22.677  1.00  0.00    -0.271 OA
HETATM   13  N6  UNL     1      18.751 -31.471  20.688  1.00  0.00    -0.321 N 
HETATM   14  C11 UNL     1      19.094 -30.239  20.864  1.00  0.00     0.199 C 
ATOM     15  H6  UNL     1      18.214 -31.717  19.855  1.00  0.00     0.169 HD
BRANCH  14  16
HETATM   16  N7  UNL     1      18.701 -29.293  19.882  1.00  0.00    -0.303 N 
ATOM     17  H7  UNL     1      19.092 -28.351  19.907  1.00  0.00     0.187 HD
BRANCH  16  18
HETATM   18  N8  UNL     1      17.785 -29.632  18.879  1.00  0.00    -0.344 N 
ATOM     19  H82 UNL     1      17.832 -29.136  17.990  1.00  0.00     0.176 HD
ATOM     20  H81 UNL     1      17.084 -30.358  19.030  1.00  0.00     0.176 HD
ENDBRANCH  16  18
ENDBRANCH  14  16
ENDBRANCH  10  11
ENDBRANCH   8  10
ENDBRANCH   5   6
ENDBRANCH   3   5
BRANCH   1  21
HETATM   21  C5  UNL     1      20.610 -31.767  15.998  1.00  0.00     0.309 C 
HETATM   22  N3  UNL     1      21.974 -31.538  16.323  1.00  0.00    -0.347 N 
ATOM     23  H3  UNL     1      22.368 -32.002  17.141  1.00  0.00     0.163 HD
HETATM   24  O1  UNL     1      20.108 -31.208  14.993  1.00  0.00    -0.262 OA
BRANCH  22  25
HETATM   25  C4  UNL     1      22.817 -30.680  15.544  1.00  0.00     0.182 C 
BRANCH  25  26
HETATM   26  C3  UNL     1      24.032 -30.309  16.294  1.00  0.00     0.060 A 
HETATM   27  C2  UNL     1      25.257 -30.929  16.419  1.00  0.00     0.133 A 
HETATM   28  N2  UNL     1      26.026 -30.174  17.225  1.00  0.00    -0.200 N 
HETATM   29  C1  UNL     1      25.339 -29.096  17.620  1.00  0.00     0.676 A 
ATOM     30  H2  UNL     1      26.985 -30.390  17.494  1.00  0.00     0.183 HD
HETATM   31  N9  UNL     1      24.133 -29.190  17.049  1.00  0.00    -0.193 N 
ATOM     32  H9  UNL     1      23.385 -28.506  17.166  1.00  0.00     0.184 HD
BRANCH  29  33
HETATM   33  N1  UNL     1      25.713 -28.128  18.394  1.00  0.00    -0.234 N 
ATOM     34  H12 UNL     1      26.405 -27.421  18.144  1.00  0.00     0.174 HD
ATOM     35  H11 UNL     1      25.405 -27.905  19.340  1.00  0.00     0.174 HD
ENDBRANCH  29  33
ENDBRANCH  25  26
ENDBRANCH  22  25
ENDBRANCH   1  21
TORSDOF 10
ENDMDL
MODEL 5
REMARK VINA RESULT: -6.916984442      2.219      5.881
REMARK  10 active torsions:
REMARK  status: ('A' for Active; 'I' for Inactive)
REMARK    1  A    between atoms: N1_1  and  C1_4 
REMARK    2  A    between atoms: C3_8  and  C4_9 
REMARK    3  A    between atoms: C4_9  and  N3_10 
REMARK       I    between atoms: N3_10  and  C5_12 
REMARK    4  A    between atoms: C5_12  and  C6_14 
REMARK       I    between atoms: C6_14  and  N4_16 
REMARK    5  A    between atoms: N4_16  and  C7_18 
REMARK    6  A    between atoms: C7_18  and  C8_19 
REMARK       I    between atoms: C8_19  and  N5_21 
REMARK    7  A    between atoms: N5_21  and  C9_23 
REMARK    8  A    between atoms: C9_23  and  C10_24 
REMARK       I    between atoms: C10_24  and  N6_26 
REMARK    9  A    between atoms: C11_28  and  N7_29 
REMARK   10  A    between atoms: N7_29  and  N8_31 
ROOT
HETATM    1  C6  UNL     1      20.770 -31.327  15.802  1.00  0.00     0.309 C 
HETATM    2  O2  UNL     1      19.961 -30.779  15.030  1.00  0.00    -0.262 OA
HETATM    3  N4  UNL     1      20.991 -30.802  17.092  1.00  0.00    -0.344 N 
ATOM      4  H4  UNL     1      21.652 -31.246  17.731  1.00  0.00     0.163 HD
ENDROOT
BRANCH   3   5
HETATM    5  C7  UNL     1      20.262 -29.623  17.488  1.00  0.00     0.225 C 
BRANCH   5   6
HETATM    6  C8  UNL     1      19.453 -29.852  18.708  1.00  0.00     0.235 C 
HETATM    7  O3  UNL     1      18.221 -29.624  18.634  1.00  0.00    -0.272 OA
HETATM    8  N5  UNL     1      20.106 -30.306  19.867  1.00  0.00    -0.351 N 
ATOM      9  H5  UNL     1      21.113 -30.470  19.857  1.00  0.00     0.163 HD
BRANCH   8  10
HETATM   10  C9  UNL     1      19.350 -30.536  21.062  1.00  0.00     0.225 C 
BRANCH  10  11
HETATM   11  C10 UNL     1      19.173 -31.967  21.376  1.00  0.00     0.240 C 
HETATM   12  O4  UNL     1      18.973 -32.308  22.568  1.00  0.00    -0.271 OA
HETATM   13  N6  UNL     1      19.228 -32.926  20.353  1.00  0.00    -0.321 N 
HETATM   14  C11 UNL     1      18.990 -34.179  20.561  1.00  0.00     0.199 C 
ATOM     15  H6  UNL     1      19.467 -32.622  19.409  1.00  0.00     0.169 HD
BRANCH  14  16
HETATM   16  N7  UNL     1      19.074 -35.063  19.454  1.00  0.00    -0.303 N 
ATOM     17  H7  UNL     1      19.702 -34.842  18.682  1.00  0.00     0.187 HD
BRANCH  16  18
HETATM   18  N8  UNL     1      18.307 -36.234  19.406  1.00  0.00    -0.344 N 
ATOM     19  H82 UNL     1      17.911 -36.592  20.274  1.00  0.00     0.176 HD
ATOM     20  H81 UNL     1      18.145 -36.720  18.524  1.00  0.00     0.176 HD
ENDBRANCH  16  18
ENDBRANCH  14  16
ENDBRANCH  10  11
ENDBRANCH   8  10
ENDBRANCH   5   6
ENDBRANCH   3   5
BRANCH   1  21
HETATM   21  C5  UNL     1      21.513 -32.519  15.412  1.00  0.00     0.309 C 
HETATM   22  N3  UNL     1      21.834 -33.485  16.403  1.00  0.00    -0.347 N 
ATOM     23  H3  UNL     1      21.534 -33.321  17.363  1.00  0.00     0.163 HD
HETATM   24  O1  UNL     1      21.872 -32.705  14.224  1.00  0.00    -0.262 OA
BRANCH  22  25
HETATM   25  C4  UNL     1      22.565 -34.681  16.103  1.00  0.00     0.182 C 
BRANCH  25  26
HETATM   26  C3  UNL     1      21.725 -35.877  16.304  1.00  0.00     0.060 A 
HETATM   27  C2  UNL     1      20.357 -36.050  16.287  1.00  0.00     0.133 A 
HETATM   28  N2  UNL     1      20.098 -37.349  16.530  1.00  0.00    -0.200 N 
HETATM   29  C1  UNL     1      21.247 -38.011  16.702  1.00  0.00     0.676 A 
ATOM     30  H2  UNL     1      19.168 -37.764  16.576  1.00  0.00     0.183 HD
HETATM   31  N9  UNL     1      22.225 -37.108  16.563  1.00  0.00    -0.193 N 
ATOM     32  H9  UNL     1      23.220 -37.320  16.641  1.00  0.00     0.184 HD
BRANCH  29  33
HETATM   33  N1  UNL     1      21.437 -39.267  16.954  1.00  0.00    -0.234 N 
ATOM     34  H12 UNL     1      20.907 -40.029  16.530  1.00  0.00     0.174 HD
ATOM     35  H11 UNL     1      22.109 -39.702  17.585  1.00  0.00     0.174 HD
ENDBRANCH  29  33
ENDBRANCH  25  26
ENDBRANCH  22  25
ENDBRANCH   1  21
TORSDOF 10
ENDMDL
