MODEL 1
REMARK VINA RESULT: -7.126298530      0.000      0.000
REMARK  15 active torsions:
REMARK  status: ('A' for Active; 'I' for Inactive)
REMARK    1  A    between atoms: N1_1  and  C1_4 
REMARK    2  A    between atoms: C3_9  and  N4_10 
REMARK    3  A    between atoms: C4_15  and  N6_16 
REMARK    4  A    between atoms: C7_21  and  N8_22 
REMARK    5  A    between atoms: C8_27  and  N10_28 
REMARK    6  A    between atoms: C10_35  and  N12_36 
REMARK    7  A    between atoms: N12_36  and  C11_38 
REMARK    8  A    between atoms: C11_38  and  C12_39 
REMARK    9  A    between atoms: C12_39  and  C13_40 
REMARK   10  A    between atoms: C13_40  and  C14_41 
REMARK   11  A    between atoms: C14_41  and  C15_42 
REMARK   12  A    between atoms: C15_42  and  C16_43 
REMARK   13  A    between atoms: C16_43  and  O1_44 
REMARK   14  A    between atoms: N13_46  and  N14_48 
REMARK   15  A    between atoms: N14_48  and  N15_50 
ROOT
HETATM    1  C1  UNL     1     -17.020  34.045  -5.186  1.00  0.00     0.691 A 
HETATM    2  N2  UNL     1     -17.084  34.065  -6.530  1.00  0.00    -0.176 N 
ATOM      3  H2  UNL     1     -16.372  33.559  -7.056  1.00  0.00     0.185 HD
HETATM    4  C2  UNL     1     -18.055  34.732  -7.224  1.00  0.00     0.151 A 
HETATM    5  N3  UNL     1     -18.977  35.388  -6.602  1.00  0.00    -0.137 N 
HETATM    6  C3  UNL     1     -18.929  35.379  -5.216  1.00  0.00     0.696 A 
HETATM    7  N5  UNL     1     -17.999  34.741  -4.522  1.00  0.00    -0.022 N 
ATOM      8  H5  UNL     1     -18.010  34.767  -3.502  1.00  0.00     0.203 HD
HETATM    9  C4  UNL     1     -19.984  36.069  -7.387  1.00  0.00     0.284 C 
HETATM   10  S1  UNL     1     -19.110  36.223  -8.975  1.00  0.00    -0.088 SA
HETATM   11  C10 UNL     1     -18.099  34.735  -8.725  1.00  0.00     0.218 C 
ENDROOT
BRANCH   9  12
HETATM   12  N6  UNL     1     -20.391  37.342  -6.877  1.00  0.00    -0.294 N 
HETATM   13  C5  UNL     1     -19.761  38.512  -6.776  1.00  0.00     0.188 A 
HETATM   14  N7  UNL     1     -20.554  39.454  -6.227  1.00  0.00    -0.346 N 
HETATM   15  C6  UNL     1     -21.736  38.878  -5.965  1.00  0.00     0.123 A 
ATOM     16  H7  UNL     1     -20.303  40.426  -6.046  1.00  0.00     0.167 HD
HETATM   17  C7  UNL     1     -22.897  39.370  -5.410  1.00  0.00     0.145 A 
HETATM   18  C9  UNL     1     -21.639  37.568  -6.365  1.00  0.00     0.157 A 
HETATM   19  N9  UNL     1     -23.952  38.549  -5.261  1.00  0.00    -0.175 N 
HETATM   20  C8  UNL     1     -23.867  37.268  -5.649  1.00  0.00     0.679 A 
ATOM     21  H9  UNL     1     -24.817  38.902  -4.852  1.00  0.00     0.186 HD
HETATM   22  N11 UNL     1     -22.716  36.781  -6.197  1.00  0.00    -0.174 N 
ATOM     23  H11 UNL     1     -22.674  35.804  -6.485  1.00  0.00     0.186 HD
BRANCH  17  24
HETATM   24  N8  UNL     1     -22.986  40.623  -5.029  1.00  0.00    -0.383 N 
ATOM     25  H82 UNL     1     -22.138  41.153  -4.827  1.00  0.00     0.157 HD
ATOM     26  H81 UNL     1     -23.894  41.078  -4.930  1.00  0.00     0.157 HD
ENDBRANCH  17  24
BRANCH  20  27
HETATM   27  N10 UNL     1     -24.867  36.472  -5.511  1.00  0.00    -0.234 N 
ATOM     28 2H10 UNL     1     -25.230  36.303  -4.573  1.00  0.00     0.174 HD
ATOM     29 1H10 UNL     1     -25.289  36.020  -6.322  1.00  0.00     0.174 HD
ENDBRANCH  20  27
ENDBRANCH   9  12
BRANCH   6  30
HETATM   30  N4  UNL     1     -19.830  36.010  -4.548  1.00  0.00    -0.234 N 
ATOM     31  H42 UNL     1     -20.530  36.524  -5.082  1.00  0.00     0.174 HD
ATOM     32  H41 UNL     1     -19.809  35.982  -3.529  1.00  0.00     0.174 HD
ENDBRANCH   6  30
BRANCH  11  33
HETATM   33  N12 UNL     1     -16.794  34.844  -9.296  1.00  0.00    -0.358 N 
ATOM     34  H12 UNL     1     -16.036  35.104  -8.666  1.00  0.00     0.162 HD
BRANCH  33  35
HETATM   35  C11 UNL     1     -16.457  34.628 -10.635  1.00  0.00     0.094 C 
HETATM   36  N13 UNL     1     -15.385  35.078 -11.194  1.00  0.00    -0.275 N 
ATOM     37  H13 UNL     1     -15.237  34.862 -12.180  1.00  0.00     0.189 HD
BRANCH  35  38
HETATM   38  C12 UNL     1     -17.392  33.831 -11.474  1.00  0.00     0.077 C 
BRANCH  38  39
HETATM   39  C13 UNL     1     -16.670  33.264 -12.709  1.00  0.00     0.007 C 
BRANCH  39  40
HETATM   40  C14 UNL     1     -16.583  31.776 -12.459  1.00  0.00     0.002 C 
BRANCH  40  41
HETATM   41  C15 UNL     1     -15.440  31.142 -13.191  1.00  0.00     0.026 C 
BRANCH  41  42
HETATM   42  C16 UNL     1     -15.822  29.738 -13.583  1.00  0.00     0.164 C 
BRANCH  42  43
HETATM   43  O1  UNL     1     -17.154  29.527 -13.231  1.00  0.00    -0.401 OA
ATOM     44  H1  UNL     1     -17.210  28.719 -12.734  1.00  0.00     0.209 HD
ENDBRANCH  42  43
ENDBRANCH  41  42
ENDBRANCH  40  41
ENDBRANCH  39  40
ENDBRANCH  38  39
ENDBRANCH  35  38
BRANCH  36  45
HETATM   45  N14 UNL     1     -14.419  35.834 -10.545  1.00  0.00    -0.248 N 
ATOM     46  H14 UNL     1     -13.961  35.416  -9.735  1.00  0.00     0.207 HD
BRANCH  45  47
HETATM   47  N15 UNL     1     -14.026  37.112 -10.911  1.00  0.00    -0.331 N 
ATOM     48 2H15 UNL     1     -14.758  37.722 -11.277  1.00  0.00     0.178 HD
ATOM     49 1H15 UNL     1     -13.077  37.478 -10.841  1.00  0.00     0.178 HD
ENDBRANCH  45  47
ENDBRANCH  36  45
ENDBRANCH  33  35
ENDBRANCH  11  33
BRANCH   1  50
HETATM   50  N1  UNL     1     -16.160  33.454  -4.560  1.00  0.00    -0.234 N 
ATOM     51  H12 UNL     1     -15.185  33.748  -4.629  1.00  0.00     0.174 HD
ATOM     52  H11 UNL     1     -16.350  32.660  -3.949  1.00  0.00     0.174 HD
ENDBRANCH   1  50
TORSDOF 15
ENDMDL
MODEL 2
REMARK VINA RESULT: -7.090873537      1.981      2.618
REMARK  15 active torsions:
REMARK  status: ('A' for Active; 'I' for Inactive)
REMARK    1  A    between atoms: N1_1  and  C1_4 
REMARK    2  A    between atoms: C3_9  and  N4_10 
REMARK    3  A    between atoms: C4_15  and  N6_16 
REMARK    4  A    between atoms: C7_21  and  N8_22 
REMARK    5  A    between atoms: C8_27  and  N10_28 
REMARK    6  A    between atoms: C10_35  and  N12_36 
REMARK    7  A    between atoms: N12_36  and  C11_38 
REMARK    8  A    between atoms: C11_38  and  C12_39 
REMARK    9  A    between atoms: C12_39  and  C13_40 
REMARK   10  A    between atoms: C13_40  and  C14_41 
REMARK   11  A    between atoms: C14_41  and  C15_42 
REMARK   12  A    between atoms: C15_42  and  C16_43 
REMARK   13  A    between atoms: C16_43  and  O1_44 
REMARK   14  A    between atoms: N13_46  and  N14_48 
REMARK   15  A    between atoms: N14_48  and  N15_50 
ROOT
HETATM    1  C1  UNL     1     -16.912  34.091  -5.095  1.00  0.00     0.691 A 
HETATM    2  N2  UNL     1     -17.088  33.995  -6.425  1.00  0.00    -0.176 N 
ATOM      3  H2  UNL     1     -16.423  33.440  -6.963  1.00  0.00     0.185 HD
HETATM    4  C2  UNL     1     -18.115  34.606  -7.092  1.00  0.00     0.151 A 
HETATM    5  N3  UNL     1     -18.981  35.320  -6.455  1.00  0.00    -0.137 N 
HETATM    6  C3  UNL     1     -18.817  35.431  -5.081  1.00  0.00     0.696 A 
HETATM    7  N5  UNL     1     -17.832  34.849  -4.415  1.00  0.00    -0.022 N 
ATOM      8  H5  UNL     1     -17.758  34.964  -3.404  1.00  0.00     0.203 HD
HETATM    9  C4  UNL     1     -20.051  35.937  -7.209  1.00  0.00     0.284 C 
HETATM   10  S1  UNL     1     -19.313  35.947  -8.871  1.00  0.00    -0.088 SA
HETATM   11  C10 UNL     1     -18.284  34.479  -8.578  1.00  0.00     0.218 C 
ENDROOT
BRANCH   9  12
HETATM   12  N6  UNL     1     -20.415  37.252  -6.779  1.00  0.00    -0.294 N 
HETATM   13  C5  UNL     1     -19.745  38.404  -6.751  1.00  0.00     0.188 A 
HETATM   14  N7  UNL     1     -20.506  39.405  -6.263  1.00  0.00    -0.346 N 
HETATM   15  C6  UNL     1     -21.706  38.886  -5.966  1.00  0.00     0.123 A 
ATOM     16  H7  UNL     1     -20.221  40.377  -6.142  1.00  0.00     0.167 HD
HETATM   17  C7  UNL     1     -22.850  39.450  -5.445  1.00  0.00     0.145 A 
HETATM   18  C9  UNL     1     -21.654  37.551  -6.284  1.00  0.00     0.157 A 
HETATM   19  N9  UNL     1     -23.931  38.677  -5.245  1.00  0.00    -0.175 N 
HETATM   20  C8  UNL     1     -23.890  37.372  -5.553  1.00  0.00     0.679 A 
ATOM     21  H9  UNL     1     -24.784  39.083  -4.860  1.00  0.00     0.186 HD
HETATM   22  N11 UNL     1     -22.757  36.814  -6.069  1.00  0.00    -0.174 N 
ATOM     23  H11 UNL     1     -22.747  35.819  -6.296  1.00  0.00     0.186 HD
BRANCH  17  24
HETATM   24  N8  UNL     1     -22.896  40.728  -5.142  1.00  0.00    -0.383 N 
ATOM     25  H82 UNL     1     -22.056  41.199  -4.804  1.00  0.00     0.157 HD
ATOM     26  H81 UNL     1     -23.761  41.259  -5.239  1.00  0.00     0.157 HD
ENDBRANCH  17  24
BRANCH  20  27
HETATM   27  N10 UNL     1     -24.916  36.620  -5.367  1.00  0.00    -0.234 N 
ATOM     28 2H10 UNL     1     -25.828  36.954  -5.677  1.00  0.00     0.174 HD
ATOM     29 1H10 UNL     1     -24.820  35.709  -4.919  1.00  0.00     0.174 HD
ENDBRANCH  20  27
ENDBRANCH   9  12
BRANCH   6  30
HETATM   30  N4  UNL     1     -19.659  36.124  -4.398  1.00  0.00    -0.234 N 
ATOM     31  H42 UNL     1     -19.284  36.707  -3.650  1.00  0.00     0.174 HD
ATOM     32  H41 UNL     1     -20.653  36.063  -4.618  1.00  0.00     0.174 HD
ENDBRANCH   6  30
BRANCH  11  33
HETATM   33  N12 UNL     1     -17.032  34.529  -9.263  1.00  0.00    -0.358 N 
ATOM     34  H12 UNL     1     -16.191  34.520  -8.687  1.00  0.00     0.162 HD
BRANCH  33  35
HETATM   35  C11 UNL     1     -16.849  34.588 -10.648  1.00  0.00     0.094 C 
HETATM   36  N13 UNL     1     -15.828  35.130 -11.221  1.00  0.00    -0.275 N 
ATOM     37  H13 UNL     1     -15.795  35.120 -12.240  1.00  0.00     0.189 HD
BRANCH  35  38
HETATM   38  C12 UNL     1     -17.896  33.991 -11.520  1.00  0.00     0.077 C 
BRANCH  38  39
HETATM   39  C13 UNL     1     -18.003  34.760 -12.850  1.00  0.00     0.007 C 
BRANCH  39  40
HETATM   40  C14 UNL     1     -19.027  35.840 -12.593  1.00  0.00     0.002 C 
BRANCH  40  41
HETATM   41  C15 UNL     1     -18.570  37.183 -13.076  1.00  0.00     0.026 C 
BRANCH  41  42
HETATM   42  C16 UNL     1     -18.300  38.069 -11.887  1.00  0.00     0.164 C 
BRANCH  42  43
HETATM   43  O1  UNL     1     -16.970  37.900 -11.503  1.00  0.00    -0.401 OA
ATOM     44  H1  UNL     1     -16.892  38.125 -10.583  1.00  0.00     0.209 HD
ENDBRANCH  42  43
ENDBRANCH  41  42
ENDBRANCH  40  41
ENDBRANCH  39  40
ENDBRANCH  38  39
ENDBRANCH  35  38
BRANCH  36  45
HETATM   45  N14 UNL     1     -14.772  35.726 -10.546  1.00  0.00    -0.248 N 
ATOM     46  H14 UNL     1     -14.430  35.261  -9.704  1.00  0.00     0.207 HD
BRANCH  45  47
HETATM   47  N15 UNL     1     -14.145  36.903 -10.923  1.00  0.00    -0.331 N 
ATOM     48 2H15 UNL     1     -13.133  36.936 -10.799  1.00  0.00     0.178 HD
ATOM     49 1H15 UNL     1     -14.615  37.722 -11.309  1.00  0.00     0.178 HD
ENDBRANCH  45  47
ENDBRANCH  36  45
ENDBRANCH  33  35
ENDBRANCH  11  33
BRANCH   1  50
HETATM   50  N1  UNL     1     -16.002  33.552  -4.494  1.00  0.00    -0.234 N 
ATOM     51  H12 UNL     1     -15.319  32.987  -4.999  1.00  0.00     0.174 HD
ATOM     52  H11 UNL     1     -15.868  33.626  -3.485  1.00  0.00     0.174 HD
ENDBRANCH   1  50
TORSDOF 15
ENDMDL
MODEL 3
REMARK VINA RESULT: -6.755425772      1.460      1.762
REMARK  15 active torsions:
REMARK  status: ('A' for Active; 'I' for Inactive)
REMARK    1  A    between atoms: N1_1  and  C1_4 
REMARK    2  A    between atoms: C3_9  and  N4_10 
REMARK    3  A    between atoms: C4_15  and  N6_16 
REMARK    4  A    between atoms: C7_21  and  N8_22 
REMARK    5  A    between atoms: C8_27  and  N10_28 
REMARK    6  A    between atoms: C10_35  and  N12_36 
REMARK    7  A    between atoms: N12_36  and  C11_38 
REMARK    8  A    between atoms: C11_38  and  C12_39 
REMARK    9  A    between atoms: C12_39  and  C13_40 
REMARK   10  A    between atoms: C13_40  and  C14_41 
REMARK   11  A    between atoms: C14_41  and  C15_42 
REMARK   12  A    between atoms: C15_42  and  C16_43 
REMARK   13  A    between atoms: C16_43  and  O1_44 
REMARK   14  A    between atoms: N13_46  and  N14_48 
REMARK   15  A    between atoms: N14_48  and  N15_50 
ROOT
HETATM    1  C1  UNL     1     -16.973  34.027  -5.239  1.00  0.00     0.691 A 
HETATM    2  N2  UNL     1     -17.008  34.106  -6.581  1.00  0.00    -0.176 N 
ATOM      3  H2  UNL     1     -16.269  33.646  -7.113  1.00  0.00     0.185 HD
HETATM    4  C2  UNL     1     -17.984  34.774  -7.268  1.00  0.00     0.151 A 
HETATM    5  N3  UNL     1     -18.939  35.373  -6.639  1.00  0.00    -0.137 N 
HETATM    6  C3  UNL     1     -18.921  35.303  -5.253  1.00  0.00     0.696 A 
HETATM    7  N5  UNL     1     -17.987  34.663  -4.567  1.00  0.00    -0.022 N 
ATOM      8  H5  UNL     1     -18.021  34.642  -3.548  1.00  0.00     0.203 HD
HETATM    9  C4  UNL     1     -19.950  36.059  -7.416  1.00  0.00     0.284 C 
HETATM   10  S1  UNL     1     -19.046  36.311  -8.974  1.00  0.00    -0.088 SA
HETATM   11  C10 UNL     1     -17.996  34.844  -8.767  1.00  0.00     0.218 C 
ENDROOT
BRANCH   9  12
HETATM   12  N6  UNL     1     -20.407  37.294  -6.859  1.00  0.00    -0.294 N 
HETATM   13  C5  UNL     1     -19.802  38.463  -6.648  1.00  0.00     0.188 A 
HETATM   14  N7  UNL     1     -20.643  39.362  -6.098  1.00  0.00    -0.346 N 
HETATM   15  C6  UNL     1     -21.830  38.758  -5.947  1.00  0.00     0.123 A 
ATOM     16  H7  UNL     1     -20.418  40.324  -5.844  1.00  0.00     0.167 HD
HETATM   17  C7  UNL     1     -23.032  39.203  -5.441  1.00  0.00     0.145 A 
HETATM   18  C9  UNL     1     -21.689  37.475  -6.417  1.00  0.00     0.157 A 
HETATM   19  N9  UNL     1     -24.082  38.364  -5.409  1.00  0.00    -0.175 N 
HETATM   20  C8  UNL     1     -23.953  37.109  -5.865  1.00  0.00     0.679 A 
ATOM     21  H9  UNL     1     -24.977  38.682  -5.037  1.00  0.00     0.186 HD
HETATM   22  N11 UNL     1     -22.763  36.669  -6.366  1.00  0.00    -0.174 N 
ATOM     23  H11 UNL     1     -22.687  35.711  -6.708  1.00  0.00     0.186 HD
BRANCH  17  24
HETATM   24  N8  UNL     1     -23.164  40.431  -4.993  1.00  0.00    -0.383 N 
ATOM     25  H82 UNL     1     -23.781  40.618  -4.202  1.00  0.00     0.157 HD
ATOM     26  H81 UNL     1     -22.656  41.204  -5.424  1.00  0.00     0.157 HD
ENDBRANCH  17  24
BRANCH  20  27
HETATM   27  N10 UNL     1     -24.948  36.295  -5.840  1.00  0.00    -0.234 N 
ATOM     28 2H10 UNL     1     -25.893  36.680  -5.819  1.00  0.00     0.174 HD
ATOM     29 1H10 UNL     1     -24.797  35.287  -5.841  1.00  0.00     0.174 HD
ENDBRANCH  20  27
ENDBRANCH   9  12
BRANCH   6  30
HETATM   30  N4  UNL     1     -19.856  35.876  -4.579  1.00  0.00    -0.234 N 
ATOM     31  H42 UNL     1     -19.817  36.892  -4.501  1.00  0.00     0.174 HD
ATOM     32  H41 UNL     1     -20.584  35.306  -4.149  1.00  0.00     0.174 HD
ENDBRANCH   6  30
BRANCH  11  33
HETATM   33  N12 UNL     1     -16.682  35.018  -9.302  1.00  0.00    -0.358 N 
ATOM     34  H12 UNL     1     -15.971  35.380  -8.668  1.00  0.00     0.162 HD
BRANCH  33  35
HETATM   35  C11 UNL     1     -16.280  34.739 -10.611  1.00  0.00     0.094 C 
HETATM   36  N13 UNL     1     -15.208  35.209 -11.156  1.00  0.00    -0.275 N 
ATOM     37  H13 UNL     1     -15.009  34.942 -12.120  1.00  0.00     0.189 HD
BRANCH  35  38
HETATM   38  C12 UNL     1     -17.138  33.845 -11.435  1.00  0.00     0.077 C 
BRANCH  38  39
HETATM   39  C13 UNL     1     -17.967  34.660 -12.444  1.00  0.00     0.007 C 
BRANCH  39  40
HETATM   40  C14 UNL     1     -19.395  34.219 -12.222  1.00  0.00     0.002 C 
BRANCH  40  41
HETATM   41  C15 UNL     1     -19.491  32.771 -11.851  1.00  0.00     0.026 C 
BRANCH  41  42
HETATM   42  C16 UNL     1     -20.416  32.624 -10.670  1.00  0.00     0.164 C 
BRANCH  42  43
HETATM   43  O1  UNL     1     -19.756  31.902  -9.677  1.00  0.00    -0.401 OA
ATOM     44  H1  UNL     1     -20.360  31.265  -9.315  1.00  0.00     0.209 HD
ENDBRANCH  42  43
ENDBRANCH  41  42
ENDBRANCH  40  41
ENDBRANCH  39  40
ENDBRANCH  38  39
ENDBRANCH  35  38
BRANCH  36  45
HETATM   45  N14 UNL     1     -14.309  36.053 -10.519  1.00  0.00    -0.248 N 
ATOM     46  H14 UNL     1     -13.768  35.665  -9.745  1.00  0.00     0.207 HD
BRANCH  45  47
HETATM   47  N15 UNL     1     -14.087  37.380 -10.850  1.00  0.00    -0.331 N 
ATOM     48 2H15 UNL     1     -13.461  37.552 -11.637  1.00  0.00     0.178 HD
ATOM     49 1H15 UNL     1     -14.498  38.182 -10.372  1.00  0.00     0.178 HD
ENDBRANCH  45  47
ENDBRANCH  36  45
ENDBRANCH  33  35
ENDBRANCH  11  33
BRANCH   1  50
HETATM   50  N1  UNL     1     -16.109  33.435  -4.620  1.00  0.00    -0.234 N 
ATOM     51  H12 UNL     1     -16.048  33.533  -3.606  1.00  0.00     0.174 HD
ATOM     52  H11 UNL     1     -15.416  32.826  -5.056  1.00  0.00     0.174 HD
ENDBRANCH   1  50
TORSDOF 15
ENDMDL
MODEL 4
REMARK VINA RESULT: -6.664676930      3.517      6.276
REMARK  15 active torsions:
REMARK  status: ('A' for Active; 'I' for Inactive)
REMARK    1  A    between atoms: N1_1  and  C1_4 
REMARK    2  A    between atoms: C3_9  and  N4_10 
REMARK    3  A    between atoms: C4_15  and  N6_16 
REMARK    4  A    between atoms: C7_21  and  N8_22 
REMARK    5  A    between atoms: C8_27  and  N10_28 
REMARK    6  A    between atoms: C10_35  and  N12_36 
REMARK    7  A    between atoms: N12_36  and  C11_38 
REMARK    8  A    between atoms: C11_38  and  C12_39 
REMARK    9  A    between atoms: C12_39  and  C13_40 
REMARK   10  A    between atoms: C13_40  and  C14_41 
REMARK   11  A    between atoms: C14_41  and  C15_42 
REMARK   12  A    between atoms: C15_42  and  C16_43 
REMARK   13  A    between atoms: C16_43  and  O1_44 
REMARK   14  A    between atoms: N13_46  and  N14_48 
REMARK   15  A    between atoms: N14_48  and  N15_50 
ROOT
HETATM    1  C1  UNL     1     -19.925  36.937  -5.689  1.00  0.00     0.691 A 
HETATM    2  N2  UNL     1     -20.189  36.006  -6.623  1.00  0.00    -0.176 N 
ATOM      3  H2  UNL     1     -20.271  35.033  -6.327  1.00  0.00     0.185 HD
HETATM    4  C2  UNL     1     -20.353  36.299  -7.949  1.00  0.00     0.151 A 
HETATM    5  N3  UNL     1     -20.258  37.515  -8.371  1.00  0.00    -0.137 N 
HETATM    6  C3  UNL     1     -19.986  38.491  -7.423  1.00  0.00     0.696 A 
HETATM    7  N5  UNL     1     -19.824  38.232  -6.135  1.00  0.00    -0.022 N 
ATOM      8  H5  UNL     1     -19.624  38.988  -5.479  1.00  0.00     0.203 HD
HETATM    9  C4  UNL     1     -20.448  37.769  -9.783  1.00  0.00     0.284 C 
HETATM   10  S1  UNL     1     -20.104  36.116 -10.460  1.00  0.00    -0.088 SA
HETATM   11  C10 UNL     1     -20.649  35.236  -8.967  1.00  0.00     0.218 C 
ENDROOT
BRANCH   9  12
HETATM   12  N6  UNL     1     -19.585  38.764 -10.341  1.00  0.00    -0.294 N 
HETATM   13  C5  UNL     1     -19.791  40.029 -10.705  1.00  0.00     0.188 A 
HETATM   14  N7  UNL     1     -18.664  40.596 -11.182  1.00  0.00    -0.346 N 
HETATM   15  C6  UNL     1     -17.697  39.669 -11.125  1.00  0.00     0.123 A 
ATOM     16  H7  UNL     1     -18.565  41.552 -11.523  1.00  0.00     0.167 HD
HETATM   17  C7  UNL     1     -16.365  39.705 -11.478  1.00  0.00     0.145 A 
HETATM   18  C9  UNL     1     -18.263  38.531 -10.604  1.00  0.00     0.157 A 
HETATM   19  N9  UNL     1     -15.612  38.605 -11.310  1.00  0.00    -0.175 N 
HETATM   20  C8  UNL     1     -16.156  37.488 -10.802  1.00  0.00     0.679 A 
ATOM     21  H9  UNL     1     -14.625  38.619 -11.567  1.00  0.00     0.186 HD
HETATM   22  N11 UNL     1     -17.474  37.453 -10.452  1.00  0.00    -0.174 N 
ATOM     23  H11 UNL     1     -17.868  36.594 -10.069  1.00  0.00     0.186 HD
BRANCH  17  24
HETATM   24  N8  UNL     1     -15.827  40.795 -11.975  1.00  0.00    -0.383 N 
ATOM     25  H82 UNL     1     -15.101  41.286 -11.453  1.00  0.00     0.157 HD
ATOM     26  H81 UNL     1     -16.124  41.161 -12.880  1.00  0.00     0.157 HD
ENDBRANCH  17  24
BRANCH  20  27
HETATM   27  N10 UNL     1     -15.448  36.429 -10.636  1.00  0.00    -0.234 N 
ATOM     28 2H10 UNL     1     -14.922  36.064 -11.431  1.00  0.00     0.174 HD
ATOM     29 1H10 UNL     1     -15.411  35.963  -9.730  1.00  0.00     0.174 HD
ENDBRANCH  20  27
ENDBRANCH   9  12
BRANCH   6  30
HETATM   30  N4  UNL     1     -19.890  39.720  -7.791  1.00  0.00    -0.234 N 
ATOM     31  H42 UNL     1     -19.789  39.901  -8.789  1.00  0.00     0.174 HD
ATOM     32  H41 UNL     1     -19.911  40.457  -7.085  1.00  0.00     0.174 HD
ENDBRANCH   6  30
BRANCH  11  33
HETATM   33  N12 UNL     1     -19.905  34.042  -8.721  1.00  0.00    -0.358 N 
ATOM     34  H12 UNL     1     -20.381  33.300  -8.207  1.00  0.00     0.162 HD
BRANCH  33  35
HETATM   35  C11 UNL     1     -18.588  33.791  -9.117  1.00  0.00     0.094 C 
HETATM   36  N13 UNL     1     -18.264  33.155 -10.192  1.00  0.00    -0.275 N 
ATOM     37  H13 UNL     1     -17.271  33.026 -10.386  1.00  0.00     0.189 HD
BRANCH  35  38
HETATM   38  C12 UNL     1     -17.488  34.286  -8.247  1.00  0.00     0.077 C 
BRANCH  38  39
HETATM   39  C13 UNL     1     -17.203  33.292  -7.106  1.00  0.00     0.007 C 
BRANCH  39  40
HETATM   40  C14 UNL     1     -17.452  34.075  -5.838  1.00  0.00     0.002 C 
BRANCH  40  41
HETATM   41  C15 UNL     1     -17.058  33.311  -4.612  1.00  0.00     0.026 C 
BRANCH  41  42
HETATM   42  C16 UNL     1     -15.555  33.214  -4.552  1.00  0.00     0.164 C 
BRANCH  42  43
HETATM   43  O1  UNL     1     -15.028  34.504  -4.516  1.00  0.00    -0.401 OA
ATOM     44  H1  UNL     1     -14.558  34.616  -3.699  1.00  0.00     0.209 HD
ENDBRANCH  42  43
ENDBRANCH  41  42
ENDBRANCH  40  41
ENDBRANCH  39  40
ENDBRANCH  38  39
ENDBRANCH  35  38
BRANCH  36  45
HETATM   45  N14 UNL     1     -19.173  32.634 -11.101  1.00  0.00    -0.248 N 
ATOM     46  H14 UNL     1     -19.828  31.930 -10.760  1.00  0.00     0.207 HD
BRANCH  45  47
HETATM   47  N15 UNL     1     -19.262  32.993 -12.437  1.00  0.00    -0.331 N 
ATOM     48 2H15 UNL     1     -18.752  32.407 -13.098  1.00  0.00     0.178 HD
ATOM     49 1H15 UNL     1     -19.791  33.787 -12.798  1.00  0.00     0.178 HD
ENDBRANCH  45  47
ENDBRANCH  36  45
ENDBRANCH  33  35
ENDBRANCH  11  33
BRANCH   1  50
HETATM   50  N1  UNL     1     -19.778  36.686  -4.507  1.00  0.00    -0.234 N 
ATOM     51  H12 UNL     1     -19.015  37.116  -3.984  1.00  0.00     0.174 HD
ATOM     52  H11 UNL     1     -20.384  36.054  -3.983  1.00  0.00     0.174 HD
ENDBRANCH   1  50
TORSDOF 15
ENDMDL
MODEL 5
REMARK VINA RESULT: -6.631116243      2.889      3.704
REMARK  15 active torsions:
REMARK  status: ('A' for Active; 'I' for Inactive)
REMARK    1  A    between atoms: N1_1  and  C1_4 
REMARK    2  A    between atoms: C3_9  and  N4_10 
REMARK    3  A    between atoms: C4_15  and  N6_16 
REMARK    4  A    between atoms: C7_21  and  N8_22 
REMARK    5  A    between atoms: C8_27  and  N10_28 
REMARK    6  A    between atoms: C10_35  and  N12_36 
REMARK    7  A    between atoms: N12_36  and  C11_38 
REMARK    8  A    between atoms: C11_38  and  C12_39 
REMARK    9  A    between atoms: C12_39  and  C13_40 
REMARK   10  A    between atoms: C13_40  and  C14_41 
REMARK   11  A    between atoms: C14_41  and  C15_42 
REMARK   12  A    between atoms: C15_42  and  C16_43 
REMARK   13  A    between atoms: C16_43  and  O1_44 
REMARK   14  A    between atoms: N13_46  and  N14_48 
REMARK   15  A    between atoms: N14_48  and  N15_50 
ROOT
HETATM    1  C1  UNL     1     -17.079  34.155  -6.076  1.00  0.00     0.691 A 
HETATM    2  N2  UNL     1     -17.394  34.296  -7.376  1.00  0.00    -0.176 N 
ATOM      3  H2  UNL     1     -16.771  33.889  -8.073  1.00  0.00     0.185 HD
HETATM    4  C2  UNL     1     -18.510  34.960  -7.809  1.00  0.00     0.151 A 
HETATM    5  N3  UNL     1     -19.327  35.494  -6.965  1.00  0.00    -0.137 N 
HETATM    6  C3  UNL     1     -19.019  35.359  -5.619  1.00  0.00     0.696 A 
HETATM    7  N5  UNL     1     -17.947  34.722  -5.176  1.00  0.00    -0.022 N 
ATOM      8  H5  UNL     1     -17.767  34.652  -4.174  1.00  0.00     0.203 HD
HETATM    9  C4  UNL     1     -20.495  36.177  -7.479  1.00  0.00     0.284 C 
HETATM   10  S1  UNL     1     -19.943  36.535  -9.175  1.00  0.00    -0.088 SA
HETATM   11  C10 UNL     1     -18.835  35.099  -9.268  1.00  0.00     0.218 C 
ENDROOT
BRANCH   9  12
HETATM   12  N6  UNL     1     -20.858  37.367  -6.774  1.00  0.00    -0.294 N 
HETATM   13  C5  UNL     1     -20.208  38.507  -6.541  1.00  0.00     0.188 A 
HETATM   14  N7  UNL     1     -20.960  39.368  -5.825  1.00  0.00    -0.346 N 
HETATM   15  C6  UNL     1     -22.134  38.768  -5.587  1.00  0.00     0.123 A 
ATOM     16  H7  UNL     1     -20.686  40.303  -5.522  1.00  0.00     0.167 HD
HETATM   17  C7  UNL     1     -23.260  39.184  -4.910  1.00  0.00     0.145 A 
HETATM   18  C9  UNL     1     -22.076  37.527  -6.173  1.00  0.00     0.157 A 
HETATM   19  N9  UNL     1     -24.317  38.358  -4.824  1.00  0.00    -0.175 N 
HETATM   20  C8  UNL     1     -24.270  37.144  -5.392  1.00  0.00     0.679 A 
ATOM     21  H9  UNL     1     -25.156  38.655  -4.326  1.00  0.00     0.186 HD
HETATM   22  N11 UNL     1     -23.155  36.732  -6.062  1.00  0.00    -0.174 N 
ATOM     23  H11 UNL     1     -23.140  35.805  -6.487  1.00  0.00     0.186 HD
BRANCH  17  24
HETATM   24  N8  UNL     1     -23.312  40.372  -4.351  1.00  0.00    -0.383 N 
ATOM     25  H82 UNL     1     -22.473  40.771  -3.929  1.00  0.00     0.157 HD
ATOM     26  H81 UNL     1     -24.182  40.905  -4.332  1.00  0.00     0.157 HD
ENDBRANCH  17  24
BRANCH  20  27
HETATM   27  N10 UNL     1     -25.273  36.344  -5.317  1.00  0.00    -0.234 N 
ATOM     28 2H10 UNL     1     -26.163  36.638  -5.719  1.00  0.00     0.174 HD
ATOM     29 1H10 UNL     1     -25.180  35.434  -4.866  1.00  0.00     0.174 HD
ENDBRANCH  20  27
ENDBRANCH   9  12
BRANCH   6  30
HETATM   30  N4  UNL     1     -19.807  35.865  -4.737  1.00  0.00    -0.234 N 
ATOM     31  H42 UNL     1     -20.659  35.347  -4.521  1.00  0.00     0.174 HD
ATOM     32  H41 UNL     1     -19.563  36.752  -4.297  1.00  0.00     0.174 HD
ENDBRANCH   6  30
BRANCH  11  33
HETATM   33  N12 UNL     1     -17.667  35.346 -10.053  1.00  0.00    -0.358 N 
ATOM     34  H12 UNL     1     -17.108  34.534 -10.316  1.00  0.00     0.162 HD
BRANCH  33  35
HETATM   35  C11 UNL     1     -17.216  36.593 -10.495  1.00  0.00     0.094 C 
HETATM   36  N13 UNL     1     -15.980  36.873 -10.735  1.00  0.00    -0.275 N 
ATOM     37  H13 UNL     1     -15.760  37.817 -11.053  1.00  0.00     0.189 HD
BRANCH  35  38
HETATM   38  C12 UNL     1     -18.222  37.669 -10.702  1.00  0.00     0.077 C 
BRANCH  38  39
HETATM   39  C13 UNL     1     -17.699  38.724 -11.694  1.00  0.00     0.007 C 
BRANCH  39  40
HETATM   40  C14 UNL     1     -17.682  40.018 -10.914  1.00  0.00     0.002 C 
BRANCH  40  41
HETATM   41  C15 UNL     1     -16.358  40.713 -10.996  1.00  0.00     0.026 C 
BRANCH  41  42
HETATM   42  C16 UNL     1     -15.402  39.864 -11.794  1.00  0.00     0.164 C 
BRANCH  42  43
HETATM   43  O1  UNL     1     -14.437  39.350 -10.928  1.00  0.00    -0.401 OA
ATOM     44  H1  UNL     1     -14.875  39.007 -10.158  1.00  0.00     0.209 HD
ENDBRANCH  42  43
ENDBRANCH  41  42
ENDBRANCH  40  41
ENDBRANCH  39  40
ENDBRANCH  38  39
ENDBRANCH  35  38
BRANCH  36  45
HETATM   45  N14 UNL     1     -14.929  35.979 -10.590  1.00  0.00    -0.248 N 
ATOM     46  H14 UNL     1     -15.161  35.018 -10.336  1.00  0.00     0.207 HD
BRANCH  45  47
HETATM   47  N15 UNL     1     -13.589  36.286 -10.763  1.00  0.00    -0.331 N 
ATOM     48 2H15 UNL     1     -13.291  36.490 -11.718  1.00  0.00     0.178 HD
ATOM     49 1H15 UNL     1     -12.893  36.322 -10.019  1.00  0.00     0.178 HD
ENDBRANCH  45  47
ENDBRANCH  36  45
ENDBRANCH  33  35
ENDBRANCH  11  33
BRANCH   1  50
HETATM   50  N1  UNL     1     -16.089  33.567  -5.682  1.00  0.00    -0.234 N 
ATOM     51  H12 UNL     1     -15.220  33.615  -6.214  1.00  0.00     0.174 HD
ATOM     52  H11 UNL     1     -16.065  33.010  -4.827  1.00  0.00     0.174 HD
ENDBRANCH   1  50
TORSDOF 15
ENDMDL
