MODEL 1
REMARK VINA RESULT: -8.714295616      0.000      0.000
REMARK  6 active torsions:
REMARK  status: ('A' for Active; 'I' for Inactive)
REMARK    1  A    between atoms: C2_2  and  N1_3 
REMARK       I    between atoms: N1_3  and  C3_5 
REMARK    2  A    between atoms: C3_5  and  C4_7 
REMARK    3  A    between atoms: C5_13  and  N5_14 
REMARK    4  A    between atoms: N5_14  and  C6_16 
REMARK    5  A    between atoms: C7_21  and  N8_22 
REMARK    6  A    between atoms: C9_32  and  C10_33 
ROOT
HETATM    1  C4  UNL     1     -16.679  39.770 -12.456  1.00  0.00     0.148 A 
HETATM    2  N2  UNL     1     -17.800  39.397 -11.751  1.00  0.00    -0.257 N 
ATOM      3  H2  UNL     1     -18.555  40.077 -11.668  1.00  0.00     0.190 HD
HETATM    4  N3  UNL     1     -17.966  38.233 -11.181  1.00  0.00    -0.004 N 
HETATM    5  N4  UNL     1     -18.941  37.669 -10.470  1.00  0.00    -0.095 N 
ATOM      6  H4  UNL     1     -19.824  38.118 -10.227  1.00  0.00     0.208 HD
HETATM    7  C5  UNL     1     -18.590  36.427 -10.120  1.00  0.00     0.728 A 
HETATM    8  N10 UNL     1     -17.375  36.229 -10.630  1.00  0.00    -0.017 N 
ATOM      9  H10 UNL     1     -16.831  35.372 -10.537  1.00  0.00     0.203 HD
HETATM   10  C8  UNL     1     -16.977  37.339 -11.290  1.00  0.00     0.734 A 
HETATM   11  N11 UNL     1     -15.844  37.636 -11.965  1.00  0.00    -0.183 N 
ATOM     12  H11 UNL     1     -15.102  36.939 -12.035  1.00  0.00     0.184 HD
HETATM   13  C9  UNL     1     -15.682  38.872 -12.560  1.00  0.00     0.120 A 
ENDROOT
BRANCH   7  14
HETATM   14  N5  UNL     1     -19.329  35.469  -9.359  1.00  0.00    -0.018 N 
ATOM     15  H5  UNL     1     -20.310  35.272  -9.556  1.00  0.00     0.203 HD
BRANCH  14  16
HETATM   16  C6  UNL     1     -18.690  34.858  -8.399  1.00  0.00     0.726 A 
HETATM   17  N6  UNL     1     -17.899  33.776  -8.495  1.00  0.00    -0.117 N 
HETATM   18  N7  UNL     1     -17.415  33.426  -7.317  1.00  0.00    -0.118 N 
ATOM     19  H6  UNL     1     -17.699  33.286  -9.367  1.00  0.00     0.206 HD
HETATM   20  C7  UNL     1     -17.925  34.325  -6.458  1.00  0.00     0.705 A 
ATOM     21  H7  UNL     1     -16.793  32.645  -7.107  1.00  0.00     0.206 HD
HETATM   22  N9  UNL     1     -18.711  35.212  -7.106  1.00  0.00    -0.019 N 
ATOM     23  H9  UNL     1     -19.219  35.994  -6.695  1.00  0.00     0.203 HD
BRANCH  20  24
HETATM   24  N8  UNL     1     -17.705  34.350  -5.194  1.00  0.00    -0.233 N 
ATOM     25  H82 UNL     1     -17.091  35.022  -4.735  1.00  0.00     0.174 HD
ATOM     26  H81 UNL     1     -18.113  33.711  -4.513  1.00  0.00     0.174 HD
ENDBRANCH  20  24
ENDBRANCH  14  16
ENDBRANCH   7  14
BRANCH   1  27
HETATM   27  C3  UNL     1     -16.661  41.086 -13.003  1.00  0.00     0.272 C 
HETATM   28  N1  UNL     1     -15.982  42.234 -12.548  1.00  0.00    -0.356 N 
ATOM     29  H1  UNL     1     -15.409  42.151 -11.708  1.00  0.00     0.162 HD
HETATM   30  O1  UNL     1     -17.356  41.264 -14.080  1.00  0.00    -0.266 OA
BRANCH  28  31
HETATM   31  C2  UNL     1     -16.050  43.523 -13.200  1.00  0.00     0.118 C 
HETATM   32  C1  UNL     1     -15.312  44.588 -12.446  1.00  0.00     0.026 C 
ENDBRANCH  28  31
ENDBRANCH   1  27
BRANCH  13  33
HETATM   33  C10 UNL     1     -14.428  39.155 -13.211  1.00  0.00     0.291 C 
HETATM   34  O2  UNL     1     -13.280  39.081 -12.765  1.00  0.00    -0.300 OA
ENDBRANCH  13  33
TORSDOF 6
ENDMDL
MODEL 2
REMARK VINA RESULT: -8.522447794      3.496      8.398
REMARK  6 active torsions:
REMARK  status: ('A' for Active; 'I' for Inactive)
REMARK    1  A    between atoms: C2_2  and  N1_3 
REMARK       I    between atoms: N1_3  and  C3_5 
REMARK    2  A    between atoms: C3_5  and  C4_7 
REMARK    3  A    between atoms: C5_13  and  N5_14 
REMARK    4  A    between atoms: N5_14  and  C6_16 
REMARK    5  A    between atoms: C7_21  and  N8_22 
REMARK    6  A    between atoms: C9_32  and  C10_33 
ROOT
HETATM    1  C4  UNL     1     -16.497  34.623  -6.611  1.00  0.00     0.148 A 
HETATM    2  N2  UNL     1     -15.974  34.929  -7.847  1.00  0.00    -0.257 N 
ATOM      3  H2  UNL     1     -14.976  34.772  -7.990  1.00  0.00     0.190 HD
HETATM    4  N3  UNL     1     -16.664  35.407  -8.848  1.00  0.00    -0.004 N 
HETATM    5  N4  UNL     1     -16.375  35.765 -10.098  1.00  0.00    -0.095 N 
ATOM      6  H4  UNL     1     -15.449  35.716 -10.522  1.00  0.00     0.208 HD
HETATM    7  C5  UNL     1     -17.479  36.198 -10.714  1.00  0.00     0.728 A 
HETATM    8  N10 UNL     1     -18.463  36.102  -9.821  1.00  0.00    -0.017 N 
ATOM      9  H10 UNL     1     -19.436  36.358  -9.988  1.00  0.00     0.203 HD
HETATM   10  C8  UNL     1     -17.972  35.614  -8.661  1.00  0.00     0.734 A 
HETATM   11  N11 UNL     1     -18.556  35.339  -7.474  1.00  0.00    -0.183 N 
ATOM     12  H11 UNL     1     -19.555  35.504  -7.352  1.00  0.00     0.184 HD
HETATM   13  C9  UNL     1     -17.813  34.836  -6.423  1.00  0.00     0.120 A 
ENDROOT
BRANCH   7  14
HETATM   14  N5  UNL     1     -17.628  36.676 -12.054  1.00  0.00    -0.018 N 
ATOM     15  H5  UNL     1     -17.831  36.043 -12.827  1.00  0.00     0.203 HD
BRANCH  14  16
HETATM   16  C6  UNL     1     -17.493  37.960 -12.241  1.00  0.00     0.726 A 
HETATM   17  N6  UNL     1     -18.250  38.765 -13.005  1.00  0.00    -0.117 N 
HETATM   18  N7  UNL     1     -17.822  40.014 -12.961  1.00  0.00    -0.118 N 
ATOM     19  H6  UNL     1     -19.053  38.452 -13.549  1.00  0.00     0.206 HD
HETATM   20  C7  UNL     1     -16.759  39.982 -12.139  1.00  0.00     0.705 A 
ATOM     21  H7  UNL     1     -18.213  40.823 -13.445  1.00  0.00     0.206 HD
HETATM   22  N9  UNL     1     -16.542  38.728 -11.688  1.00  0.00    -0.019 N 
ATOM     23  H9  UNL     1     -15.803  38.424 -11.054  1.00  0.00     0.203 HD
BRANCH  20  24
HETATM   24  N8  UNL     1     -16.039  40.995 -11.819  1.00  0.00    -0.233 N 
ATOM     25  H82 UNL     1     -16.347  41.964 -11.904  1.00  0.00     0.174 HD
ATOM     26  H81 UNL     1     -15.092  40.949 -11.446  1.00  0.00     0.174 HD
ENDBRANCH  20  24
ENDBRANCH  14  16
ENDBRANCH   7  14
BRANCH   1  27
HETATM   27  C3  UNL     1     -15.596  34.121  -5.628  1.00  0.00     0.272 C 
HETATM   28  N1  UNL     1     -15.819  33.166  -4.615  1.00  0.00    -0.356 N 
ATOM     29  H1  UNL     1     -16.748  32.750  -4.545  1.00  0.00     0.162 HD
HETATM   30  O1  UNL     1     -14.392  34.594  -5.665  1.00  0.00    -0.266 OA
BRANCH  28  31
HETATM   31  C2  UNL     1     -14.810  32.742  -3.671  1.00  0.00     0.118 C 
HETATM   32  C1  UNL     1     -15.152  33.115  -2.259  1.00  0.00     0.026 C 
ENDBRANCH  28  31
ENDBRANCH   1  27
BRANCH  13  33
HETATM   33  C10 UNL     1     -18.475  34.623  -5.161  1.00  0.00     0.291 C 
HETATM   34  O2  UNL     1     -19.585  35.008  -4.784  1.00  0.00    -0.300 OA
ENDBRANCH  13  33
TORSDOF 6
ENDMDL
MODEL 3
REMARK VINA RESULT: -8.515543632      0.842      1.158
REMARK  6 active torsions:
REMARK  status: ('A' for Active; 'I' for Inactive)
REMARK    1  A    between atoms: C2_2  and  N1_3 
REMARK       I    between atoms: N1_3  and  C3_5 
REMARK    2  A    between atoms: C3_5  and  C4_7 
REMARK    3  A    between atoms: C5_13  and  N5_14 
REMARK    4  A    between atoms: N5_14  and  C6_16 
REMARK    5  A    between atoms: C7_21  and  N8_22 
REMARK    6  A    between atoms: C9_32  and  C10_33 
ROOT
HETATM    1  C4  UNL     1     -16.885  39.199 -12.411  1.00  0.00     0.148 A 
HETATM    2  N2  UNL     1     -17.965  38.777 -11.670  1.00  0.00    -0.257 N 
ATOM      3  H2  UNL     1     -18.807  39.351 -11.692  1.00  0.00     0.190 HD
HETATM    4  N3  UNL     1     -17.987  37.694 -10.940  1.00  0.00    -0.004 N 
HETATM    5  N4  UNL     1     -18.896  37.106 -10.164  1.00  0.00    -0.095 N 
ATOM      6  H4  UNL     1     -19.839  37.458  -9.996  1.00  0.00     0.208 HD
HETATM    7  C5  UNL     1     -18.390  35.986  -9.637  1.00  0.00     0.728 A 
HETATM    8  N10 UNL     1     -17.146  35.888 -10.102  1.00  0.00    -0.017 N 
ATOM      9  H10 UNL     1     -16.493  35.137  -9.882  1.00  0.00     0.203 HD
HETATM   10  C8  UNL     1     -16.883  36.939 -10.911  1.00  0.00     0.734 A 
HETATM   11  N11 UNL     1     -15.782  37.291 -11.611  1.00  0.00    -0.183 N 
ATOM     12  H11 UNL     1     -14.951  36.702 -11.574  1.00  0.00     0.184 HD
HETATM   13  C9  UNL     1     -15.772  38.442 -12.376  1.00  0.00     0.120 A 
ENDROOT
BRANCH   7  14
HETATM   14  N5  UNL     1     -19.013  35.052  -8.752  1.00  0.00    -0.018 N 
ATOM     15  H5  UNL     1     -19.838  34.520  -9.032  1.00  0.00     0.203 HD
BRANCH  14  16
HETATM   16  C6  UNL     1     -18.479  34.911  -7.570  1.00  0.00     0.726 A 
HETATM   17  N6  UNL     1     -19.095  34.951  -6.377  1.00  0.00    -0.117 N 
HETATM   18  N7  UNL     1     -18.242  34.769  -5.386  1.00  0.00    -0.118 N 
ATOM     19  H6  UNL     1     -20.096  35.103  -6.253  1.00  0.00     0.206 HD
HETATM   20  C7  UNL     1     -17.050  34.610  -5.987  1.00  0.00     0.705 A 
ATOM     21  H7  UNL     1     -18.443  34.753  -4.386  1.00  0.00     0.206 HD
HETATM   22  N9  UNL     1     -17.178  34.695  -7.329  1.00  0.00    -0.019 N 
ATOM     23  H9  UNL     1     -16.433  34.612  -8.021  1.00  0.00     0.203 HD
BRANCH  20  24
HETATM   24  N8  UNL     1     -15.937  34.406  -5.384  1.00  0.00    -0.233 N 
ATOM     25  H82 UNL     1     -15.741  34.708  -4.429  1.00  0.00     0.174 HD
ATOM     26  H81 UNL     1     -15.130  33.926  -5.781  1.00  0.00     0.174 HD
ENDBRANCH  20  24
ENDBRANCH  14  16
ENDBRANCH   7  14
BRANCH   1  27
HETATM   27  C3  UNL     1     -17.030  40.415 -13.141  1.00  0.00     0.272 C 
HETATM   28  N1  UNL     1     -16.616  41.718 -12.799  1.00  0.00    -0.356 N 
ATOM     29  H1  UNL     1     -16.138  41.851 -11.907  1.00  0.00     0.162 HD
HETATM   30  O1  UNL     1     -17.616  40.321 -14.291  1.00  0.00    -0.266 OA
BRANCH  28  31
HETATM   31  C2  UNL     1     -16.829  42.877 -13.637  1.00  0.00     0.118 C 
HETATM   32  C1  UNL     1     -15.681  43.840 -13.586  1.00  0.00     0.026 C 
ENDBRANCH  28  31
ENDBRANCH   1  27
BRANCH  13  33
HETATM   33  C10 UNL     1     -14.550  38.801 -13.050  1.00  0.00     0.291 C 
HETATM   34  O2  UNL     1     -13.467  39.149 -12.574  1.00  0.00    -0.300 OA
ENDBRANCH  13  33
TORSDOF 6
ENDMDL
MODEL 4
REMARK VINA RESULT: -8.234380469      3.112      8.207
REMARK  6 active torsions:
REMARK  status: ('A' for Active; 'I' for Inactive)
REMARK    1  A    between atoms: C2_2  and  N1_3 
REMARK       I    between atoms: N1_3  and  C3_5 
REMARK    2  A    between atoms: C3_5  and  C4_7 
REMARK    3  A    between atoms: C5_13  and  N5_14 
REMARK    4  A    between atoms: N5_14  and  C6_16 
REMARK    5  A    between atoms: C7_21  and  N8_22 
REMARK    6  A    between atoms: C9_32  and  C10_33 
ROOT
HETATM    1  C4  UNL     1     -16.967  36.977 -10.658  1.00  0.00     0.148 A 
HETATM    2  N2  UNL     1     -16.101  37.837 -11.293  1.00  0.00    -0.257 N 
ATOM      3  H2  UNL     1     -15.108  37.602 -11.281  1.00  0.00     0.190 HD
HETATM    4  N3  UNL     1     -16.459  38.932 -11.908  1.00  0.00    -0.004 N 
HETATM    5  N4  UNL     1     -15.811  39.887 -12.573  1.00  0.00    -0.095 N 
ATOM      6  H4  UNL     1     -14.803  39.915 -12.724  1.00  0.00     0.208 HD
HETATM    7  C5  UNL     1     -16.679  40.803 -13.015  1.00  0.00     0.728 A 
HETATM    8  N10 UNL     1     -17.882  40.398 -12.611  1.00  0.00    -0.017 N 
ATOM      9  H10 UNL     1     -18.759  40.887 -12.792  1.00  0.00     0.203 HD
HETATM   10  C8  UNL     1     -17.761  39.240 -11.924  1.00  0.00     0.734 A 
HETATM   11  N11 UNL     1     -18.670  38.445 -11.320  1.00  0.00    -0.183 N 
ATOM     12  H11 UNL     1     -19.658  38.699 -11.345  1.00  0.00     0.184 HD
HETATM   13  C9  UNL     1     -18.276  37.290 -10.671  1.00  0.00     0.120 A 
ENDROOT
BRANCH   7  14
HETATM   14  N5  UNL     1     -16.421  41.990 -13.769  1.00  0.00    -0.018 N 
ATOM     15  H5  UNL     1     -16.627  42.045 -14.766  1.00  0.00     0.203 HD
BRANCH  14  16
HETATM   16  C6  UNL     1     -15.910  43.001 -13.122  1.00  0.00     0.726 A 
HETATM   17  N6  UNL     1     -15.808  43.162 -11.792  1.00  0.00    -0.117 N 
HETATM   18  N7  UNL     1     -15.235  44.312 -11.487  1.00  0.00    -0.118 N 
ATOM     19  H6  UNL     1     -16.132  42.482 -11.105  1.00  0.00     0.206 HD
HETATM   20  C7  UNL     1     -14.971  44.887 -12.673  1.00  0.00     0.705 A 
ATOM     21  H7  UNL     1     -15.036  44.681 -10.557  1.00  0.00     0.206 HD
HETATM   22  N9  UNL     1     -15.381  44.095 -13.688  1.00  0.00    -0.019 N 
ATOM     23  H9  UNL     1     -15.303  44.291 -14.686  1.00  0.00     0.203 HD
BRANCH  20  24
HETATM   24  N8  UNL     1     -14.411  46.029 -12.835  1.00  0.00    -0.233 N 
ATOM     25  H82 UNL     1     -14.914  46.917 -12.839  1.00  0.00     0.174 HD
ATOM     26  H81 UNL     1     -13.412  46.181 -12.974  1.00  0.00     0.174 HD
ENDBRANCH  20  24
ENDBRANCH  14  16
ENDBRANCH   7  14
BRANCH   1  27
HETATM   27  C3  UNL     1     -16.402  35.831 -10.025  1.00  0.00     0.272 C 
HETATM   28  N1  UNL     1     -15.995  34.607 -10.592  1.00  0.00    -0.356 N 
ATOM     29  H1  UNL     1     -16.103  34.485 -11.599  1.00  0.00     0.162 HD
HETATM   30  O1  UNL     1     -16.223  35.919  -8.746  1.00  0.00    -0.266 OA
BRANCH  28  31
HETATM   31  C2  UNL     1     -15.434  33.513  -9.829  1.00  0.00     0.118 C 
HETATM   32  C1  UNL     1     -14.697  32.532 -10.691  1.00  0.00     0.026 C 
ENDBRANCH  28  31
ENDBRANCH   1  27
BRANCH  13  33
HETATM   33  C10 UNL     1     -19.282  36.515  -9.989  1.00  0.00     0.291 C 
HETATM   34  O2  UNL     1     -20.164  35.792 -10.459  1.00  0.00    -0.300 OA
ENDBRANCH  13  33
TORSDOF 6
ENDMDL
MODEL 5
REMARK VINA RESULT: -8.033089295      2.648      8.148
REMARK  6 active torsions:
REMARK  status: ('A' for Active; 'I' for Inactive)
REMARK    1  A    between atoms: C2_2  and  N1_3 
REMARK       I    between atoms: N1_3  and  C3_5 
REMARK    2  A    between atoms: C3_5  and  C4_7 
REMARK    3  A    between atoms: C5_13  and  N5_14 
REMARK    4  A    between atoms: N5_14  and  C6_16 
REMARK    5  A    between atoms: C7_21  and  N8_22 
REMARK    6  A    between atoms: C9_32  and  C10_33 
ROOT
HETATM    1  C4  UNL     1     -17.001  37.104 -10.466  1.00  0.00     0.148 A 
HETATM    2  N2  UNL     1     -16.120  37.998 -11.031  1.00  0.00    -0.257 N 
ATOM      3  H2  UNL     1     -15.125  37.848 -10.869  1.00  0.00     0.190 HD
HETATM    4  N3  UNL     1     -16.469  39.024 -11.759  1.00  0.00    -0.004 N 
HETATM    5  N4  UNL     1     -15.807  39.993 -12.390  1.00  0.00    -0.095 N 
ATOM      6  H4  UNL     1     -14.792  40.097 -12.403  1.00  0.00     0.208 HD
HETATM    7  C5  UNL     1     -16.670  40.810 -13.004  1.00  0.00     0.728 A 
HETATM    8  N10 UNL     1     -17.884  40.328 -12.743  1.00  0.00    -0.017 N 
ATOM      9  H10 UNL     1     -18.761  40.731 -13.073  1.00  0.00     0.203 HD
HETATM   10  C8  UNL     1     -17.775  39.223 -11.973  1.00  0.00     0.734 A 
HETATM   11  N11 UNL     1     -18.698  38.388 -11.449  1.00  0.00    -0.183 N 
ATOM     12  H11 UNL     1     -19.689  38.557 -11.624  1.00  0.00     0.184 HD
HETATM   13  C9  UNL     1     -18.315  37.307 -10.678  1.00  0.00     0.120 A 
ENDROOT
BRANCH   7  14
HETATM   14  N5  UNL     1     -16.398  41.972 -13.791  1.00  0.00    -0.018 N 
ATOM     15  H5  UNL     1     -16.594  41.997 -14.792  1.00  0.00     0.203 HD
BRANCH  14  16
HETATM   16  C6  UNL     1     -15.887  42.999 -13.170  1.00  0.00     0.726 A 
HETATM   17  N6  UNL     1     -15.794  43.198 -11.845  1.00  0.00    -0.117 N 
HETATM   18  N7  UNL     1     -15.218  44.353 -11.569  1.00  0.00    -0.118 N 
ATOM     19  H6  UNL     1     -16.126  42.539 -11.141  1.00  0.00     0.206 HD
HETATM   20  C7  UNL     1     -14.944  44.894 -12.769  1.00  0.00     0.705 A 
ATOM     21  H7  UNL     1     -15.025  44.749 -10.648  1.00  0.00     0.206 HD
HETATM   22  N9  UNL     1     -15.349  44.074 -13.764  1.00  0.00    -0.019 N 
ATOM     23  H9  UNL     1     -15.263  44.241 -14.766  1.00  0.00     0.203 HD
BRANCH  20  24
HETATM   24  N8  UNL     1     -14.377  46.028 -12.959  1.00  0.00    -0.233 N 
ATOM     25  H82 UNL     1     -14.877  46.917 -13.000  1.00  0.00     0.174 HD
ATOM     26  H81 UNL     1     -13.377  46.173 -13.089  1.00  0.00     0.174 HD
ENDBRANCH  20  24
ENDBRANCH  14  16
ENDBRANCH   7  14
BRANCH   1  27
HETATM   27  C3  UNL     1     -16.447  36.045  -9.689  1.00  0.00     0.272 C 
HETATM   28  N1  UNL     1     -16.464  35.858  -8.292  1.00  0.00    -0.356 N 
ATOM     29  H1  UNL     1     -16.932  36.561  -7.720  1.00  0.00     0.162 HD
HETATM   30  O1  UNL     1     -15.848  35.108 -10.350  1.00  0.00    -0.266 OA
BRANCH  28  31
HETATM   31  C2  UNL     1     -15.857  34.729  -7.623  1.00  0.00     0.118 C 
HETATM   32  C1  UNL     1     -15.495  35.033  -6.200  1.00  0.00     0.026 C 
ENDBRANCH  28  31
ENDBRANCH   1  27
BRANCH  13  33
HETATM   33  C10 UNL     1     -19.346  36.488 -10.092  1.00  0.00     0.291 C 
HETATM   34  O2  UNL     1     -20.198  35.787 -10.644  1.00  0.00    -0.300 OA
ENDBRANCH  13  33
TORSDOF 6
ENDMDL
