MODEL 1
REMARK VINA RESULT: -8.010716828      0.000      0.000
REMARK  8 active torsions:
REMARK  status: ('A' for Active; 'I' for Inactive)
REMARK    1  A    between atoms: O1_2  and  C2_3 
REMARK    2  A    between atoms: C2_3  and  N2_7 
REMARK    3  A    between atoms: N2_7  and  C3_9 
REMARK    4  A    between atoms: C4_14  and  C5_15 
REMARK       I    between atoms: C5_15  and  N5_17 
REMARK    5  A    between atoms: N5_17  and  N6_19 
REMARK    6  A    between atoms: C6_21  and  C7_22 
REMARK    7  A    between atoms: C7_22  and  C8_24 
REMARK    8  A    between atoms: C8_24  and  O4_26 
ROOT
HETATM    1  C3  UNL     1     -17.777  36.156  -9.927  1.00  0.00     0.701 A 
HETATM    2  N3  UNL     1     -18.845  36.959 -10.152  1.00  0.00    -0.131 N 
ATOM      3  H3  UNL     1     -19.713  36.784  -9.644  1.00  0.00     0.205 HD
HETATM    4  N4  UNL     1     -18.795  37.972 -11.018  1.00  0.00    -0.278 N 
ATOM      5  H4  UNL     1     -19.618  38.556 -11.161  1.00  0.00     0.188 HD
HETATM    6  C4  UNL     1     -17.670  38.231 -11.704  1.00  0.00     0.160 A 
HETATM    7  C10 UNL     1     -16.584  37.413 -11.475  1.00  0.00     0.165 A 
HETATM    8  N7  UNL     1     -15.390  37.641 -12.165  1.00  0.00    -0.079 NA
HETATM    9  N8  UNL     1     -16.648  36.382 -10.588  1.00  0.00    -0.175 N 
ATOM     10  H8  UNL     1     -15.833  35.789 -10.431  1.00  0.00     0.185 HD
ENDROOT
BRANCH   6  11
HETATM   11  C5  UNL     1     -17.563  39.323 -12.660  1.00  0.00     0.291 C 
HETATM   12  O2  UNL     1     -17.998  39.245 -13.815  1.00  0.00    -0.264 OA
HETATM   13  N5  UNL     1     -16.932  40.522 -12.235  1.00  0.00    -0.265 N 
ATOM     14  H5  UNL     1     -16.575  40.588 -11.283  1.00  0.00     0.190 HD
BRANCH  13  15
HETATM   15  N6  UNL     1     -16.791  41.620 -13.101  1.00  0.00    -0.305 N 
HETATM   16  C6  UNL     1     -15.835  42.466 -12.958  1.00  0.00     0.160 C 
ATOM     17  H6  UNL     1     -17.462  41.748 -13.858  1.00  0.00     0.186 HD
BRANCH  16  18
HETATM   18  C7  UNL     1     -15.721  43.581 -13.867  1.00  0.00     0.194 C 
HETATM   19  O3  UNL     1     -16.532  43.653 -14.845  1.00  0.00    -0.289 OA
BRANCH  18  20
HETATM   20  C8  UNL     1     -14.684  44.605 -13.653  1.00  0.00     0.189 C 
HETATM   21  C9  UNL     1     -14.897  45.274 -12.305  1.00  0.00     0.048 C 
BRANCH  20  22
HETATM   22  O4  UNL     1     -14.746  45.523 -14.700  1.00  0.00    -0.388 OA
ATOM     23  H4  UNL     1     -14.136  46.228 -14.518  1.00  0.00     0.210 HD
ENDBRANCH  20  22
ENDBRANCH  18  20
ENDBRANCH  16  18
ENDBRANCH  13  15
ENDBRANCH   6  11
BRANCH   1  24
HETATM   24  N2  UNL     1     -17.948  35.212  -9.069  1.00  0.00    -0.154 N 
ATOM     25  H2  UNL     1     -18.895  35.059  -8.724  1.00  0.00     0.188 HD
BRANCH  24  26
HETATM   26  C2  UNL     1     -16.940  34.377  -8.569  1.00  0.00     0.231 C 
HETATM   27  N1  UNL     1     -16.975  33.083  -8.603  1.00  0.00    -0.365 N 
ATOM     28  H12 UNL     1     -16.241  32.475  -8.239  1.00  0.00     0.159 HD
ATOM     29  H11 UNL     1     -17.798  32.657  -9.028  1.00  0.00     0.159 HD
BRANCH  26  30
HETATM   30  O1  UNL     1     -15.817  34.958  -7.990  1.00  0.00    -0.327 OA
HETATM   31  C1  UNL     1     -15.644  35.047  -6.599  1.00  0.00     0.213 C 
ENDBRANCH  26  30
ENDBRANCH  24  26
ENDBRANCH   1  24
TORSDOF 8
ENDMDL
MODEL 2
REMARK VINA RESULT: -7.832815959      1.485      2.296
REMARK  8 active torsions:
REMARK  status: ('A' for Active; 'I' for Inactive)
REMARK    1  A    between atoms: O1_2  and  C2_3 
REMARK    2  A    between atoms: C2_3  and  N2_7 
REMARK    3  A    between atoms: N2_7  and  C3_9 
REMARK    4  A    between atoms: C4_14  and  C5_15 
REMARK       I    between atoms: C5_15  and  N5_17 
REMARK    5  A    between atoms: N5_17  and  N6_19 
REMARK    6  A    between atoms: C6_21  and  C7_22 
REMARK    7  A    between atoms: C7_22  and  C8_24 
REMARK    8  A    between atoms: C8_24  and  O4_26 
ROOT
HETATM    1  C3  UNL     1     -17.138  34.696  -9.334  1.00  0.00     0.701 A 
HETATM    2  N3  UNL     1     -16.179  34.942 -10.260  1.00  0.00    -0.131 N 
ATOM      3  H3  UNL     1     -15.359  34.337 -10.297  1.00  0.00     0.205 HD
HETATM    4  N4  UNL     1     -16.279  35.954 -11.124  1.00  0.00    -0.278 N 
ATOM      5  H4  UNL     1     -15.538  36.108 -11.808  1.00  0.00     0.188 HD
HETATM    6  C4  UNL     1     -17.344  36.770 -11.103  1.00  0.00     0.160 A 
HETATM    7  C10 UNL     1     -18.319  36.519 -10.160  1.00  0.00     0.165 A 
HETATM    8  N7  UNL     1     -19.447  37.341 -10.098  1.00  0.00    -0.079 NA
HETATM    9  N8  UNL     1     -18.206  35.483  -9.284  1.00  0.00    -0.175 N 
ATOM     10  H8  UNL     1     -18.938  35.313  -8.594  1.00  0.00     0.185 HD
ENDROOT
BRANCH   6  11
HETATM   11  C5  UNL     1     -17.500  37.887 -12.023  1.00  0.00     0.291 C 
HETATM   12  O2  UNL     1     -17.748  37.733 -13.224  1.00  0.00    -0.264 OA
HETATM   13  N5  UNL     1     -17.359  39.202 -11.506  1.00  0.00    -0.265 N 
ATOM     14  H5  UNL     1     -17.155  39.330 -10.515  1.00  0.00     0.190 HD
BRANCH  13  15
HETATM   15  N6  UNL     1     -17.494  40.330 -12.332  1.00  0.00    -0.305 N 
HETATM   16  C6  UNL     1     -16.487  41.075 -12.616  1.00  0.00     0.160 C 
ATOM     17  H6  UNL     1     -18.411  40.563 -12.712  1.00  0.00     0.186 HD
BRANCH  16  18
HETATM   18  C7  UNL     1     -16.664  42.227 -13.469  1.00  0.00     0.194 C 
HETATM   19  O3  UNL     1     -17.392  42.108 -14.506  1.00  0.00    -0.289 OA
BRANCH  18  20
HETATM   20  C8  UNL     1     -16.009  43.502 -13.132  1.00  0.00     0.189 C 
HETATM   21  C9  UNL     1     -15.035  43.883 -14.234  1.00  0.00     0.048 C 
BRANCH  20  22
HETATM   22  O4  UNL     1     -15.367  43.359 -11.903  1.00  0.00    -0.388 OA
ATOM     23  H4  UNL     1     -14.941  44.180 -11.688  1.00  0.00     0.210 HD
ENDBRANCH  20  22
ENDBRANCH  18  20
ENDBRANCH  16  18
ENDBRANCH  13  15
ENDBRANCH   6  11
BRANCH   1  24
HETATM   24  N2  UNL     1     -16.930  33.692  -8.556  1.00  0.00    -0.154 N 
ATOM     25  H2  UNL     1     -16.608  32.826  -8.986  1.00  0.00     0.188 HD
BRANCH  24  26
HETATM   26  C2  UNL     1     -17.111  33.690  -7.166  1.00  0.00     0.231 C 
HETATM   27  N1  UNL     1     -17.458  32.654  -6.473  1.00  0.00    -0.365 N 
ATOM     28  H12 UNL     1     -17.589  32.652  -5.461  1.00  0.00     0.159 HD
ATOM     29  H11 UNL     1     -17.606  31.786  -6.987  1.00  0.00     0.159 HD
BRANCH  26  30
HETATM   30  O1  UNL     1     -16.909  34.873  -6.465  1.00  0.00    -0.327 OA
HETATM   31  C1  UNL     1     -16.241  34.916  -5.229  1.00  0.00     0.213 C 
ENDBRANCH  26  30
ENDBRANCH  24  26
ENDBRANCH   1  24
TORSDOF 8
ENDMDL
MODEL 3
REMARK VINA RESULT: -7.791834452      1.970      8.679
REMARK  8 active torsions:
REMARK  status: ('A' for Active; 'I' for Inactive)
REMARK    1  A    between atoms: O1_2  and  C2_3 
REMARK    2  A    between atoms: C2_3  and  N2_7 
REMARK    3  A    between atoms: N2_7  and  C3_9 
REMARK    4  A    between atoms: C4_14  and  C5_15 
REMARK       I    between atoms: C5_15  and  N5_17 
REMARK    5  A    between atoms: N5_17  and  N6_19 
REMARK    6  A    between atoms: C6_21  and  C7_22 
REMARK    7  A    between atoms: C7_22  and  C8_24 
REMARK    8  A    between atoms: C8_24  and  O4_26 
ROOT
HETATM    1  C3  UNL     1     -16.765  41.443 -13.106  1.00  0.00     0.701 A 
HETATM    2  N3  UNL     1     -16.188  41.211 -11.902  1.00  0.00    -0.131 N 
ATOM      3  H3  UNL     1     -15.837  42.001 -11.361  1.00  0.00     0.205 HD
HETATM    4  N4  UNL     1     -16.066  39.979 -11.405  1.00  0.00    -0.278 N 
ATOM      5  H4  UNL     1     -15.627  39.843 -10.495  1.00  0.00     0.188 HD
HETATM    6  C4  UNL     1     -16.517  38.917 -12.091  1.00  0.00     0.160 A 
HETATM    7  C10 UNL     1     -17.103  39.153 -13.316  1.00  0.00     0.165 A 
HETATM    8  N7  UNL     1     -17.588  38.080 -14.068  1.00  0.00    -0.079 NA
HETATM    9  N8  UNL     1     -17.222  40.415 -13.812  1.00  0.00    -0.175 N 
ATOM     10  H8  UNL     1     -17.661  40.570 -14.720  1.00  0.00     0.185 HD
ENDROOT
BRANCH   6  11
HETATM   11  C5  UNL     1     -16.408  37.554 -11.593  1.00  0.00     0.291 C 
HETATM   12  O2  UNL     1     -15.430  36.833 -11.826  1.00  0.00    -0.264 OA
HETATM   13  N5  UNL     1     -17.474  37.043 -10.807  1.00  0.00    -0.265 N 
ATOM     14  H5  UNL     1     -18.280  37.636 -10.612  1.00  0.00     0.190 HD
BRANCH  13  15
HETATM   15  N6  UNL     1     -17.442  35.736 -10.291  1.00  0.00    -0.305 N 
HETATM   16  C6  UNL     1     -17.521  35.514  -9.028  1.00  0.00     0.160 C 
ATOM     17  H6  UNL     1     -17.353  34.949 -10.932  1.00  0.00     0.186 HD
BRANCH  16  18
HETATM   18  C7  UNL     1     -17.486  34.158  -8.534  1.00  0.00     0.194 C 
HETATM   19  O3  UNL     1     -16.660  33.343  -9.057  1.00  0.00    -0.289 OA
BRANCH  18  20
HETATM   20  C8  UNL     1     -18.393  33.743  -7.451  1.00  0.00     0.189 C 
HETATM   21  C9  UNL     1     -18.939  34.972  -6.743  1.00  0.00     0.048 C 
BRANCH  20  22
HETATM   22  O4  UNL     1     -17.690  32.916  -6.577  1.00  0.00    -0.388 OA
ATOM     23  H4  UNL     1     -17.601  32.060  -6.979  1.00  0.00     0.210 HD
ENDBRANCH  20  22
ENDBRANCH  18  20
ENDBRANCH  16  18
ENDBRANCH  13  15
ENDBRANCH   6  11
BRANCH   1  24
HETATM   24  N2  UNL     1     -16.825  42.673 -13.480  1.00  0.00    -0.154 N 
ATOM     25  H2  UNL     1     -17.729  43.021 -13.799  1.00  0.00     0.188 HD
BRANCH  24  26
HETATM   26  C2  UNL     1     -15.752  43.574 -13.484  1.00  0.00     0.231 C 
HETATM   27  N1  UNL     1     -15.340  44.220 -14.528  1.00  0.00    -0.365 N 
ATOM     28  H12 UNL     1     -14.560  44.876 -14.531  1.00  0.00     0.159 HD
ATOM     29  H11 UNL     1     -15.842  44.051 -15.399  1.00  0.00     0.159 HD
BRANCH  26  30
HETATM   30  O1  UNL     1     -15.069  43.804 -12.296  1.00  0.00    -0.327 OA
HETATM   31  C1  UNL     1     -15.148  45.024 -11.602  1.00  0.00     0.213 C 
ENDBRANCH  26  30
ENDBRANCH  24  26
ENDBRANCH   1  24
TORSDOF 8
ENDMDL
MODEL 4
REMARK VINA RESULT: -7.747897997      1.551      1.859
REMARK  8 active torsions:
REMARK  status: ('A' for Active; 'I' for Inactive)
REMARK    1  A    between atoms: O1_2  and  C2_3 
REMARK    2  A    between atoms: C2_3  and  N2_7 
REMARK    3  A    between atoms: N2_7  and  C3_9 
REMARK    4  A    between atoms: C4_14  and  C5_15 
REMARK       I    between atoms: C5_15  and  N5_17 
REMARK    5  A    between atoms: N5_17  and  N6_19 
REMARK    6  A    between atoms: C6_21  and  C7_22 
REMARK    7  A    between atoms: C7_22  and  C8_24 
REMARK    8  A    between atoms: C8_24  and  O4_26 
ROOT
HETATM    1  C3  UNL     1     -18.206  35.369  -9.225  1.00  0.00     0.701 A 
HETATM    2  N3  UNL     1     -19.193  36.262  -9.479  1.00  0.00    -0.131 N 
ATOM      3  H3  UNL     1     -20.056  36.216  -8.937  1.00  0.00     0.205 HD
HETATM    4  N4  UNL     1     -19.068  37.202 -10.418  1.00  0.00    -0.278 N 
ATOM      5  H4  UNL     1     -19.832  37.858 -10.581  1.00  0.00     0.188 HD
HETATM    6  C4  UNL     1     -17.947  37.292 -11.151  1.00  0.00     0.160 A 
HETATM    7  C10 UNL     1     -16.944  36.383 -10.893  1.00  0.00     0.165 A 
HETATM    8  N7  UNL     1     -15.757  36.435 -11.628  1.00  0.00    -0.079 NA
HETATM    9  N8  UNL     1     -17.083  35.429  -9.931  1.00  0.00    -0.175 N 
ATOM     10  H8  UNL     1     -16.329  34.765  -9.753  1.00  0.00     0.185 HD
ENDROOT
BRANCH   6  11
HETATM   11  C5  UNL     1     -17.761  38.298 -12.186  1.00  0.00     0.291 C 
HETATM   12  O2  UNL     1     -17.807  38.031 -13.393  1.00  0.00    -0.264 OA
HETATM   13  N5  UNL     1     -17.519  39.637 -11.781  1.00  0.00    -0.265 N 
ATOM     14  H5  UNL     1     -17.482  39.859 -10.786  1.00  0.00     0.190 HD
BRANCH  13  15
HETATM   15  N6  UNL     1     -17.330  40.663 -12.722  1.00  0.00    -0.305 N 
HETATM   16  C6  UNL     1     -16.276  41.397 -12.707  1.00  0.00     0.160 C 
ATOM     17  H6  UNL     1     -18.043  40.828 -13.431  1.00  0.00     0.186 HD
BRANCH  16  18
HETATM   18  C7  UNL     1     -16.115  42.442 -13.690  1.00  0.00     0.194 C 
HETATM   19  O3  UNL     1     -14.980  43.006 -13.796  1.00  0.00    -0.289 OA
BRANCH  18  20
HETATM   20  C8  UNL     1     -17.250  42.833 -14.543  1.00  0.00     0.189 C 
HETATM   21  C9  UNL     1     -16.762  43.744 -15.657  1.00  0.00     0.048 C 
BRANCH  20  22
HETATM   22  O4  UNL     1     -18.207  43.461 -13.746  1.00  0.00    -0.388 OA
ATOM     23  H4  UNL     1     -17.845  44.280 -13.430  1.00  0.00     0.210 HD
ENDBRANCH  20  22
ENDBRANCH  18  20
ENDBRANCH  16  18
ENDBRANCH  13  15
ENDBRANCH   6  11
BRANCH   1  24
HETATM   24  N2  UNL     1     -18.444  34.511  -8.296  1.00  0.00    -0.154 N 
ATOM     25  H2  UNL     1     -19.386  34.124  -8.246  1.00  0.00     0.188 HD
BRANCH  24  26
HETATM   26  C2  UNL     1     -17.514  34.062  -7.347  1.00  0.00     0.231 C 
HETATM   27  N1  UNL     1     -17.666  33.006  -6.615  1.00  0.00    -0.365 N 
ATOM     28  H12 UNL     1     -16.989  32.679  -5.925  1.00  0.00     0.159 HD
ATOM     29  H11 UNL     1     -18.524  32.473  -6.750  1.00  0.00     0.159 HD
BRANCH  26  30
HETATM   30  O1  UNL     1     -16.344  34.789  -7.164  1.00  0.00    -0.327 OA
HETATM   31  C1  UNL     1     -15.833  35.090  -5.891  1.00  0.00     0.213 C 
ENDBRANCH  26  30
ENDBRANCH  24  26
ENDBRANCH   1  24
TORSDOF 8
ENDMDL
MODEL 5
REMARK VINA RESULT: -7.735639634      1.911      8.782
REMARK  8 active torsions:
REMARK  status: ('A' for Active; 'I' for Inactive)
REMARK    1  A    between atoms: O1_2  and  C2_3 
REMARK    2  A    between atoms: C2_3  and  N2_7 
REMARK    3  A    between atoms: N2_7  and  C3_9 
REMARK    4  A    between atoms: C4_14  and  C5_15 
REMARK       I    between atoms: C5_15  and  N5_17 
REMARK    5  A    between atoms: N5_17  and  N6_19 
REMARK    6  A    between atoms: C6_21  and  C7_22 
REMARK    7  A    between atoms: C7_22  and  C8_24 
REMARK    8  A    between atoms: C8_24  and  O4_26 
ROOT
HETATM    1  C3  UNL     1     -16.312  41.261 -12.522  1.00  0.00     0.701 A 
HETATM    2  N3  UNL     1     -16.203  41.029 -11.191  1.00  0.00    -0.131 N 
ATOM      3  H3  UNL     1     -15.805  41.752 -10.592  1.00  0.00     0.205 HD
HETATM    4  N4  UNL     1     -16.603  39.881 -10.641  1.00  0.00    -0.278 N 
ATOM      5  H4  UNL     1     -16.506  39.742  -9.636  1.00  0.00     0.188 HD
HETATM    6  C4  UNL     1     -17.130  38.906 -11.400  1.00  0.00     0.160 A 
HETATM    7  C10 UNL     1     -17.239  39.143 -12.753  1.00  0.00     0.165 A 
HETATM    8  N7  UNL     1     -17.782  38.160 -13.585  1.00  0.00    -0.079 NA
HETATM    9  N8  UNL     1     -16.829  40.319 -13.302  1.00  0.00    -0.175 N 
ATOM     10  H8  UNL     1     -16.919  40.476 -14.306  1.00  0.00     0.185 HD
ENDROOT
BRANCH   6  11
HETATM   11  C5  UNL     1     -17.580  37.636 -10.849  1.00  0.00     0.291 C 
HETATM   12  O2  UNL     1     -18.736  37.452 -10.451  1.00  0.00    -0.264 OA
HETATM   13  N5  UNL     1     -16.643  36.572 -10.774  1.00  0.00    -0.265 N 
ATOM     14  H5  UNL     1     -15.690  36.722 -11.104  1.00  0.00     0.190 HD
BRANCH  13  15
HETATM   15  N6  UNL     1     -17.002  35.317 -10.255  1.00  0.00    -0.305 N 
HETATM   16  C6  UNL     1     -16.864  35.045  -9.008  1.00  0.00     0.160 C 
ATOM     17  H6  UNL     1     -17.379  34.607 -10.882  1.00  0.00     0.186 HD
BRANCH  16  18
HETATM   18  C7  UNL     1     -17.244  33.744  -8.510  1.00  0.00     0.194 C 
HETATM   19  O3  UNL     1     -16.660  32.718  -8.984  1.00  0.00    -0.289 OA
BRANCH  18  20
HETATM   20  C8  UNL     1     -18.287  33.626  -7.477  1.00  0.00     0.189 C 
HETATM   21  C9  UNL     1     -18.819  35.006  -7.127  1.00  0.00     0.048 C 
BRANCH  20  22
HETATM   22  O4  UNL     1     -17.740  32.987  -6.366  1.00  0.00    -0.388 OA
ATOM     23  H4  UNL     1     -18.448  32.715  -5.795  1.00  0.00     0.210 HD
ENDBRANCH  20  22
ENDBRANCH  18  20
ENDBRANCH  16  18
ENDBRANCH  13  15
ENDBRANCH   6  11
BRANCH   1  24
HETATM   24  N2  UNL     1     -15.893  42.406 -12.934  1.00  0.00    -0.154 N 
ATOM     25  H2  UNL     1     -15.025  42.759 -12.531  1.00  0.00     0.188 HD
BRANCH  24  26
HETATM   26  C2  UNL     1     -16.529  43.208 -13.891  1.00  0.00     0.231 C 
HETATM   27  N1  UNL     1     -17.778  43.543 -13.853  1.00  0.00    -0.365 N 
ATOM     28  H12 UNL     1     -18.242  44.127 -14.550  1.00  0.00     0.159 HD
ATOM     29  H11 UNL     1     -18.324  43.194 -13.066  1.00  0.00     0.159 HD
BRANCH  26  30
HETATM   30  O1  UNL     1     -15.784  43.685 -14.963  1.00  0.00    -0.327 OA
HETATM   31  C1  UNL     1     -14.622  44.456 -14.793  1.00  0.00     0.213 C 
ENDBRANCH  26  30
ENDBRANCH  24  26
ENDBRANCH   1  24
TORSDOF 8
ENDMDL
