MODEL 1
REMARK VINA RESULT: -7.427519376      0.000      0.000
REMARK  4 active torsions:
REMARK  status: ('A' for Active; 'I' for Inactive)
REMARK       I    between atoms: C2_2  and  N1_4 
REMARK    1  A    between atoms: N1_4  and  C3_6 
REMARK    2  A    between atoms: C4_11  and  S1_12 
REMARK    3  A    between atoms: S1_12  and  N4_15 
REMARK    4  A    between atoms: N4_15  and  N5_17 
ROOT
HETATM    1  C3  UNL     1     -17.105  37.709 -10.444  1.00  0.00     0.168 A 
HETATM    2  N2  UNL     1     -18.241  38.371 -10.687  1.00  0.00    -0.278 N 
ATOM      3  H2  UNL     1     -18.998  38.374 -10.004  1.00  0.00     0.189 HD
HETATM    4  N3  UNL     1     -18.357  38.997 -11.788  1.00  0.00    -0.281 N 
ATOM      5  H3  UNL     1     -19.216  39.509 -11.994  1.00  0.00     0.188 HD
HETATM    6  C4  UNL     1     -17.367  38.987 -12.668  1.00  0.00     0.210 A 
HETATM    7  S2  UNL     1     -16.207  38.022 -11.863  1.00  0.00    -0.020 SA
ENDROOT
BRANCH   6   8
HETATM    8  S1  UNL     1     -17.284  39.770 -14.252  1.00  0.00     0.299 S 
HETATM    9  O2  UNL     1     -17.604  38.706 -15.265  1.00  0.00    -0.197 OA
HETATM   10  O3  UNL     1     -15.893  40.275 -14.480  1.00  0.00    -0.197 OA
BRANCH   8  11
HETATM   11  N4  UNL     1     -18.413  41.046 -14.271  1.00  0.00    -0.228 N 
ATOM     12  H4  UNL     1     -19.344  40.966 -14.681  1.00  0.00     0.199 HD
BRANCH  11  13
HETATM   13  N5  UNL     1     -17.934  42.212 -13.669  1.00  0.00    -0.336 N 
ATOM     14  H52 UNL     1     -17.003  42.275 -13.258  1.00  0.00     0.177 HD
ATOM     15  H51 UNL     1     -18.608  42.978 -13.686  1.00  0.00     0.177 HD
ENDBRANCH  11  13
ENDBRANCH   8  11
ENDBRANCH   6   8
BRANCH   1  16
HETATM   16  N1  UNL     1     -16.795  37.010  -9.377  1.00  0.00    -0.306 N 
HETATM   17  C2  UNL     1     -17.573  35.844  -9.151  1.00  0.00     0.219 C 
HETATM   18  C1  UNL     1     -18.961  35.902  -8.634  1.00  0.00     0.117 C 
HETATM   19  O1  UNL     1     -17.083  34.724  -9.393  1.00  0.00    -0.274 OA
ATOM     20  H1  UNL     1     -16.041  37.287  -8.749  1.00  0.00     0.171 HD
ENDBRANCH   1  16
TORSDOF 4
ENDMDL
MODEL 2
REMARK VINA RESULT: -7.325861524      2.977      3.740
REMARK  4 active torsions:
REMARK  status: ('A' for Active; 'I' for Inactive)
REMARK       I    between atoms: C2_2  and  N1_4 
REMARK    1  A    between atoms: N1_4  and  C3_6 
REMARK    2  A    between atoms: C4_11  and  S1_12 
REMARK    3  A    between atoms: S1_12  and  N4_15 
REMARK    4  A    between atoms: N4_15  and  N5_17 
ROOT
HETATM    1  C3  UNL     1     -18.251  35.128  -8.133  1.00  0.00     0.168 A 
HETATM    2  N2  UNL     1     -19.154  35.985  -8.617  1.00  0.00    -0.278 N 
ATOM      3  H2  UNL     1     -20.094  36.028  -8.223  1.00  0.00     0.189 HD
HETATM    4  N3  UNL     1     -18.818  36.745  -9.580  1.00  0.00    -0.281 N 
ATOM      5  H3  UNL     1     -19.493  37.407  -9.964  1.00  0.00     0.188 HD
HETATM    6  C4  UNL     1     -17.596  36.681 -10.084  1.00  0.00     0.210 A 
HETATM    7  S2  UNL     1     -16.894  35.457  -9.117  1.00  0.00    -0.020 SA
ENDROOT
BRANCH   6   8
HETATM    8  S1  UNL     1     -16.891  37.618 -11.408  1.00  0.00     0.299 S 
HETATM    9  O2  UNL     1     -17.840  37.490 -12.567  1.00  0.00    -0.197 OA
HETATM   10  O3  UNL     1     -15.567  37.029 -11.779  1.00  0.00    -0.197 OA
BRANCH   8  11
HETATM   11  N4  UNL     1     -16.723  39.230 -10.883  1.00  0.00    -0.228 N 
ATOM     12  H4  UNL     1     -16.997  39.551  -9.954  1.00  0.00     0.199 HD
BRANCH  11  13
HETATM   13  N5  UNL     1     -16.169  40.069 -11.854  1.00  0.00    -0.336 N 
ATOM     14  H52 UNL     1     -16.653  40.298 -12.721  1.00  0.00     0.177 HD
ATOM     15  H51 UNL     1     -15.245  40.419 -11.601  1.00  0.00     0.177 HD
ENDBRANCH  11  13
ENDBRANCH   8  11
ENDBRANCH   6   8
BRANCH   1  16
HETATM   16  N1  UNL     1     -18.402  34.268  -7.151  1.00  0.00    -0.306 N 
HETATM   17  C2  UNL     1     -18.145  34.765  -5.846  1.00  0.00     0.219 C 
HETATM   18  C1  UNL     1     -16.771  35.005  -5.343  1.00  0.00     0.117 C 
HETATM   19  O1  UNL     1     -19.101  35.014  -5.086  1.00  0.00    -0.274 OA
ATOM     20  H1  UNL     1     -18.687  33.304  -7.316  1.00  0.00     0.171 HD
ENDBRANCH   1  16
TORSDOF 4
ENDMDL
MODEL 3
REMARK VINA RESULT: -7.259877657      2.832      3.770
REMARK  4 active torsions:
REMARK  status: ('A' for Active; 'I' for Inactive)
REMARK       I    between atoms: C2_2  and  N1_4 
REMARK    1  A    between atoms: N1_4  and  C3_6 
REMARK    2  A    between atoms: C4_11  and  S1_12 
REMARK    3  A    between atoms: S1_12  and  N4_15 
REMARK    4  A    between atoms: N4_15  and  N5_17 
ROOT
HETATM    1  C3  UNL     1     -17.608  34.787  -8.498  1.00  0.00     0.168 A 
HETATM    2  N2  UNL     1     -16.466  34.585  -9.161  1.00  0.00    -0.278 N 
ATOM      3  H2  UNL     1     -15.865  33.794  -8.933  1.00  0.00     0.189 HD
HETATM    4  N3  UNL     1     -16.144  35.400 -10.083  1.00  0.00    -0.281 N 
ATOM      5  H3  UNL     1     -15.276  35.264 -10.602  1.00  0.00     0.188 HD
HETATM    6  C4  UNL     1     -16.932  36.424 -10.372  1.00  0.00     0.210 A 
HETATM    7  S2  UNL     1     -18.205  36.199  -9.252  1.00  0.00    -0.020 SA
ENDROOT
BRANCH   6   8
HETATM    8  S1  UNL     1     -16.712  37.683 -11.594  1.00  0.00     0.299 S 
HETATM    9  O2  UNL     1     -17.762  37.441 -12.644  1.00  0.00    -0.197 OA
HETATM   10  O3  UNL     1     -15.353  37.544 -12.206  1.00  0.00    -0.197 OA
BRANCH   8  11
HETATM   11  N4  UNL     1     -16.892  39.197 -10.833  1.00  0.00    -0.228 N 
ATOM     12  H4  UNL     1     -17.438  39.337  -9.982  1.00  0.00     0.199 HD
BRANCH  11  13
HETATM   13  N5  UNL     1     -16.217  40.227 -11.492  1.00  0.00    -0.336 N 
ATOM     14  H52 UNL     1     -15.935  41.087 -11.023  1.00  0.00     0.177 HD
ATOM     15  H51 UNL     1     -16.043  40.025 -12.477  1.00  0.00     0.177 HD
ENDBRANCH  11  13
ENDBRANCH   8  11
ENDBRANCH   6   8
BRANCH   1  16
HETATM   16  N1  UNL     1     -18.111  34.064  -7.523  1.00  0.00    -0.306 N 
HETATM   17  C2  UNL     1     -18.132  34.678  -6.244  1.00  0.00     0.219 C 
HETATM   18  C1  UNL     1     -16.912  34.835  -5.416  1.00  0.00     0.117 C 
HETATM   19  O1  UNL     1     -19.210  35.106  -5.787  1.00  0.00    -0.274 OA
ATOM     20  H1  UNL     1     -18.464  33.120  -7.676  1.00  0.00     0.171 HD
ENDBRANCH   1  16
TORSDOF 4
ENDMDL
MODEL 4
REMARK VINA RESULT: -7.226625212      1.356      1.558
REMARK  4 active torsions:
REMARK  status: ('A' for Active; 'I' for Inactive)
REMARK       I    between atoms: C2_2  and  N1_4 
REMARK    1  A    between atoms: N1_4  and  C3_6 
REMARK    2  A    between atoms: C4_11  and  S1_12 
REMARK    3  A    between atoms: S1_12  and  N4_15 
REMARK    4  A    between atoms: N4_15  and  N5_17 
ROOT
HETATM    1  C3  UNL     1     -17.743  36.851 -10.074  1.00  0.00     0.168 A 
HETATM    2  N2  UNL     1     -18.615  37.814 -10.386  1.00  0.00    -0.278 N 
ATOM      3  H2  UNL     1     -19.457  37.953  -9.828  1.00  0.00     0.189 HD
HETATM    4  N3  UNL     1     -18.374  38.552 -11.393  1.00  0.00    -0.281 N 
ATOM      5  H3  UNL     1     -19.027  39.293 -11.648  1.00  0.00     0.188 HD
HETATM    6  C4  UNL     1     -17.277  38.362 -12.110  1.00  0.00     0.210 A 
HETATM    7  S2  UNL     1     -16.557  37.047 -11.288  1.00  0.00    -0.020 SA
ENDROOT
BRANCH   6   8
HETATM    8  S1  UNL     1     -16.720  39.244 -13.539  1.00  0.00     0.299 S 
HETATM    9  O2  UNL     1     -17.488  38.686 -14.705  1.00  0.00    -0.197 OA
HETATM   10  O3  UNL     1     -15.259  38.990 -13.736  1.00  0.00    -0.197 OA
BRANCH   8  11
HETATM   11  N4  UNL     1     -17.029  40.901 -13.291  1.00  0.00    -0.228 N 
ATOM     12  H4  UNL     1     -16.340  41.551 -12.914  1.00  0.00     0.199 HD
BRANCH  11  13
HETATM   13  N5  UNL     1     -18.323  41.279 -13.658  1.00  0.00    -0.336 N 
ATOM     14  H52 UNL     1     -18.769  40.951 -14.514  1.00  0.00     0.177 HD
ATOM     15  H51 UNL     1     -18.763  41.907 -12.985  1.00  0.00     0.177 HD
ENDBRANCH  11  13
ENDBRANCH   8  11
ENDBRANCH   6   8
BRANCH   1  16
HETATM   16  N1  UNL     1     -17.812  35.993  -9.082  1.00  0.00    -0.306 N 
HETATM   17  C2  UNL     1     -16.575  35.456  -8.638  1.00  0.00     0.219 C 
HETATM   18  C1  UNL     1     -15.838  34.421  -9.401  1.00  0.00     0.117 C 
HETATM   19  O1  UNL     1     -16.079  35.862  -7.569  1.00  0.00    -0.274 OA
ATOM     20  H1  UNL     1     -18.700  35.728  -8.656  1.00  0.00     0.171 HD
ENDBRANCH   1  16
TORSDOF 4
ENDMDL
MODEL 5
REMARK VINA RESULT: -6.932340681      2.488      3.253
REMARK  4 active torsions:
REMARK  status: ('A' for Active; 'I' for Inactive)
REMARK       I    between atoms: C2_2  and  N1_4 
REMARK    1  A    between atoms: N1_4  and  C3_6 
REMARK    2  A    between atoms: C4_11  and  S1_12 
REMARK    3  A    between atoms: S1_12  and  N4_15 
REMARK    4  A    between atoms: N4_15  and  N5_17 
ROOT
HETATM    1  C3  UNL     1     -16.808  35.009  -9.250  1.00  0.00     0.168 A 
HETATM    2  N2  UNL     1     -15.981  34.748 -10.267  1.00  0.00    -0.278 N 
ATOM      3  H2  UNL     1     -15.504  33.849 -10.331  1.00  0.00     0.189 HD
HETATM    4  N3  UNL     1     -15.802  35.643 -11.153  1.00  0.00    -0.281 N 
ATOM      5  H3  UNL     1     -15.175  35.463 -11.937  1.00  0.00     0.188 HD
HETATM    6  C4  UNL     1     -16.428  36.806 -11.059  1.00  0.00     0.210 A 
HETATM    7  S2  UNL     1     -17.320  36.597  -9.616  1.00  0.00    -0.020 SA
ENDROOT
BRANCH   6   8
HETATM    8  S1  UNL     1     -16.348  38.198 -12.148  1.00  0.00     0.299 S 
HETATM    9  O2  UNL     1     -17.446  38.007 -13.158  1.00  0.00    -0.197 OA
HETATM   10  O3  UNL     1     -15.024  38.204 -12.846  1.00  0.00    -0.197 OA
BRANCH   8  11
HETATM   11  N4  UNL     1     -16.560  39.610 -11.218  1.00  0.00    -0.228 N 
ATOM     12  H4  UNL     1     -17.136  39.647 -10.377  1.00  0.00     0.199 HD
BRANCH  11  13
HETATM   13  N5  UNL     1     -15.866  40.711 -11.726  1.00  0.00    -0.336 N 
ATOM     14  H52 UNL     1     -15.491  40.734 -12.674  1.00  0.00     0.177 HD
ATOM     15  H51 UNL     1     -15.778  41.473 -11.054  1.00  0.00     0.177 HD
ENDBRANCH  11  13
ENDBRANCH   8  11
ENDBRANCH   6   8
BRANCH   1  16
HETATM   16  N1  UNL     1     -17.121  34.224  -8.245  1.00  0.00    -0.306 N 
HETATM   17  C2  UNL     1     -17.180  34.841  -6.969  1.00  0.00     0.219 C 
HETATM   18  C1  UNL     1     -15.962  35.221  -6.212  1.00  0.00     0.117 C 
HETATM   19  O1  UNL     1     -18.289  35.080  -6.454  1.00  0.00    -0.274 OA
ATOM     20  H1  UNL     1     -17.311  33.230  -8.375  1.00  0.00     0.171 HD
ENDBRANCH   1  16
TORSDOF 4
ENDMDL
