MODEL 1
REMARK VINA RESULT: -7.275769552      0.000      0.000
REMARK  15 active torsions:
REMARK  status: ('A' for Active; 'I' for Inactive)
REMARK    1  A    between atoms: C2_2  and  C3_3 
REMARK    2  A    between atoms: C3_3  and  C4_4 
REMARK    3  A    between atoms: C4_4  and  O1_5 
REMARK    4  A    between atoms: O1_5  and  C5_6 
REMARK    5  A    between atoms: C6_7  and  O2_8 
REMARK    6  A    between atoms: C9_12  and  O3_13 
REMARK    7  A    between atoms: C9_12  and  C10_15 
REMARK    8  A    between atoms: C10_15  and  C11_16 
REMARK    9  A    between atoms: C16_21  and  O4_22 
REMARK   10  A    between atoms: O4_22  and  C17_23 
REMARK   11  A    between atoms: C17_23  and  C18_25 
REMARK   12  A    between atoms: C18_25  and  C19_26 
REMARK   13  A    between atoms: C19_26  and  C20_27 
REMARK   14  A    between atoms: C24_31  and  C25_32 
REMARK   15  A    between atoms: C25_32  and  O6_33 
ROOT
HETATM    1  C11 UNL     1      29.865  41.805  35.988  1.00  0.00    -0.011 C 
HETATM    2  C12 UNL     1      29.993  43.044  36.900  1.00  0.00     0.005 C 
HETATM    3  C13 UNL     1      29.955  42.454  38.322  1.00  0.00     0.006 C 
HETATM    4  C14 UNL     1      29.025  41.331  38.371  1.00  0.00    -0.001 C 
HETATM    5  C15 UNL     1      28.747  40.909  39.830  1.00  0.00     0.039 C 
HETATM    6  C16 UNL     1      29.886  39.889  39.617  1.00  0.00     0.141 C 
HETATM    7  C22 UNL     1      29.505  39.937  38.182  1.00  0.00    -0.008 C 
HETATM    8  C23 UNL     1      28.244  39.047  38.028  1.00  0.00     0.019 C 
HETATM    9  C24 UNL     1      30.464  39.684  37.106  1.00  0.00     0.021 C 
HETATM   10  C26 UNL     1      31.014  40.934  36.447  1.00  0.00     0.012 C 
ENDROOT
BRANCH   1  11
HETATM   11  C10 UNL     1      29.936  42.262  34.575  1.00  0.00     0.045 C 
BRANCH  11  12
HETATM   12  C9  UNL     1      28.649  42.548  33.894  1.00  0.00     0.087 C 
HETATM   13  C5  UNL     1      28.870  42.389  32.379  1.00  0.00     0.184 C 
HETATM   14  C6  UNL     1      29.801  43.511  32.065  1.00  0.00     0.150 C 
HETATM   15  C7  UNL     1      29.434  44.628  32.999  1.00  0.00     0.037 C 
HETATM   16  C8  UNL     1      28.356  44.069  33.908  1.00  0.00     0.043 C 
BRANCH  13  17
HETATM   17  O1  UNL     1      27.613  42.489  31.763  1.00  0.00    -0.380 OA
BRANCH  17  18
HETATM   18  C4  UNL     1      27.439  41.375  30.972  1.00  0.00     0.168 C 
BRANCH  18  19
HETATM   19  C3  UNL     1      26.597  41.690  29.771  1.00  0.00     0.026 C 
BRANCH  19  20
HETATM   20  C2  UNL     1      27.000  42.955  29.114  1.00  0.00    -0.002 C 
HETATM   21  C1  UNL     1      27.768  42.799  27.826  1.00  0.00     0.005 C 
ENDBRANCH  19  20
ENDBRANCH  18  19
ENDBRANCH  17  18
ENDBRANCH  13  17
BRANCH  14  22
HETATM   22  O2  UNL     1      29.748  43.903  30.727  1.00  0.00    -0.393 OA
ATOM     23  H2  UNL     1      29.231  44.689  30.592  1.00  0.00     0.210 HD
ENDBRANCH  14  22
BRANCH  12  24
HETATM   24  O3  UNL     1      27.546  41.849  34.302  1.00  0.00    -0.387 OA
ATOM     25  H3  UNL     1      26.761  42.377  34.218  1.00  0.00     0.210 HD
ENDBRANCH  12  24
ENDBRANCH  11  12
ENDBRANCH   1  11
BRANCH   9  26
HETATM   26  C25 UNL     1      31.636  38.792  37.410  1.00  0.00     0.169 C 
BRANCH  26  27
HETATM   27  O6  UNL     1      32.757  39.524  37.841  1.00  0.00    -0.400 OA
ATOM     28  H6  UNL     1      32.585  39.992  38.649  1.00  0.00     0.209 HD
ENDBRANCH  26  27
ENDBRANCH   9  26
BRANCH   6  29
HETATM   29  O4  UNL     1      31.116  40.308  40.053  1.00  0.00    -0.315 OA
BRANCH  29  30
HETATM   30  C17 UNL     1      31.792  39.638  41.083  1.00  0.00     0.259 C 
HETATM   31  O5  UNL     1      31.417  38.494  41.311  1.00  0.00    -0.265 OA
BRANCH  30  32
HETATM   32  C18 UNL     1      32.876  40.280  41.829  1.00  0.00     0.111 C 
BRANCH  32  33
HETATM   33  C19 UNL     1      32.771  41.741  41.992  1.00  0.00     0.009 C 
BRANCH  33  34
HETATM   34  C20 UNL     1      32.204  42.346  43.199  1.00  0.00    -0.004 C 
HETATM   35  C21 UNL     1      31.225  41.654  44.052  1.00  0.00     0.005 C 
ENDBRANCH  33  34
ENDBRANCH  32  33
ENDBRANCH  30  32
ENDBRANCH  29  30
ENDBRANCH   6  29
TORSDOF 15
ENDMDL
MODEL 2
REMARK VINA RESULT: -7.031207414      2.695      9.167
REMARK  15 active torsions:
REMARK  status: ('A' for Active; 'I' for Inactive)
REMARK    1  A    between atoms: C2_2  and  C3_3 
REMARK    2  A    between atoms: C3_3  and  C4_4 
REMARK    3  A    between atoms: C4_4  and  O1_5 
REMARK    4  A    between atoms: O1_5  and  C5_6 
REMARK    5  A    between atoms: C6_7  and  O2_8 
REMARK    6  A    between atoms: C9_12  and  O3_13 
REMARK    7  A    between atoms: C9_12  and  C10_15 
REMARK    8  A    between atoms: C10_15  and  C11_16 
REMARK    9  A    between atoms: C16_21  and  O4_22 
REMARK   10  A    between atoms: O4_22  and  C17_23 
REMARK   11  A    between atoms: C17_23  and  C18_25 
REMARK   12  A    between atoms: C18_25  and  C19_26 
REMARK   13  A    between atoms: C19_26  and  C20_27 
REMARK   14  A    between atoms: C24_31  and  C25_32 
REMARK   15  A    between atoms: C25_32  and  O6_33 
ROOT
HETATM    1  C11 UNL     1      29.097  40.111  37.335  1.00  0.00    -0.011 C 
HETATM    2  C12 UNL     1      29.293  40.974  36.069  1.00  0.00     0.005 C 
HETATM    3  C13 UNL     1      28.255  40.411  35.081  1.00  0.00     0.006 C 
HETATM    4  C14 UNL     1      28.151  38.965  35.236  1.00  0.00    -0.001 C 
HETATM    5  C15 UNL     1      27.344  38.342  34.077  1.00  0.00     0.039 C 
HETATM    6  C16 UNL     1      26.129  38.477  35.019  1.00  0.00     0.141 C 
HETATM    7  C22 UNL     1      27.118  38.366  36.122  1.00  0.00    -0.008 C 
HETATM    8  C23 UNL     1      27.462  36.860  36.258  1.00  0.00     0.019 C 
HETATM    9  C24 UNL     1      26.902  38.979  37.433  1.00  0.00     0.021 C 
HETATM   10  C26 UNL     1      27.627  40.296  37.639  1.00  0.00     0.012 C 
ENDROOT
BRANCH   1  11
HETATM   11  C10 UNL     1      30.032  40.605  38.380  1.00  0.00     0.045 C 
BRANCH  11  12
HETATM   12  C9  UNL     1      30.369  39.668  39.479  1.00  0.00     0.087 C 
HETATM   13  C5  UNL     1      31.816  39.957  39.921  1.00  0.00     0.184 C 
HETATM   14  C6  UNL     1      32.610  39.550  38.726  1.00  0.00     0.150 C 
HETATM   15  C7  UNL     1      31.871  38.397  38.111  1.00  0.00     0.037 C 
HETATM   16  C8  UNL     1      30.599  38.240  38.922  1.00  0.00     0.043 C 
BRANCH  13  17
HETATM   17  O1  UNL     1      32.060  39.190  41.069  1.00  0.00    -0.380 OA
BRANCH  17  18
HETATM   18  C4  UNL     1      32.633  40.013  42.015  1.00  0.00     0.168 C 
BRANCH  18  19
HETATM   19  C3  UNL     1      32.336  41.455  41.729  1.00  0.00     0.026 C 
BRANCH  19  20
HETATM   20  C2  UNL     1      32.213  42.263  42.964  1.00  0.00    -0.002 C 
HETATM   21  C1  UNL     1      31.312  41.687  44.027  1.00  0.00     0.005 C 
ENDBRANCH  19  20
ENDBRANCH  18  19
ENDBRANCH  17  18
ENDBRANCH  13  17
BRANCH  14  22
HETATM   22  O2  UNL     1      33.931  39.226  39.036  1.00  0.00    -0.393 OA
ATOM     23  H2  UNL     1      34.290  38.552  38.470  1.00  0.00     0.210 HD
ENDBRANCH  14  22
BRANCH  12  24
HETATM   24  O3  UNL     1      29.529  39.625  40.558  1.00  0.00    -0.387 OA
ATOM     25  H3  UNL     1      28.621  39.602  40.279  1.00  0.00     0.210 HD
ENDBRANCH  12  24
ENDBRANCH  11  12
ENDBRANCH   1  11
BRANCH   9  26
HETATM   26  C25 UNL     1      25.482  39.180  37.887  1.00  0.00     0.169 C 
BRANCH  26  27
HETATM   27  O6  UNL     1      24.965  40.416  37.462  1.00  0.00    -0.400 OA
ATOM     28  H6  UNL     1      25.107  40.561  36.534  1.00  0.00     0.209 HD
ENDBRANCH  26  27
ENDBRANCH   9  26
BRANCH   6  29
HETATM   29  O4  UNL     1      25.383  39.611  34.828  1.00  0.00    -0.315 OA
BRANCH  29  30
HETATM   30  C17 UNL     1      24.081  39.549  34.307  1.00  0.00     0.259 C 
HETATM   31  O5  UNL     1      23.204  40.047  35.004  1.00  0.00    -0.265 OA
BRANCH  30  32
HETATM   32  C18 UNL     1      23.806  38.926  33.012  1.00  0.00     0.111 C 
BRANCH  32  33
HETATM   33  C19 UNL     1      24.104  39.745  31.824  1.00  0.00     0.009 C 
BRANCH  33  34
HETATM   34  C20 UNL     1      25.475  39.952  31.351  1.00  0.00    -0.004 C 
HETATM   35  C21 UNL     1      26.278  41.125  31.728  1.00  0.00     0.005 C 
ENDBRANCH  33  34
ENDBRANCH  32  33
ENDBRANCH  30  32
ENDBRANCH  29  30
ENDBRANCH   6  29
TORSDOF 15
ENDMDL
MODEL 3
REMARK VINA RESULT: -7.024076557      0.849      1.442
REMARK  15 active torsions:
REMARK  status: ('A' for Active; 'I' for Inactive)
REMARK    1  A    between atoms: C2_2  and  C3_3 
REMARK    2  A    between atoms: C3_3  and  C4_4 
REMARK    3  A    between atoms: C4_4  and  O1_5 
REMARK    4  A    between atoms: O1_5  and  C5_6 
REMARK    5  A    between atoms: C6_7  and  O2_8 
REMARK    6  A    between atoms: C9_12  and  O3_13 
REMARK    7  A    between atoms: C9_12  and  C10_15 
REMARK    8  A    between atoms: C10_15  and  C11_16 
REMARK    9  A    between atoms: C16_21  and  O4_22 
REMARK   10  A    between atoms: O4_22  and  C17_23 
REMARK   11  A    between atoms: C17_23  and  C18_25 
REMARK   12  A    between atoms: C18_25  and  C19_26 
REMARK   13  A    between atoms: C19_26  and  C20_27 
REMARK   14  A    between atoms: C24_31  and  C25_32 
REMARK   15  A    between atoms: C25_32  and  O6_33 
ROOT
HETATM    1  C11 UNL     1      29.856  41.800  35.910  1.00  0.00    -0.011 C 
HETATM    2  C12 UNL     1      30.065  43.056  36.785  1.00  0.00     0.005 C 
HETATM    3  C13 UNL     1      30.042  42.505  38.223  1.00  0.00     0.006 C 
HETATM    4  C14 UNL     1      29.066  41.427  38.329  1.00  0.00    -0.001 C 
HETATM    5  C15 UNL     1      28.811  41.056  39.805  1.00  0.00     0.039 C 
HETATM    6  C16 UNL     1      29.897  39.980  39.588  1.00  0.00     0.141 C 
HETATM    7  C22 UNL     1      29.477  40.008  38.164  1.00  0.00    -0.008 C 
HETATM    8  C23 UNL     1      28.174  39.172  38.070  1.00  0.00     0.019 C 
HETATM    9  C24 UNL     1      30.393  39.685  37.069  1.00  0.00     0.021 C 
HETATM   10  C26 UNL     1      30.978  40.891  36.361  1.00  0.00     0.012 C 
ENDROOT
BRANCH   1  11
HETATM   11  C10 UNL     1      29.907  42.217  34.484  1.00  0.00     0.045 C 
BRANCH  11  12
HETATM   12  C9  UNL     1      28.612  42.516  33.824  1.00  0.00     0.087 C 
HETATM   13  C5  UNL     1      28.804  42.345  32.306  1.00  0.00     0.184 C 
HETATM   14  C6  UNL     1      29.746  43.451  31.968  1.00  0.00     0.150 C 
HETATM   15  C7  UNL     1      29.411  44.579  32.901  1.00  0.00     0.037 C 
HETATM   16  C8  UNL     1      28.341  44.041  33.832  1.00  0.00     0.043 C 
BRANCH  13  17
HETATM   17  O1  UNL     1      27.539  42.458  31.712  1.00  0.00    -0.380 OA
BRANCH  17  18
HETATM   18  C4  UNL     1      27.352  41.361  30.899  1.00  0.00     0.168 C 
BRANCH  18  19
HETATM   19  C3  UNL     1      25.936  40.870  30.969  1.00  0.00     0.026 C 
BRANCH  19  20
HETATM   20  C2  UNL     1      25.755  39.810  31.989  1.00  0.00    -0.002 C 
HETATM   21  C1  UNL     1      24.575  39.994  32.909  1.00  0.00     0.005 C 
ENDBRANCH  19  20
ENDBRANCH  18  19
ENDBRANCH  17  18
ENDBRANCH  13  17
BRANCH  14  22
HETATM   22  O2  UNL     1      29.675  43.835  30.629  1.00  0.00    -0.393 OA
ATOM     23  H2  UNL     1      30.162  43.258  30.052  1.00  0.00     0.210 HD
ENDBRANCH  14  22
BRANCH  12  24
HETATM   24  O3  UNL     1      27.506  41.836  34.256  1.00  0.00    -0.387 OA
ATOM     25  H3  UNL     1      27.200  42.181  35.086  1.00  0.00     0.210 HD
ENDBRANCH  12  24
ENDBRANCH  11  12
ENDBRANCH   1  11
BRANCH   9  26
HETATM   26  C25 UNL     1      31.532  38.748  37.364  1.00  0.00     0.169 C 
BRANCH  26  27
HETATM   27  O6  UNL     1      32.703  39.441  37.719  1.00  0.00    -0.400 OA
ATOM     28  H6  UNL     1      33.162  39.019  38.437  1.00  0.00     0.209 HD
ENDBRANCH  26  27
ENDBRANCH   9  26
BRANCH   6  29
HETATM   29  O4  UNL     1      31.156  40.355  39.978  1.00  0.00    -0.315 OA
BRANCH  29  30
HETATM   30  C17 UNL     1      31.816  39.708  41.035  1.00  0.00     0.259 C 
HETATM   31  O5  UNL     1      31.437  38.568  41.281  1.00  0.00    -0.265 OA
BRANCH  30  32
HETATM   32  C18 UNL     1      32.887  40.366  41.784  1.00  0.00     0.111 C 
BRANCH  32  33
HETATM   33  C19 UNL     1      32.730  41.817  41.995  1.00  0.00     0.009 C 
BRANCH  33  34
HETATM   34  C20 UNL     1      32.068  42.357  43.185  1.00  0.00    -0.004 C 
HETATM   35  C21 UNL     1      31.244  41.532  44.082  1.00  0.00     0.005 C 
ENDBRANCH  33  34
ENDBRANCH  32  33
ENDBRANCH  30  32
ENDBRANCH  29  30
ENDBRANCH   6  29
TORSDOF 15
ENDMDL
MODEL 4
REMARK VINA RESULT: -6.963136549      2.884      9.791
REMARK  15 active torsions:
REMARK  status: ('A' for Active; 'I' for Inactive)
REMARK    1  A    between atoms: C2_2  and  C3_3 
REMARK    2  A    between atoms: C3_3  and  C4_4 
REMARK    3  A    between atoms: C4_4  and  O1_5 
REMARK    4  A    between atoms: O1_5  and  C5_6 
REMARK    5  A    between atoms: C6_7  and  O2_8 
REMARK    6  A    between atoms: C9_12  and  O3_13 
REMARK    7  A    between atoms: C9_12  and  C10_15 
REMARK    8  A    between atoms: C10_15  and  C11_16 
REMARK    9  A    between atoms: C16_21  and  O4_22 
REMARK   10  A    between atoms: O4_22  and  C17_23 
REMARK   11  A    between atoms: C17_23  and  C18_25 
REMARK   12  A    between atoms: C18_25  and  C19_26 
REMARK   13  A    between atoms: C19_26  and  C20_27 
REMARK   14  A    between atoms: C24_31  and  C25_32 
REMARK   15  A    between atoms: C25_32  and  O6_33 
ROOT
HETATM    1  C11 UNL     1      30.932  39.508  39.882  1.00  0.00    -0.011 C 
HETATM    2  C12 UNL     1      32.010  38.843  38.998  1.00  0.00     0.005 C 
HETATM    3  C13 UNL     1      31.489  39.060  37.565  1.00  0.00     0.006 C 
HETATM    4  C14 UNL     1      30.036  38.942  37.539  1.00  0.00    -0.001 C 
HETATM    5  C15 UNL     1      29.515  38.865  36.089  1.00  0.00     0.039 C 
HETATM    6  C16 UNL     1      29.336  40.393  36.207  1.00  0.00     0.141 C 
HETATM    7  C22 UNL     1      29.172  40.146  37.662  1.00  0.00    -0.008 C 
HETATM    8  C23 UNL     1      27.721  39.637  37.865  1.00  0.00     0.019 C 
HETATM    9  C24 UNL     1      29.528  41.143  38.673  1.00  0.00     0.021 C 
HETATM   10  C26 UNL     1      30.874  40.916  39.333  1.00  0.00     0.012 C 
ENDROOT
BRANCH   1  11
HETATM   11  C10 UNL     1      31.363  39.393  41.300  1.00  0.00     0.045 C 
BRANCH  11  12
HETATM   12  C9  UNL     1      32.665  40.005  41.660  1.00  0.00     0.087 C 
HETATM   13  C5  UNL     1      32.969  39.644  43.126  1.00  0.00     0.184 C 
HETATM   14  C6  UNL     1      31.908  40.382  43.871  1.00  0.00     0.150 C 
HETATM   15  C7  UNL     1      31.652  41.639  43.091  1.00  0.00     0.037 C 
HETATM   16  C8  UNL     1      32.512  41.535  41.846  1.00  0.00     0.043 C 
BRANCH  13  17
HETATM   17  O1  UNL     1      34.275  40.076  43.398  1.00  0.00    -0.380 OA
BRANCH  17  18
HETATM   18  C4  UNL     1      34.971  39.014  43.932  1.00  0.00     0.168 C 
BRANCH  18  19
HETATM   19  C3  UNL     1      36.437  39.319  44.027  1.00  0.00     0.026 C 
BRANCH  19  20
HETATM   20  C2  UNL     1      37.279  38.118  43.818  1.00  0.00    -0.002 C 
HETATM   21  C1  UNL     1      37.701  37.398  45.074  1.00  0.00     0.005 C 
ENDBRANCH  19  20
ENDBRANCH  18  19
ENDBRANCH  17  18
ENDBRANCH  13  17
BRANCH  14  22
HETATM   22  O2  UNL     1      32.256  40.644  45.196  1.00  0.00    -0.393 OA
ATOM     23  H2  UNL     1      31.592  40.363  45.815  1.00  0.00     0.210 HD
ENDBRANCH  14  22
BRANCH  12  24
HETATM   24  O3  UNL     1      33.739  39.730  40.858  1.00  0.00    -0.387 OA
ATOM     25  H3  UNL     1      33.572  38.967  40.318  1.00  0.00     0.210 HD
ENDBRANCH  12  24
ENDBRANCH  11  12
ENDBRANCH   1  11
BRANCH   9  26
HETATM   26  C25 UNL     1      29.468  42.593  38.277  1.00  0.00     0.169 C 
BRANCH  26  27
HETATM   27  O6  UNL     1      28.282  42.901  37.588  1.00  0.00    -0.400 OA
ATOM     28  H6  UNL     1      27.519  42.842  38.151  1.00  0.00     0.209 HD
ENDBRANCH  26  27
ENDBRANCH   9  26
BRANCH   6  29
HETATM   29  O4  UNL     1      30.381  41.129  35.712  1.00  0.00    -0.315 OA
BRANCH  29  30
HETATM   30  C17 UNL     1      30.162  42.297  34.965  1.00  0.00     0.259 C 
HETATM   31  O5  UNL     1      29.268  42.236  34.129  1.00  0.00    -0.265 OA
BRANCH  30  32
HETATM   32  C18 UNL     1      30.960  43.504  35.185  1.00  0.00     0.111 C 
BRANCH  32  33
HETATM   33  C19 UNL     1      30.208  44.770  35.268  1.00  0.00     0.009 C 
BRANCH  33  34
HETATM   34  C20 UNL     1      30.872  46.071  35.168  1.00  0.00    -0.004 C 
HETATM   35  C21 UNL     1      31.578  46.514  33.956  1.00  0.00     0.005 C 
ENDBRANCH  33  34
ENDBRANCH  32  33
ENDBRANCH  30  32
ENDBRANCH  29  30
ENDBRANCH   6  29
TORSDOF 15
ENDMDL
MODEL 5
REMARK VINA RESULT: -6.884823839      3.456      9.179
REMARK  15 active torsions:
REMARK  status: ('A' for Active; 'I' for Inactive)
REMARK    1  A    between atoms: C2_2  and  C3_3 
REMARK    2  A    between atoms: C3_3  and  C4_4 
REMARK    3  A    between atoms: C4_4  and  O1_5 
REMARK    4  A    between atoms: O1_5  and  C5_6 
REMARK    5  A    between atoms: C6_7  and  O2_8 
REMARK    6  A    between atoms: C9_12  and  O3_13 
REMARK    7  A    between atoms: C9_12  and  C10_15 
REMARK    8  A    between atoms: C10_15  and  C11_16 
REMARK    9  A    between atoms: C16_21  and  O4_22 
REMARK   10  A    between atoms: O4_22  and  C17_23 
REMARK   11  A    between atoms: C17_23  and  C18_25 
REMARK   12  A    between atoms: C18_25  and  C19_26 
REMARK   13  A    between atoms: C19_26  and  C20_27 
REMARK   14  A    between atoms: C24_31  and  C25_32 
REMARK   15  A    between atoms: C25_32  and  O6_33 
ROOT
HETATM    1  C11 UNL     1      29.089  40.149  37.156  1.00  0.00    -0.011 C 
HETATM    2  C12 UNL     1      29.028  41.214  36.040  1.00  0.00     0.005 C 
HETATM    3  C13 UNL     1      27.937  40.684  35.091  1.00  0.00     0.006 C 
HETATM    4  C14 UNL     1      28.009  39.230  35.011  1.00  0.00    -0.001 C 
HETATM    5  C15 UNL     1      27.132  38.696  33.858  1.00  0.00     0.039 C 
HETATM    6  C16 UNL     1      26.040  38.530  34.937  1.00  0.00     0.141 C 
HETATM    7  C22 UNL     1      27.169  38.376  35.891  1.00  0.00    -0.008 C 
HETATM    8  C23 UNL     1      27.687  36.923  35.733  1.00  0.00     0.019 C 
HETATM    9  C24 UNL     1      27.059  38.748  37.302  1.00  0.00     0.021 C 
HETATM   10  C26 UNL     1      27.659  40.097  37.646  1.00  0.00     0.012 C 
ENDROOT
BRANCH   1  11
HETATM   11  C10 UNL     1      30.092  40.590  38.160  1.00  0.00     0.045 C 
BRANCH  11  12
HETATM   12  C9  UNL     1      30.365  39.667  39.290  1.00  0.00     0.087 C 
HETATM   13  C5  UNL     1      31.781  39.967  39.815  1.00  0.00     0.184 C 
HETATM   14  C6  UNL     1      32.647  39.547  38.676  1.00  0.00     0.150 C 
HETATM   15  C7  UNL     1      31.950  38.384  38.032  1.00  0.00     0.037 C 
HETATM   16  C8  UNL     1      30.632  38.234  38.766  1.00  0.00     0.043 C 
BRANCH  13  17
HETATM   17  O1  UNL     1      31.957  39.215  40.986  1.00  0.00    -0.380 OA
BRANCH  17  18
HETATM   18  C4  UNL     1      32.581  40.018  41.916  1.00  0.00     0.168 C 
BRANCH  18  19
HETATM   19  C3  UNL     1      32.270  41.465  41.677  1.00  0.00     0.026 C 
BRANCH  19  20
HETATM   20  C2  UNL     1      32.199  42.244  42.935  1.00  0.00    -0.002 C 
HETATM   21  C1  UNL     1      31.338  41.646  44.019  1.00  0.00     0.005 C 
ENDBRANCH  19  20
ENDBRANCH  18  19
ENDBRANCH  17  18
ENDBRANCH  13  17
BRANCH  14  22
HETATM   22  O2  UNL     1      33.948  39.231  39.070  1.00  0.00    -0.393 OA
ATOM     23  H2  UNL     1      34.593  39.852  38.750  1.00  0.00     0.210 HD
ENDBRANCH  14  22
BRANCH  12  24
HETATM   24  O3  UNL     1      29.460  39.635  40.316  1.00  0.00    -0.387 OA
ATOM     25  H3  UNL     1      28.882  38.887  40.234  1.00  0.00     0.210 HD
ENDBRANCH  12  24
ENDBRANCH  11  12
ENDBRANCH   1  11
BRANCH   9  26
HETATM   26  C25 UNL     1      25.696  38.695  37.935  1.00  0.00     0.169 C 
BRANCH  26  27
HETATM   27  O6  UNL     1      25.036  39.934  37.866  1.00  0.00    -0.400 OA
ATOM     28  H6  UNL     1      24.143  39.844  37.552  1.00  0.00     0.209 HD
ENDBRANCH  26  27
ENDBRANCH   9  26
BRANCH   6  29
HETATM   29  O4  UNL     1      25.159  39.577  35.022  1.00  0.00    -0.315 OA
BRANCH  29  30
HETATM   30  C17 UNL     1      23.785  39.393  34.806  1.00  0.00     0.259 C 
HETATM   31  O5  UNL     1      23.231  38.593  35.551  1.00  0.00    -0.265 OA
BRANCH  30  32
HETATM   32  C18 UNL     1      23.073  40.119  33.754  1.00  0.00     0.111 C 
BRANCH  32  33
HETATM   33  C19 UNL     1      21.668  40.461  34.040  1.00  0.00     0.009 C 
BRANCH  33  34
HETATM   34  C20 UNL     1      21.307  41.594  34.895  1.00  0.00    -0.004 C 
HETATM   35  C21 UNL     1      19.961  42.187  34.905  1.00  0.00     0.005 C 
ENDBRANCH  33  34
ENDBRANCH  32  33
ENDBRANCH  30  32
ENDBRANCH  29  30
ENDBRANCH   6  29
TORSDOF 15
ENDMDL
