MODEL 1
REMARK VINA RESULT: -6.926054794      0.000      0.000
REMARK  7 active torsions:
REMARK  status: ('A' for Active; 'I' for Inactive)
REMARK    1  A    between atoms: C2_2  and  N1_3 
REMARK    2  A    between atoms: C2_2  and  C4_14 
REMARK    3  A    between atoms: N1_3  and  N2_5 
REMARK       I    between atoms: C3_7  and  N4_9 
REMARK    4  A    between atoms: N4_9  and  N5_11 
REMARK       I    between atoms: C4_14  and  N6_16 
REMARK    5  A    between atoms: N6_16  and  S1_18 
REMARK    6  A    between atoms: S1_18  and  N7_19 
REMARK    7  A    between atoms: S1_18  and  N8_23 
ROOT
HETATM    1  N8  UNL     1      65.600  29.823  49.054  1.00  0.00    -0.221 N 
ATOM      2  H8  UNL     1      65.473  29.101  48.345  1.00  0.00     0.191 HD
HETATM    3  C5  UNL     1      65.214  31.190  48.878  1.00  0.00     0.192 C 
HETATM    4  N9  UNL     1      64.917  32.313  48.737  1.00  0.00    -0.171 NA
ENDROOT
BRANCH   1   5
HETATM    5  S1  UNL     1      66.236  29.567  50.457  1.00  0.00     0.207 S 
HETATM    6  O2  UNL     1      65.577  30.574  51.384  1.00  0.00    -0.205 OA
BRANCH   5   7
HETATM    7  N6  UNL     1      66.010  27.968  51.048  1.00  0.00    -0.252 N 
HETATM    8  C4  UNL     1      66.717  26.952  50.322  1.00  0.00     0.255 C 
HETATM    9  O1  UNL     1      67.453  27.188  49.340  1.00  0.00    -0.270 OA
ATOM     10  H6  UNL     1      65.419  27.758  51.853  1.00  0.00     0.181 HD
BRANCH   8  11
HETATM   11  C2  UNL     1      66.540  25.530  50.800  1.00  0.00     0.188 C 
HETATM   12  C1  UNL     1      67.937  24.967  51.041  1.00  0.00     0.044 C 
BRANCH  11  13
HETATM   13  N1  UNL     1      65.839  25.658  52.053  1.00  0.00    -0.321 N 
ATOM     14  H1  UNL     1      65.015  26.254  52.125  1.00  0.00     0.181 HD
BRANCH  13  15
HETATM   15  N2  UNL     1      66.304  24.954  53.166  1.00  0.00    -0.276 N 
HETATM   16  C3  UNL     1      66.700  25.544  54.239  1.00  0.00     0.221 C 
HETATM   17  N3  UNL     1      67.160  24.771  55.326  1.00  0.00    -0.061 NA
HETATM   18  N4  UNL     1      66.660  26.955  54.309  1.00  0.00    -0.279 N 
ATOM     19  H4  UNL     1      67.490  27.477  54.027  1.00  0.00     0.189 HD
ATOM     20  H2  UNL     1      66.331  23.934  53.127  1.00  0.00     0.189 HD
BRANCH  18  21
HETATM   21  N5  UNL     1      65.540  27.673  54.745  1.00  0.00    -0.343 N 
ATOM     22  H52 UNL     1      64.726  27.135  55.043  1.00  0.00     0.176 HD
ATOM     23  H51 UNL     1      65.504  28.692  54.777  1.00  0.00     0.176 HD
ENDBRANCH  18  21
ENDBRANCH  13  15
ENDBRANCH  11  13
ENDBRANCH   8  11
ENDBRANCH   5   7
BRANCH   5  24
HETATM   24  N7  UNL     1      67.884  29.966  50.350  1.00  0.00    -0.328 N 
ATOM     25  H72 UNL     1      68.326  30.304  49.495  1.00  0.00     0.169 HD
ATOM     26  H71 UNL     1      68.362  29.824  51.240  1.00  0.00     0.169 HD
ENDBRANCH   5  24
ENDBRANCH   1   5
TORSDOF 7
ENDMDL
MODEL 2
REMARK VINA RESULT: -6.732155690      2.015      6.145
REMARK  7 active torsions:
REMARK  status: ('A' for Active; 'I' for Inactive)
REMARK    1  A    between atoms: C2_2  and  N1_3 
REMARK    2  A    between atoms: C2_2  and  C4_14 
REMARK    3  A    between atoms: N1_3  and  N2_5 
REMARK       I    between atoms: C3_7  and  N4_9 
REMARK    4  A    between atoms: N4_9  and  N5_11 
REMARK       I    between atoms: C4_14  and  N6_16 
REMARK    5  A    between atoms: N6_16  and  S1_18 
REMARK    6  A    between atoms: S1_18  and  N7_19 
REMARK    7  A    between atoms: S1_18  and  N8_23 
ROOT
HETATM    1  N8  UNL     1      67.374  26.264  52.575  1.00  0.00    -0.221 N 
ATOM      2  H8  UNL     1      67.979  25.937  51.823  1.00  0.00     0.191 HD
HETATM    3  C5  UNL     1      67.244  25.605  53.839  1.00  0.00     0.192 C 
HETATM    4  N9  UNL     1      67.119  25.064  54.869  1.00  0.00    -0.171 NA
ENDROOT
BRANCH   1   5
HETATM    5  S1  UNL     1      66.481  27.542  52.482  1.00  0.00     0.207 S 
HETATM    6  O2  UNL     1      66.326  28.026  53.915  1.00  0.00    -0.205 OA
BRANCH   5   7
HETATM    7  N6  UNL     1      67.136  28.787  51.495  1.00  0.00    -0.252 N 
HETATM    8  C4  UNL     1      67.118  28.509  50.087  1.00  0.00     0.255 C 
HETATM    9  O1  UNL     1      66.659  27.457  49.593  1.00  0.00    -0.270 OA
ATOM     10  H6  UNL     1      67.509  29.655  51.879  1.00  0.00     0.181 HD
BRANCH   8  11
HETATM   11  C2  UNL     1      67.695  29.572  49.180  1.00  0.00     0.188 C 
HETATM   12  C1  UNL     1      68.788  28.902  48.354  1.00  0.00     0.044 C 
BRANCH  11  13
HETATM   13  N1  UNL     1      66.597  29.952  48.328  1.00  0.00    -0.321 N 
ATOM     14  H1  UNL     1      66.769  30.270  47.375  1.00  0.00     0.181 HD
BRANCH  13  15
HETATM   15  N2  UNL     1      65.294  29.878  48.826  1.00  0.00    -0.276 N 
HETATM   16  C3  UNL     1      64.547  30.918  48.957  1.00  0.00     0.221 C 
HETATM   17  N3  UNL     1      63.239  30.772  49.469  1.00  0.00    -0.061 NA
HETATM   18  N4  UNL     1      65.048  32.184  48.580  1.00  0.00    -0.279 N 
ATOM     19  H4  UNL     1      65.514  32.751  49.289  1.00  0.00     0.189 HD
ATOM     20  H2  UNL     1      64.922  28.967  49.095  1.00  0.00     0.189 HD
BRANCH  18  21
HETATM   21  N5  UNL     1      64.938  32.701  47.283  1.00  0.00    -0.343 N 
ATOM     22  H52 UNL     1      65.422  32.200  46.538  1.00  0.00     0.176 HD
ATOM     23  H51 UNL     1      64.405  33.541  47.057  1.00  0.00     0.176 HD
ENDBRANCH  18  21
ENDBRANCH  13  15
ENDBRANCH  11  13
ENDBRANCH   8  11
ENDBRANCH   5   7
BRANCH   5  24
HETATM   24  N7  UNL     1      64.947  27.054  51.936  1.00  0.00    -0.328 N 
ATOM     25  H72 UNL     1      64.087  27.215  52.460  1.00  0.00     0.169 HD
ATOM     26  H71 UNL     1      65.003  26.587  51.031  1.00  0.00     0.169 HD
ENDBRANCH   5  24
ENDBRANCH   1   5
TORSDOF 7
ENDMDL
MODEL 3
REMARK VINA RESULT: -6.696812159      1.464      1.477
REMARK  7 active torsions:
REMARK  status: ('A' for Active; 'I' for Inactive)
REMARK    1  A    between atoms: C2_2  and  N1_3 
REMARK    2  A    between atoms: C2_2  and  C4_14 
REMARK    3  A    between atoms: N1_3  and  N2_5 
REMARK       I    between atoms: C3_7  and  N4_9 
REMARK    4  A    between atoms: N4_9  and  N5_11 
REMARK       I    between atoms: C4_14  and  N6_16 
REMARK    5  A    between atoms: N6_16  and  S1_18 
REMARK    6  A    between atoms: S1_18  and  N7_19 
REMARK    7  A    between atoms: S1_18  and  N8_23 
ROOT
HETATM    1  N8  UNL     1      66.432  30.606  48.041  1.00  0.00    -0.221 N 
ATOM      2  H8  UNL     1      65.732  30.363  47.341  1.00  0.00     0.191 HD
HETATM    3  C5  UNL     1      67.495  31.537  47.818  1.00  0.00     0.192 C 
HETATM    4  N9  UNL     1      68.377  32.286  47.638  1.00  0.00    -0.171 NA
ENDROOT
BRANCH   1   5
HETATM    5  S1  UNL     1      66.469  30.005  49.482  1.00  0.00     0.207 S 
HETATM    6  O2  UNL     1      65.308  30.655  50.216  1.00  0.00    -0.205 OA
BRANCH   5   7
HETATM    7  N6  UNL     1      66.328  28.292  49.532  1.00  0.00    -0.252 N 
HETATM    8  C4  UNL     1      66.656  27.698  50.796  1.00  0.00     0.255 C 
HETATM    9  O1  UNL     1      67.011  28.354  51.799  1.00  0.00    -0.270 OA
ATOM     10  H6  UNL     1      66.033  27.741  48.725  1.00  0.00     0.181 HD
BRANCH   8  11
HETATM   11  C2  UNL     1      66.557  26.193  50.883  1.00  0.00     0.188 C 
HETATM   12  C1  UNL     1      67.963  25.672  51.160  1.00  0.00     0.044 C 
BRANCH  11  13
HETATM   13  N1  UNL     1      65.711  25.954  52.024  1.00  0.00    -0.321 N 
ATOM     14  H1  UNL     1      64.773  26.352  52.064  1.00  0.00     0.181 HD
BRANCH  13  15
HETATM   15  N2  UNL     1      66.194  25.171  53.076  1.00  0.00    -0.276 N 
HETATM   16  C3  UNL     1      66.639  25.685  54.169  1.00  0.00     0.221 C 
HETATM   17  N3  UNL     1      67.114  24.834  55.191  1.00  0.00    -0.061 NA
HETATM   18  N4  UNL     1      66.637  27.089  54.327  1.00  0.00    -0.279 N 
ATOM     19  H4  UNL     1      67.471  27.607  54.050  1.00  0.00     0.189 HD
ATOM     20  H2  UNL     1      66.193  24.156  52.973  1.00  0.00     0.189 HD
BRANCH  18  21
HETATM   21  N5  UNL     1      65.551  27.804  54.845  1.00  0.00    -0.343 N 
ATOM     22  H52 UNL     1      65.759  28.632  55.403  1.00  0.00     0.176 HD
ATOM     23  H51 UNL     1      64.578  27.538  54.689  1.00  0.00     0.176 HD
ENDBRANCH  18  21
ENDBRANCH  13  15
ENDBRANCH  11  13
ENDBRANCH   8  11
ENDBRANCH   5   7
BRANCH   5  24
HETATM   24  N7  UNL     1      67.905  30.535  50.219  1.00  0.00    -0.328 N 
ATOM     25  H72 UNL     1      67.927  31.192  50.999  1.00  0.00     0.169 HD
ATOM     26  H71 UNL     1      68.727  30.114  49.784  1.00  0.00     0.169 HD
ENDBRANCH   5  24
ENDBRANCH   1   5
TORSDOF 7
ENDMDL
MODEL 4
REMARK VINA RESULT: -6.651735827      1.561      1.986
REMARK  7 active torsions:
REMARK  status: ('A' for Active; 'I' for Inactive)
REMARK    1  A    between atoms: C2_2  and  N1_3 
REMARK    2  A    between atoms: C2_2  and  C4_14 
REMARK    3  A    between atoms: N1_3  and  N2_5 
REMARK       I    between atoms: C3_7  and  N4_9 
REMARK    4  A    between atoms: N4_9  and  N5_11 
REMARK       I    between atoms: C4_14  and  N6_16 
REMARK    5  A    between atoms: N6_16  and  S1_18 
REMARK    6  A    between atoms: S1_18  and  N7_19 
REMARK    7  A    between atoms: S1_18  and  N8_23 
ROOT
HETATM    1  N8  UNL     1      67.875  30.086  49.942  1.00  0.00    -0.221 N 
ATOM      2  H8  UNL     1      68.256  29.697  50.805  1.00  0.00     0.191 HD
HETATM    3  C5  UNL     1      68.336  31.301  49.342  1.00  0.00     0.192 C 
HETATM    4  N9  UNL     1      68.695  32.302  48.854  1.00  0.00    -0.171 NA
ENDROOT
BRANCH   1   5
HETATM    5  S1  UNL     1      66.722  29.424  49.123  1.00  0.00     0.207 S 
HETATM    6  O2  UNL     1      67.016  29.768  47.672  1.00  0.00    -0.205 OA
BRANCH   5   7
HETATM    7  N6  UNL     1      66.605  27.721  49.325  1.00  0.00    -0.252 N 
HETATM    8  C4  UNL     1      66.581  27.278  50.689  1.00  0.00     0.255 C 
HETATM    9  O1  UNL     1      66.631  28.050  51.670  1.00  0.00    -0.270 OA
ATOM     10  H6  UNL     1      66.556  27.076  48.536  1.00  0.00     0.181 HD
BRANCH   8  11
HETATM   11  C2  UNL     1      66.489  25.786  50.915  1.00  0.00     0.188 C 
HETATM   12  C1  UNL     1      67.908  25.291  51.178  1.00  0.00     0.044 C 
BRANCH  11  13
HETATM   13  N1  UNL     1      65.692  25.652  52.107  1.00  0.00    -0.321 N 
ATOM     14  H1  UNL     1      64.754  26.049  52.149  1.00  0.00     0.181 HD
BRANCH  13  15
HETATM   15  N2  UNL     1      66.223  24.970  53.205  1.00  0.00    -0.276 N 
HETATM   16  C3  UNL     1      66.669  25.582  54.246  1.00  0.00     0.221 C 
HETATM   17  N3  UNL     1      67.194  24.830  55.320  1.00  0.00    -0.061 NA
HETATM   18  N4  UNL     1      66.620  26.993  54.296  1.00  0.00    -0.279 N 
ATOM     19  H4  UNL     1      67.429  27.517  53.961  1.00  0.00     0.189 HD
ATOM     20  H2  UNL     1      66.257  23.951  53.181  1.00  0.00     0.189 HD
BRANCH  18  21
HETATM   21  N5  UNL     1      65.518  27.709  54.780  1.00  0.00    -0.343 N 
ATOM     22  H52 UNL     1      65.078  28.375  54.145  1.00  0.00     0.176 HD
ATOM     23  H51 UNL     1      65.144  27.594  55.722  1.00  0.00     0.176 HD
ENDBRANCH  18  21
ENDBRANCH  13  15
ENDBRANCH  11  13
ENDBRANCH   8  11
ENDBRANCH   5   7
BRANCH   5  24
HETATM   24  N7  UNL     1      65.276  30.206  49.554  1.00  0.00    -0.328 N 
ATOM     25  H72 UNL     1      64.695  29.916  50.340  1.00  0.00     0.169 HD
ATOM     26  H71 UNL     1      65.074  30.989  48.932  1.00  0.00     0.169 HD
ENDBRANCH   5  24
ENDBRANCH   1   5
TORSDOF 7
ENDMDL
MODEL 5
REMARK VINA RESULT: -6.637558898      2.216      6.638
REMARK  7 active torsions:
REMARK  status: ('A' for Active; 'I' for Inactive)
REMARK    1  A    between atoms: C2_2  and  N1_3 
REMARK    2  A    between atoms: C2_2  and  C4_14 
REMARK    3  A    between atoms: N1_3  and  N2_5 
REMARK       I    between atoms: C3_7  and  N4_9 
REMARK    4  A    between atoms: N4_9  and  N5_11 
REMARK       I    between atoms: C4_14  and  N6_16 
REMARK    5  A    between atoms: N6_16  and  S1_18 
REMARK    6  A    between atoms: S1_18  and  N7_19 
REMARK    7  A    between atoms: S1_18  and  N8_23 
ROOT
HETATM    1  N8  UNL     1      66.452  26.569  53.022  1.00  0.00    -0.221 N 
ATOM      2  H8  UNL     1      66.128  26.441  52.064  1.00  0.00     0.191 HD
HETATM    3  C5  UNL     1      66.989  25.517  53.831  1.00  0.00     0.192 C 
HETATM    4  N9  UNL     1      67.414  24.660  54.504  1.00  0.00    -0.171 NA
ENDROOT
BRANCH   1   5
HETATM    5  S1  UNL     1      66.422  27.935  53.778  1.00  0.00     0.207 S 
HETATM    6  O2  UNL     1      67.806  28.086  54.386  1.00  0.00    -0.205 OA
BRANCH   5   7
HETATM    7  N6  UNL     1      66.055  29.283  52.776  1.00  0.00    -0.252 N 
HETATM    8  C4  UNL     1      66.676  29.258  51.483  1.00  0.00     0.255 C 
HETATM    9  O1  UNL     1      67.422  28.336  51.089  1.00  0.00    -0.270 OA
ATOM     10  H6  UNL     1      65.444  30.042  53.077  1.00  0.00     0.181 HD
BRANCH   8  11
HETATM   11  C2  UNL     1      66.391  30.430  50.572  1.00  0.00     0.188 C 
HETATM   12  C1  UNL     1      67.737  31.054  50.219  1.00  0.00     0.044 C 
BRANCH  11  13
HETATM   13  N1  UNL     1      65.801  29.837  49.399  1.00  0.00    -0.321 N 
ATOM     14  H1  UNL     1      64.998  29.214  49.482  1.00  0.00     0.181 HD
BRANCH  13  15
HETATM   15  N2  UNL     1      66.345  30.126  48.145  1.00  0.00    -0.276 N 
HETATM   16  C3  UNL     1      65.759  30.902  47.302  1.00  0.00     0.221 C 
HETATM   17  N3  UNL     1      66.365  31.150  46.051  1.00  0.00    -0.061 NA
HETATM   18  N4  UNL     1      64.524  31.495  47.647  1.00  0.00    -0.279 N 
ATOM     19  H4  UNL     1      63.665  31.004  47.397  1.00  0.00     0.189 HD
ATOM     20  H2  UNL     1      67.240  29.707  47.889  1.00  0.00     0.189 HD
BRANCH  18  21
HETATM   21  N5  UNL     1      64.418  32.721  48.316  1.00  0.00    -0.343 N 
ATOM     22  H52 UNL     1      65.145  32.947  48.995  1.00  0.00     0.176 HD
ATOM     23  H51 UNL     1      63.660  33.384  48.155  1.00  0.00     0.176 HD
ENDBRANCH  18  21
ENDBRANCH  13  15
ENDBRANCH  11  13
ENDBRANCH   8  11
ENDBRANCH   5   7
BRANCH   5  24
HETATM   24  N7  UNL     1      65.312  27.787  55.056  1.00  0.00    -0.328 N 
ATOM     25  H72 UNL     1      65.396  28.296  55.935  1.00  0.00     0.169 HD
ATOM     26  H71 UNL     1      64.563  27.131  54.828  1.00  0.00     0.169 HD
ENDBRANCH   5  24
ENDBRANCH   1   5
TORSDOF 7
ENDMDL
