MODEL 1
REMARK VINA RESULT: -5.765550446      0.000      0.000
REMARK  9 active torsions:
REMARK  status: ('A' for Active; 'I' for Inactive)
REMARK    1  A    between atoms: C2_2  and  C4_4 
REMARK    2  A    between atoms: C4_4  and  C5_5 
REMARK    3  A    between atoms: C5_5  and  C6_6 
REMARK    4  A    between atoms: C6_6  and  O2_8 
REMARK    5  A    between atoms: O2_8  and  C7_9 
REMARK    6  A    between atoms: C10_12  and  N1_13 
REMARK       I    between atoms: N1_13  and  C11_15 
REMARK    7  A    between atoms: C11_15  and  O4_17 
REMARK    8  A    between atoms: O4_17  and  C12_18 
REMARK    9  A    between atoms: N3_27  and  C18_28 
ROOT
HETATM    1  C5  UNL     1       2.298   2.467  22.230  1.00  0.00     0.180 C 
HETATM    2  C10 UNL     1       2.393   3.725  22.890  1.00  0.00     0.126 C 
HETATM    3  N2  UNL     1       3.453   3.798  23.804  1.00  0.00    -0.336 N 
ATOM      4  H2  UNL     1       3.658   4.644  24.336  1.00  0.00     0.168 HD
HETATM    5  C16 UNL     1       4.219   2.614  23.939  1.00  0.00     0.096 C 
HETATM    6  S1  UNL     1       5.803   2.633  24.090  1.00  0.00    -0.064 SA
HETATM    7  C17 UNL     1       3.407   1.357  24.020  1.00  0.00     0.189 C 
HETATM    8  N3  UNL     1       2.189   1.470  23.271  1.00  0.00    -0.375 N 
ENDROOT
BRANCH   1   9
HETATM    9  C4  UNL     1       1.327   2.290  21.135  1.00  0.00     0.082 C 
BRANCH   9  10
HETATM   10  C2  UNL     1       1.568   2.961  19.839  1.00  0.00    -0.090 C 
HETATM   11  C1  UNL     1       1.704   2.140  18.724  1.00  0.00     0.014 C 
HETATM   12  C3  UNL     1       1.741   4.369  19.476  1.00  0.00     0.042 C 
ENDBRANCH   9  10
ENDBRANCH   1   9
BRANCH   1  13
HETATM   13  C6  UNL     1       3.592   2.042  21.528  1.00  0.00     0.295 C 
HETATM   14  O1  UNL     1       3.851   0.818  21.313  1.00  0.00    -0.262 OA
BRANCH  13  15
HETATM   15  O2  UNL     1       4.565   2.906  21.097  1.00  0.00    -0.314 OA
BRANCH  15  16
HETATM   16  C7  UNL     1       5.476   2.713  20.062  1.00  0.00     0.123 C 
HETATM   17  C8  UNL     1       6.904   3.049  20.490  1.00  0.00     0.040 C 
HETATM   18  C9  UNL     1       5.232   3.478  18.807  1.00  0.00     0.040 C 
ENDBRANCH  15  16
ENDBRANCH  13  15
ENDBRANCH   1  13
BRANCH   2  19
HETATM   19  N1  UNL     1       1.665   4.910  23.007  1.00  0.00    -0.289 N 
HETATM   20  C11 UNL     1       1.669   6.239  22.637  1.00  0.00     0.366 C 
HETATM   21  O3  UNL     1       2.531   6.786  21.932  1.00  0.00    -0.238 OA
ATOM     22  H1  UNL     1       0.832   4.728  23.566  1.00  0.00     0.172 HD
BRANCH  20  23
HETATM   23  O4  UNL     1       0.634   7.129  23.057  1.00  0.00    -0.294 OA
BRANCH  23  24
HETATM   24  C12 UNL     1      -0.619   7.021  22.395  1.00  0.00     0.061 C 
HETATM   25  C13 UNL     1      -0.475   7.094  20.897  1.00  0.00     0.046 C 
HETATM   26  C14 UNL     1      -1.470   8.221  22.832  1.00  0.00     0.046 C 
HETATM   27  C15 UNL     1      -1.325   5.727  22.740  1.00  0.00     0.046 C 
ENDBRANCH  23  24
ENDBRANCH  20  23
ENDBRANCH   2  19
BRANCH   8  28
HETATM   28  C18 UNL     1       1.371   0.387  23.305  1.00  0.00     0.019 C 
HETATM   29  C19 UNL     1      -0.116   0.650  23.600  1.00  0.00     0.037 C 
HETATM   30  C20 UNL     1       1.573  -0.785  22.383  1.00  0.00     0.037 C 
HETATM   31  C21 UNL     1       1.769  -0.360  24.654  1.00  0.00     0.037 C 
ENDBRANCH   8  28
TORSDOF 9
ENDMDL
MODEL 2
REMARK VINA RESULT: -5.717173888      1.037      1.447
REMARK  9 active torsions:
REMARK  status: ('A' for Active; 'I' for Inactive)
REMARK    1  A    between atoms: C2_2  and  C4_4 
REMARK    2  A    between atoms: C4_4  and  C5_5 
REMARK    3  A    between atoms: C5_5  and  C6_6 
REMARK    4  A    between atoms: C6_6  and  O2_8 
REMARK    5  A    between atoms: O2_8  and  C7_9 
REMARK    6  A    between atoms: C10_12  and  N1_13 
REMARK       I    between atoms: N1_13  and  C11_15 
REMARK    7  A    between atoms: C11_15  and  O4_17 
REMARK    8  A    between atoms: O4_17  and  C12_18 
REMARK    9  A    between atoms: N3_27  and  C18_28 
ROOT
HETATM    1  C5  UNL     1       2.303   2.419  22.221  1.00  0.00     0.180 C 
HETATM    2  C10 UNL     1       2.403   3.676  22.880  1.00  0.00     0.126 C 
HETATM    3  N2  UNL     1       3.463   3.745  23.795  1.00  0.00    -0.336 N 
ATOM      4  H2  UNL     1       3.672   4.590  24.327  1.00  0.00     0.168 HD
HETATM    5  C16 UNL     1       4.224   2.558  23.929  1.00  0.00     0.096 C 
HETATM    6  S1  UNL     1       5.808   2.571  24.081  1.00  0.00    -0.064 SA
HETATM    7  C17 UNL     1       3.408   1.304  24.011  1.00  0.00     0.189 C 
HETATM    8  N3  UNL     1       2.190   1.422  23.261  1.00  0.00    -0.375 N 
ENDROOT
BRANCH   1   9
HETATM    9  C4  UNL     1       1.332   2.246  21.126  1.00  0.00     0.082 C 
BRANCH   9  10
HETATM   10  C2  UNL     1       1.576   2.915  19.829  1.00  0.00    -0.090 C 
HETATM   11  C1  UNL     1       1.700   2.094  18.713  1.00  0.00     0.014 C 
HETATM   12  C3  UNL     1       1.762   4.321  19.467  1.00  0.00     0.042 C 
ENDBRANCH   9  10
ENDBRANCH   1   9
BRANCH   1  13
HETATM   13  C6  UNL     1       3.596   1.989  21.519  1.00  0.00     0.295 C 
HETATM   14  O1  UNL     1       4.439   2.847  21.112  1.00  0.00    -0.262 OA
BRANCH  13  15
HETATM   15  O2  UNL     1       3.945   0.690  21.257  1.00  0.00    -0.314 OA
BRANCH  15  16
HETATM   16  C7  UNL     1       4.665   0.207  20.167  1.00  0.00     0.123 C 
HETATM   17  C8  UNL     1       3.886  -0.861  19.399  1.00  0.00     0.040 C 
HETATM   18  C9  UNL     1       5.998  -0.388  20.458  1.00  0.00     0.040 C 
ENDBRANCH  15  16
ENDBRANCH  13  15
ENDBRANCH   1  13
BRANCH   2  19
HETATM   19  N1  UNL     1       1.680   4.864  22.997  1.00  0.00    -0.289 N 
HETATM   20  C11 UNL     1       1.688   6.193  22.628  1.00  0.00     0.366 C 
HETATM   21  O3  UNL     1       2.553   6.736  21.923  1.00  0.00    -0.238 OA
ATOM     22  H1  UNL     1       0.846   4.686  23.557  1.00  0.00     0.172 HD
BRANCH  20  23
HETATM   23  O4  UNL     1       0.657   7.087  23.047  1.00  0.00    -0.294 OA
BRANCH  23  24
HETATM   24  C12 UNL     1      -0.594   6.989  22.380  1.00  0.00     0.061 C 
HETATM   25  C13 UNL     1      -0.442   7.053  20.883  1.00  0.00     0.046 C 
HETATM   26  C14 UNL     1      -1.434   8.201  22.808  1.00  0.00     0.046 C 
HETATM   27  C15 UNL     1      -1.315   5.704  22.728  1.00  0.00     0.046 C 
ENDBRANCH  23  24
ENDBRANCH  20  23
ENDBRANCH   2  19
BRANCH   8  28
HETATM   28  C18 UNL     1       1.368   0.342  23.296  1.00  0.00     0.019 C 
HETATM   29  C19 UNL     1      -0.115   0.609  23.608  1.00  0.00     0.037 C 
HETATM   30  C20 UNL     1       1.555  -0.823  22.361  1.00  0.00     0.037 C 
HETATM   31  C21 UNL     1       1.777  -0.417  24.633  1.00  0.00     0.037 C 
ENDBRANCH   8  28
TORSDOF 9
ENDMDL
MODEL 3
REMARK VINA RESULT: -5.663915144      2.188      3.201
REMARK  9 active torsions:
REMARK  status: ('A' for Active; 'I' for Inactive)
REMARK    1  A    between atoms: C2_2  and  C4_4 
REMARK    2  A    between atoms: C4_4  and  C5_5 
REMARK    3  A    between atoms: C5_5  and  C6_6 
REMARK    4  A    between atoms: C6_6  and  O2_8 
REMARK    5  A    between atoms: O2_8  and  C7_9 
REMARK    6  A    between atoms: C10_12  and  N1_13 
REMARK       I    between atoms: N1_13  and  C11_15 
REMARK    7  A    between atoms: C11_15  and  O4_17 
REMARK    8  A    between atoms: O4_17  and  C12_18 
REMARK    9  A    between atoms: N3_27  and  C18_28 
ROOT
HETATM    1  C5  UNL     1       2.740   4.580  21.132  1.00  0.00     0.180 C 
HETATM    2  C10 UNL     1       2.147   5.004  22.354  1.00  0.00     0.126 C 
HETATM    3  N2  UNL     1       2.737   4.431  23.490  1.00  0.00    -0.336 N 
ATOM      4  H2  UNL     1       2.431   4.658  24.437  1.00  0.00     0.168 HD
HETATM    5  C16 UNL     1       3.787   3.517  23.231  1.00  0.00     0.096 C 
HETATM    6  S1  UNL     1       5.107   3.458  24.117  1.00  0.00    -0.064 SA
HETATM    7  C17 UNL     1       3.508   2.553  22.117  1.00  0.00     0.189 C 
HETATM    8  N3  UNL     1       2.658   3.136  21.120  1.00  0.00    -0.375 N 
ENDROOT
BRANCH   1   9
HETATM    9  C4  UNL     1       2.326   5.208  19.865  1.00  0.00     0.082 C 
BRANCH   9  10
HETATM   10  C2  UNL     1       2.649   6.632  19.623  1.00  0.00    -0.090 C 
HETATM   11  C1  UNL     1       3.389   6.921  18.482  1.00  0.00     0.014 C 
HETATM   12  C3  UNL     1       2.373   7.847  20.390  1.00  0.00     0.042 C 
ENDBRANCH   9  10
ENDBRANCH   1   9
BRANCH   1  13
HETATM   13  C6  UNL     1       4.255   4.805  21.074  1.00  0.00     0.295 C 
HETATM   14  O1  UNL     1       4.987   4.141  20.277  1.00  0.00    -0.262 OA
BRANCH  13  15
HETATM   15  O2  UNL     1       4.941   5.696  21.857  1.00  0.00    -0.314 OA
BRANCH  15  16
HETATM   16  C7  UNL     1       6.115   6.376  21.543  1.00  0.00     0.123 C 
HETATM   17  C8  UNL     1       7.113   6.353  22.700  1.00  0.00     0.040 C 
HETATM   18  C9  UNL     1       5.972   7.806  21.151  1.00  0.00     0.040 C 
ENDBRANCH  15  16
ENDBRANCH  13  15
ENDBRANCH   1  13
BRANCH   2  19
HETATM   19  N1  UNL     1       1.045   5.743  22.790  1.00  0.00    -0.289 N 
HETATM   20  C11 UNL     1      -0.258   6.060  22.467  1.00  0.00     0.366 C 
HETATM   21  O3  UNL     1      -0.878   5.631  21.482  1.00  0.00    -0.238 OA
ATOM     22  H1  UNL     1       1.292   6.218  23.658  1.00  0.00     0.172 HD
BRANCH  20  23
HETATM   23  O4  UNL     1      -1.028   6.947  23.278  1.00  0.00    -0.294 OA
BRANCH  23  24
HETATM   24  C12 UNL     1      -0.951   8.333  22.972  1.00  0.00     0.061 C 
HETATM   25  C13 UNL     1       0.256   8.983  23.594  1.00  0.00     0.046 C 
HETATM   26  C14 UNL     1      -2.194   9.002  23.576  1.00  0.00     0.046 C 
HETATM   27  C15 UNL     1      -0.902   8.575  21.478  1.00  0.00     0.046 C 
ENDBRANCH  23  24
ENDBRANCH  20  23
ENDBRANCH   2  19
BRANCH   8  28
HETATM   28  C18 UNL     1       2.327   2.329  20.080  1.00  0.00     0.019 C 
HETATM   29  C19 UNL     1       0.962   2.580  19.415  1.00  0.00     0.037 C 
HETATM   30  C20 UNL     1       3.359   1.839  19.101  1.00  0.00     0.037 C 
HETATM   31  C21 UNL     1       2.023   0.922  20.759  1.00  0.00     0.037 C 
ENDBRANCH   8  28
TORSDOF 9
ENDMDL
MODEL 4
REMARK VINA RESULT: -5.466586237      3.020      6.327
REMARK  9 active torsions:
REMARK  status: ('A' for Active; 'I' for Inactive)
REMARK    1  A    between atoms: C2_2  and  C4_4 
REMARK    2  A    between atoms: C4_4  and  C5_5 
REMARK    3  A    between atoms: C5_5  and  C6_6 
REMARK    4  A    between atoms: C6_6  and  O2_8 
REMARK    5  A    between atoms: O2_8  and  C7_9 
REMARK    6  A    between atoms: C10_12  and  N1_13 
REMARK       I    between atoms: N1_13  and  C11_15 
REMARK    7  A    between atoms: C11_15  and  O4_17 
REMARK    8  A    between atoms: O4_17  and  C12_18 
REMARK    9  A    between atoms: N3_27  and  C18_28 
ROOT
HETATM    1  C5  UNL     1       3.116   5.588  20.922  1.00  0.00     0.180 C 
HETATM    2  C10 UNL     1       3.512   4.448  21.676  1.00  0.00     0.126 C 
HETATM    3  N2  UNL     1       2.719   3.317  21.438  1.00  0.00    -0.336 N 
ATOM      4  H2  UNL     1       2.896   2.420  21.890  1.00  0.00     0.168 HD
HETATM    5  C16 UNL     1       1.654   3.506  20.524  1.00  0.00     0.096 C 
HETATM    6  S1  UNL     1       1.249   2.410  19.444  1.00  0.00    -0.064 SA
HETATM    7  C17 UNL     1       0.886   4.778  20.722  1.00  0.00     0.189 C 
HETATM    8  N3  UNL     1       1.725   5.822  21.238  1.00  0.00    -0.375 N 
ENDROOT
BRANCH   1   9
HETATM    9  C4  UNL     1       3.944   6.806  20.954  1.00  0.00     0.082 C 
BRANCH   9  10
HETATM   10  C2  UNL     1       5.418   6.680  20.971  1.00  0.00    -0.090 C 
HETATM   11  C1  UNL     1       6.105   7.466  21.890  1.00  0.00     0.014 C 
HETATM   12  C3  UNL     1       6.348   5.893  20.158  1.00  0.00     0.042 C 
ENDBRANCH   9  10
ENDBRANCH   1   9
BRANCH   1  13
HETATM   13  C6  UNL     1       3.052   5.333  19.412  1.00  0.00     0.295 C 
HETATM   14  O1  UNL     1       3.706   4.386  18.877  1.00  0.00    -0.262 OA
BRANCH  13  15
HETATM   15  O2  UNL     1       2.325   6.084  18.525  1.00  0.00    -0.314 OA
BRANCH  15  16
HETATM   16  C7  UNL     1       2.790   7.085  17.676  1.00  0.00     0.123 C 
HETATM   17  C8  UNL     1       1.657   7.981  17.178  1.00  0.00     0.040 C 
HETATM   18  C9  UNL     1       3.526   6.639  16.461  1.00  0.00     0.040 C 
ENDBRANCH  15  16
ENDBRANCH  13  15
ENDBRANCH   1  13
BRANCH   2  19
HETATM   19  N1  UNL     1       4.397   4.121  22.705  1.00  0.00    -0.289 N 
HETATM   20  C11 UNL     1       4.584   3.242  23.752  1.00  0.00     0.366 C 
HETATM   21  O3  UNL     1       3.817   2.317  24.057  1.00  0.00    -0.238 OA
ATOM     22  H1  UNL     1       5.189   4.763  22.672  1.00  0.00     0.172 HD
BRANCH  20  23
HETATM   23  O4  UNL     1       5.727   3.333  24.602  1.00  0.00    -0.294 OA
BRANCH  23  24
HETATM   24  C12 UNL     1       6.973   2.924  24.056  1.00  0.00     0.061 C 
HETATM   25  C13 UNL     1       6.819   1.777  23.092  1.00  0.00     0.046 C 
HETATM   26  C14 UNL     1       7.841   2.430  25.222  1.00  0.00     0.046 C 
HETATM   27  C15 UNL     1       7.667   4.059  23.333  1.00  0.00     0.046 C 
ENDBRANCH  23  24
ENDBRANCH  20  23
ENDBRANCH   2  19
BRANCH   8  28
HETATM   28  C18 UNL     1       1.112   7.009  21.477  1.00  0.00     0.019 C 
HETATM   29  C19 UNL     1       0.644   7.271  22.919  1.00  0.00     0.037 C 
HETATM   30  C20 UNL     1       1.536   8.271  20.774  1.00  0.00     0.037 C 
HETATM   31  C21 UNL     1      -0.307   6.865  20.771  1.00  0.00     0.037 C 
ENDBRANCH   8  28
TORSDOF 9
ENDMDL
MODEL 5
REMARK VINA RESULT: -5.458003067      2.707      3.732
REMARK  9 active torsions:
REMARK  status: ('A' for Active; 'I' for Inactive)
REMARK    1  A    between atoms: C2_2  and  C4_4 
REMARK    2  A    between atoms: C4_4  and  C5_5 
REMARK    3  A    between atoms: C5_5  and  C6_6 
REMARK    4  A    between atoms: C6_6  and  O2_8 
REMARK    5  A    between atoms: O2_8  and  C7_9 
REMARK    6  A    between atoms: C10_12  and  N1_13 
REMARK       I    between atoms: N1_13  and  C11_15 
REMARK    7  A    between atoms: C11_15  and  O4_17 
REMARK    8  A    between atoms: O4_17  and  C12_18 
REMARK    9  A    between atoms: N3_27  and  C18_28 
ROOT
HETATM    1  C5  UNL     1       3.059   5.328  20.175  1.00  0.00     0.180 C 
HETATM    2  C10 UNL     1       2.961   5.899  21.475  1.00  0.00     0.126 C 
HETATM    3  N2  UNL     1       4.006   5.523  22.330  1.00  0.00    -0.336 N 
ATOM      4  H2  UNL     1       4.081   5.871  23.287  1.00  0.00     0.168 HD
HETATM    5  C16 UNL     1       4.951   4.627  21.774  1.00  0.00     0.096 C 
HETATM    6  S1  UNL     1       6.514   4.755  22.046  1.00  0.00    -0.064 SA
HETATM    7  C17 UNL     1       4.350   3.501  20.988  1.00  0.00     0.189 C 
HETATM    8  N3  UNL     1       3.121   3.896  20.363  1.00  0.00    -0.375 N 
ENDROOT
BRANCH   1   9
HETATM    9  C4  UNL     1       2.116   5.748  19.123  1.00  0.00     0.082 C 
BRANCH   9  10
HETATM   10  C2  UNL     1       2.221   7.112  18.558  1.00  0.00    -0.090 C 
HETATM   11  C1  UNL     1       1.571   8.129  19.249  1.00  0.00     0.014 C 
HETATM   12  C3  UNL     1       2.863   7.629  17.348  1.00  0.00     0.042 C 
ENDBRANCH   9  10
ENDBRANCH   1   9
BRANCH   1  13
HETATM   13  C6  UNL     1       4.396   5.608  19.480  1.00  0.00     0.295 C 
HETATM   14  O1  UNL     1       5.068   6.652  19.746  1.00  0.00    -0.262 OA
BRANCH  13  15
HETATM   15  O2  UNL     1       4.965   4.800  18.531  1.00  0.00    -0.314 OA
BRANCH  15  16
HETATM   16  C7  UNL     1       5.670   5.189  17.395  1.00  0.00     0.123 C 
HETATM   17  C8  UNL     1       4.916   4.842  16.111  1.00  0.00     0.040 C 
HETATM   18  C9  UNL     1       7.038   4.624  17.233  1.00  0.00     0.040 C 
ENDBRANCH  15  16
ENDBRANCH  13  15
ENDBRANCH   1  13
BRANCH   2  19
HETATM   19  N1  UNL     1       2.056   6.645  22.233  1.00  0.00    -0.289 N 
HETATM   20  C11 UNL     1       0.825   6.574  22.850  1.00  0.00     0.366 C 
HETATM   21  O3  UNL     1       0.093   5.572  22.879  1.00  0.00    -0.238 OA
ATOM     22  H1  UNL     1       2.445   7.575  22.384  1.00  0.00     0.172 HD
BRANCH  20  23
HETATM   23  O4  UNL     1       0.272   7.697  23.535  1.00  0.00    -0.294 OA
BRANCH  23  24
HETATM   24  C12 UNL     1      -0.630   8.519  22.806  1.00  0.00     0.061 C 
HETATM   25  C13 UNL     1      -1.178   7.817  21.592  1.00  0.00     0.046 C 
HETATM   26  C14 UNL     1       0.161   9.738  22.313  1.00  0.00     0.046 C 
HETATM   27  C15 UNL     1      -1.797   8.965  23.661  1.00  0.00     0.046 C 
ENDBRANCH  23  24
ENDBRANCH  20  23
ENDBRANCH   2  19
BRANCH   8  28
HETATM   28  C18 UNL     1       2.485   2.934  19.648  1.00  0.00     0.019 C 
HETATM   29  C19 UNL     1       0.954   2.864  19.787  1.00  0.00     0.037 C 
HETATM   30  C20 UNL     1       2.954   2.529  18.276  1.00  0.00     0.037 C 
HETATM   31  C21 UNL     1       2.869   1.579  20.390  1.00  0.00     0.037 C 
ENDBRANCH   8  28
TORSDOF 9
ENDMDL
