MODEL 1
REMARK VINA RESULT: -3.555647536      0.000      0.000
REMARK  5 active torsions:
REMARK  status: ('A' for Active; 'I' for Inactive)
REMARK    1  A    between atoms: N1_1  and  C1_5 
REMARK    2  A    between atoms: C1_5  and  C2_6 
REMARK    3  A    between atoms: C2_6  and  C3_7 
REMARK    4  A    between atoms: C5_9  and  C6_10 
REMARK    5  A    between atoms: C6_10  and  N2_11 
ROOT
HETATM    1  C3  UNL     1     -63.755  26.972  18.712  1.00  0.00     0.190 C 
HETATM    2  C4  UNL     1     -64.805  27.888  19.248  1.00  0.00     0.067 C 
HETATM    3  C5  UNL     1     -64.143  28.933  18.380  1.00  0.00     0.213 C 
HETATM    4  N3  UNL     1     -63.660  27.848  17.545  1.00  0.00    -0.065 N 
ATOM      5  H31 UNL     1     -64.133  27.609  16.673  1.00  0.00     0.278 HD
ATOM      6  H32 UNL     1     -62.786  27.935  17.028  1.00  0.00     0.278 HD
ENDROOT
BRANCH   1   7
HETATM    7  C2  UNL     1     -62.461  26.992  19.454  1.00  0.00     0.060 C 
BRANCH   7   8
HETATM    8  C1  UNL     1     -61.247  26.976  18.556  1.00  0.00     0.231 C 
BRANCH   8   9
HETATM    9  N1  UNL     1     -60.167  27.592  19.334  1.00  0.00    -0.079 N 
ATOM     10  H13 UNL     1     -60.495  28.096  20.157  1.00  0.00     0.274 HD
ATOM     11  H12 UNL     1     -59.584  26.916  19.828  1.00  0.00     0.274 HD
ATOM     12  H11 UNL     1     -59.649  28.175  18.677  1.00  0.00     0.274 HD
ENDBRANCH   8   9
ENDBRANCH   7   8
ENDBRANCH   1   7
BRANCH   3  13
HETATM   13  C6  UNL     1     -65.133  29.845  17.707  1.00  0.00     0.262 C 
BRANCH  13  14
HETATM   14  N2  UNL     1     -64.543  31.104  17.297  1.00  0.00    -0.077 N 
ATOM     15  H23 UNL     1     -63.533  31.100  17.443  1.00  0.00     0.274 HD
ATOM     16  H22 UNL     1     -64.564  31.205  16.282  1.00  0.00     0.274 HD
ATOM     17  H21 UNL     1     -64.975  31.907  17.754  1.00  0.00     0.274 HD
ENDBRANCH  13  14
ENDBRANCH   3  13
TORSDOF 5
ENDMDL
MODEL 2
REMARK VINA RESULT: -3.471816940      1.128      4.206
REMARK  5 active torsions:
REMARK  status: ('A' for Active; 'I' for Inactive)
REMARK    1  A    between atoms: N1_1  and  C1_5 
REMARK    2  A    between atoms: C1_5  and  C2_6 
REMARK    3  A    between atoms: C2_6  and  C3_7 
REMARK    4  A    between atoms: C5_9  and  C6_10 
REMARK    5  A    between atoms: C6_10  and  N2_11 
ROOT
HETATM    1  C3  UNL     1     -63.715  27.346  17.902  1.00  0.00     0.190 C 
HETATM    2  C4  UNL     1     -62.518  26.597  17.418  1.00  0.00     0.067 C 
HETATM    3  C5  UNL     1     -61.744  27.511  18.339  1.00  0.00     0.213 C 
HETATM    4  N3  UNL     1     -62.962  27.664  19.113  1.00  0.00    -0.065 N 
ATOM      5  H31 UNL     1     -63.105  27.133  19.973  1.00  0.00     0.278 HD
ATOM      6  H32 UNL     1     -63.147  28.522  19.633  1.00  0.00     0.278 HD
ENDROOT
BRANCH   1   7
HETATM    7  C2  UNL     1     -64.015  28.604  17.159  1.00  0.00     0.060 C 
BRANCH   7   8
HETATM    8  C1  UNL     1     -64.806  29.609  17.962  1.00  0.00     0.231 C 
BRANCH   8   9
HETATM    9  N1  UNL     1     -64.666  30.885  17.255  1.00  0.00    -0.079 N 
ATOM     10  H13 UNL     1     -64.026  30.843  16.462  1.00  0.00     0.274 HD
ATOM     11  H12 UNL     1     -65.496  31.152  16.727  1.00  0.00     0.274 HD
ATOM     12  H11 UNL     1     -64.394  31.567  17.963  1.00  0.00     0.274 HD
ENDBRANCH   8   9
ENDBRANCH   7   8
ENDBRANCH   1   7
BRANCH   3  13
HETATM   13  C6  UNL     1     -60.629  26.803  19.062  1.00  0.00     0.262 C 
BRANCH  13  14
HETATM   14  N2  UNL     1     -59.830  27.701  19.871  1.00  0.00    -0.077 N 
ATOM     15  H23 UNL     1     -60.417  28.390  20.343  1.00  0.00     0.274 HD
ATOM     16  H22 UNL     1     -59.452  27.220  20.688  1.00  0.00     0.274 HD
ATOM     17  H21 UNL     1     -59.089  28.155  19.338  1.00  0.00     0.274 HD
ENDBRANCH  13  14
ENDBRANCH   3  13
TORSDOF 5
ENDMDL
MODEL 3
REMARK VINA RESULT: -3.341685272      2.515      4.003
REMARK  5 active torsions:
REMARK  status: ('A' for Active; 'I' for Inactive)
REMARK    1  A    between atoms: N1_1  and  C1_5 
REMARK    2  A    between atoms: C1_5  and  C2_6 
REMARK    3  A    between atoms: C2_6  and  C3_7 
REMARK    4  A    between atoms: C5_9  and  C6_10 
REMARK    5  A    between atoms: C6_10  and  N2_11 
ROOT
HETATM    1  C3  UNL     1     -62.906  27.664  18.807  1.00  0.00     0.190 C 
HETATM    2  C4  UNL     1     -64.336  27.388  19.134  1.00  0.00     0.067 C 
HETATM    3  C5  UNL     1     -63.836  26.022  19.543  1.00  0.00     0.213 C 
HETATM    4  N3  UNL     1     -62.539  26.631  19.773  1.00  0.00    -0.065 N 
ATOM      5  H31 UNL     1     -62.238  26.880  20.716  1.00  0.00     0.278 HD
ATOM      6  H32 UNL     1     -61.681  26.092  19.661  1.00  0.00     0.278 HD
ENDROOT
BRANCH   1   7
HETATM    7  C2  UNL     1     -62.478  27.242  17.442  1.00  0.00     0.060 C 
BRANCH   7   8
HETATM    8  C1  UNL     1     -63.423  27.678  16.348  1.00  0.00     0.231 C 
BRANCH   8   9
HETATM    9  N1  UNL     1     -62.634  28.535  15.457  1.00  0.00    -0.079 N 
ATOM     10  H13 UNL     1     -61.668  28.227  15.345  1.00  0.00     0.274 HD
ATOM     11  H12 UNL     1     -62.901  28.459  14.476  1.00  0.00     0.274 HD
ATOM     12  H11 UNL     1     -62.720  29.480  15.832  1.00  0.00     0.274 HD
ENDBRANCH   8   9
ENDBRANCH   7   8
ENDBRANCH   1   7
BRANCH   3  13
HETATM   13  C6  UNL     1     -64.510  25.501  20.784  1.00  0.00     0.262 C 
BRANCH  13  14
HETATM   14  N2  UNL     1     -64.964  24.132  20.640  1.00  0.00    -0.077 N 
ATOM     15  H23 UNL     1     -65.739  23.934  21.273  1.00  0.00     0.274 HD
ATOM     16  H22 UNL     1     -65.441  23.997  19.748  1.00  0.00     0.274 HD
ATOM     17  H21 UNL     1     -64.212  23.454  20.759  1.00  0.00     0.274 HD
ENDBRANCH  13  14
ENDBRANCH   3  13
TORSDOF 5
ENDMDL
MODEL 4
REMARK VINA RESULT: -3.289058072      2.134      4.202
REMARK  5 active torsions:
REMARK  status: ('A' for Active; 'I' for Inactive)
REMARK    1  A    between atoms: N1_1  and  C1_5 
REMARK    2  A    between atoms: C1_5  and  C2_6 
REMARK    3  A    between atoms: C2_6  and  C3_7 
REMARK    4  A    between atoms: C5_9  and  C6_10 
REMARK    5  A    between atoms: C6_10  and  N2_11 
ROOT
HETATM    1  C3  UNL     1     -64.331  27.059  18.736  1.00  0.00     0.190 C 
HETATM    2  C4  UNL     1     -63.281  27.347  17.714  1.00  0.00     0.067 C 
HETATM    3  C5  UNL     1     -62.376  27.563  18.904  1.00  0.00     0.213 C 
HETATM    4  N3  UNL     1     -63.258  26.692  19.658  1.00  0.00    -0.065 N 
ATOM      5  H31 UNL     1     -63.016  25.713  19.816  1.00  0.00     0.278 HD
ATOM      6  H32 UNL     1     -63.371  26.808  20.665  1.00  0.00     0.278 HD
ENDROOT
BRANCH   1   7
HETATM    7  C2  UNL     1     -65.047  28.257  19.260  1.00  0.00     0.060 C 
BRANCH   7   8
HETATM    8  C1  UNL     1     -66.454  27.968  19.724  1.00  0.00     0.231 C 
BRANCH   8   9
HETATM    9  N1  UNL     1     -66.336  27.555  21.126  1.00  0.00    -0.079 N 
ATOM     10  H13 UNL     1     -66.806  28.184  21.777  1.00  0.00     0.274 HD
ATOM     11  H12 UNL     1     -66.876  26.720  21.352  1.00  0.00     0.274 HD
ATOM     12  H11 UNL     1     -65.337  27.456  21.303  1.00  0.00     0.274 HD
ENDBRANCH   8   9
ENDBRANCH   7   8
ENDBRANCH   1   7
BRANCH   3  13
HETATM   13  C6  UNL     1     -60.990  27.014  18.689  1.00  0.00     0.262 C 
BRANCH  13  14
HETATM   14  N2  UNL     1     -59.991  27.694  19.489  1.00  0.00    -0.077 N 
ATOM     15  H23 UNL     1     -59.523  28.423  18.949  1.00  0.00     0.274 HD
ATOM     16  H22 UNL     1     -60.428  28.275  20.205  1.00  0.00     0.274 HD
ATOM     17  H21 UNL     1     -59.314  27.053  19.901  1.00  0.00     0.274 HD
ENDBRANCH  13  14
ENDBRANCH   3  13
TORSDOF 5
ENDMDL
MODEL 5
REMARK VINA RESULT: -3.288699526      1.871      2.398
REMARK  5 active torsions:
REMARK  status: ('A' for Active; 'I' for Inactive)
REMARK    1  A    between atoms: N1_1  and  C1_5 
REMARK    2  A    between atoms: C1_5  and  C2_6 
REMARK    3  A    between atoms: C2_6  and  C3_7 
REMARK    4  A    between atoms: C5_9  and  C6_10 
REMARK    5  A    between atoms: C6_10  and  N2_11 
ROOT
HETATM    1  C3  UNL     1     -62.409  27.571  17.980  1.00  0.00     0.190 C 
HETATM    2  C4  UNL     1     -63.787  27.060  17.721  1.00  0.00     0.067 C 
HETATM    3  C5  UNL     1     -64.023  27.352  19.184  1.00  0.00     0.213 C 
HETATM    4  N3  UNL     1     -62.959  28.335  19.099  1.00  0.00    -0.065 N 
ATOM      5  H31 UNL     1     -63.171  29.328  19.000  1.00  0.00     0.278 HD
ATOM      6  H32 UNL     1     -62.385  28.557  19.912  1.00  0.00     0.278 HD
ENDROOT
BRANCH   1   7
HETATM    7  C2  UNL     1     -61.446  26.557  18.497  1.00  0.00     0.060 C 
BRANCH   7   8
HETATM    8  C1  UNL     1     -60.155  27.151  19.009  1.00  0.00     0.231 C 
BRANCH   8   9
HETATM    9  N1  UNL     1     -60.081  26.784  20.426  1.00  0.00    -0.079 N 
ATOM     10  H13 UNL     1     -60.591  25.930  20.653  1.00  0.00     0.274 HD
ATOM     11  H12 UNL     1     -59.159  26.455  20.714  1.00  0.00     0.274 HD
ATOM     12  H11 UNL     1     -60.402  27.602  20.943  1.00  0.00     0.274 HD
ENDBRANCH   8   9
ENDBRANCH   7   8
ENDBRANCH   1   7
BRANCH   3  13
HETATM   13  C6  UNL     1     -65.387  27.931  19.451  1.00  0.00     0.262 C 
BRANCH  13  14
HETATM   14  N2  UNL     1     -65.922  27.530  20.737  1.00  0.00    -0.077 N 
ATOM     15  H23 UNL     1     -65.194  27.528  21.452  1.00  0.00     0.274 HD
ATOM     16  H22 UNL     1     -66.531  28.252  21.122  1.00  0.00     0.274 HD
ATOM     17  H21 UNL     1     -66.399  26.629  20.700  1.00  0.00     0.274 HD
ENDBRANCH  13  14
ENDBRANCH   3  13
TORSDOF 5
ENDMDL
