MODEL 1
REMARK VINA RESULT: -7.518012476      0.000      0.000
REMARK  4 active torsions:
REMARK  status: ('A' for Active; 'I' for Inactive)
REMARK    1  A    between atoms: N1_1  and  O1_4 
REMARK    2  A    between atoms: O1_4  and  C1_5 
REMARK    3  A    between atoms: C1_5  and  C2_6 
REMARK    4  A    between atoms: C2_6  and  N2_7 
ROOT
HETATM    1  N2  UNL     1      -9.421  30.569  17.509  1.00  0.00    -0.262 N 
HETATM    2  C3  UNL     1      -9.248  30.009  18.729  1.00  0.00     0.331 A 
HETATM    3  O2  UNL     1      -9.576  28.785  18.845  1.00  0.00    -0.246 OA
HETATM    4  N3  UNL     1      -8.756  30.686  19.783  1.00  0.00    -0.292 N 
ATOM      5  H3  UNL     1      -8.648  30.204  20.676  1.00  0.00     0.172 HD
HETATM    6  C4  UNL     1      -8.400  31.981  19.691  1.00  0.00     0.146 A 
HETATM    7  N4  UNL     1      -7.893  32.895  20.548  1.00  0.00    -0.292 N 
ATOM      8  H4  UNL     1      -7.669  32.729  21.529  1.00  0.00     0.172 HD
HETATM    9  C5  UNL     1      -7.731  34.061  19.892  1.00  0.00     0.326 A 
HETATM   10  O3  UNL     1      -7.274  35.118  20.411  1.00  0.00    -0.247 OA
HETATM   11  N5  UNL     1      -8.141  33.856  18.627  1.00  0.00    -0.301 N 
ATOM     12  H5  UNL     1      -8.136  34.564  17.892  1.00  0.00     0.171 HD
HETATM   13  C6  UNL     1      -8.561  32.588  18.462  1.00  0.00     0.150 A 
HETATM   14  C7  UNL     1      -9.072  31.862  17.387  1.00  0.00     0.282 A 
HETATM   15  O4  UNL     1      -9.215  32.420  16.281  1.00  0.00    -0.265 OA
ENDROOT
BRANCH   1  16
HETATM   16  C2  UNL     1      -9.957  29.780  16.415  1.00  0.00     0.166 C 
BRANCH  16  17
HETATM   17  C1  UNL     1     -11.490  29.799  16.470  1.00  0.00     0.220 C 
BRANCH  17  18
HETATM   18  O1  UNL     1     -11.961  30.844  15.692  1.00  0.00    -0.286 OA
BRANCH  18  19
HETATM   19  N1  UNL     1     -12.497  31.809  16.401  1.00  0.00    -0.311 N 
ATOM     20  H12 UNL     1     -13.492  32.031  16.365  1.00  0.00     0.184 HD
ATOM     21  H11 UNL     1     -11.818  32.302  16.982  1.00  0.00     0.184 HD
ENDBRANCH  18  19
ENDBRANCH  17  18
ENDBRANCH  16  17
ENDBRANCH   1  16
TORSDOF 4
ENDMDL
MODEL 2
REMARK VINA RESULT: -7.291660031      1.606      5.052
REMARK  4 active torsions:
REMARK  status: ('A' for Active; 'I' for Inactive)
REMARK    1  A    between atoms: N1_1  and  O1_4 
REMARK    2  A    between atoms: O1_4  and  C1_5 
REMARK    3  A    between atoms: C1_5  and  C2_6 
REMARK    4  A    between atoms: C2_6  and  N2_7 
ROOT
HETATM    1  N2  UNL     1      -8.479  32.265  18.493  1.00  0.00    -0.262 N 
HETATM    2  C3  UNL     1      -9.037  31.566  19.508  1.00  0.00     0.331 A 
HETATM    3  O2  UNL     1      -8.575  31.786  20.673  1.00  0.00    -0.246 OA
HETATM    4  N3  UNL     1     -10.032  30.677  19.326  1.00  0.00    -0.292 N 
ATOM      5  H3  UNL     1     -10.411  30.183  20.135  1.00  0.00     0.172 HD
HETATM    6  C4  UNL     1     -10.541  30.423  18.107  1.00  0.00     0.146 A 
HETATM    7  N4  UNL     1     -11.510  29.611  17.627  1.00  0.00    -0.292 N 
ATOM      8  H4  UNL     1     -12.085  28.979  18.184  1.00  0.00     0.172 HD
HETATM    9  C5  UNL     1     -11.591  29.775  16.291  1.00  0.00     0.326 A 
HETATM   10  O3  UNL     1     -12.400  29.161  15.541  1.00  0.00    -0.247 OA
HETATM   11  N5  UNL     1     -10.666  30.693  15.955  1.00  0.00    -0.301 N 
ATOM     12  H5  UNL     1     -10.493  31.023  15.006  1.00  0.00     0.171 HD
HETATM   13  C6  UNL     1      -9.999  31.117  17.045  1.00  0.00     0.150 A 
HETATM   14  C7  UNL     1      -8.970  32.032  17.262  1.00  0.00     0.282 A 
HETATM   15  O4  UNL     1      -8.485  32.654  16.296  1.00  0.00    -0.265 OA
ENDROOT
BRANCH   1  16
HETATM   16  C2  UNL     1      -7.410  33.209  18.761  1.00  0.00     0.166 C 
BRANCH  16  17
HETATM   17  C1  UNL     1      -8.003  34.596  19.036  1.00  0.00     0.220 C 
BRANCH  17  18
HETATM   18  O1  UNL     1      -7.657  34.993  20.318  1.00  0.00    -0.286 OA
BRANCH  18  19
HETATM   19  N1  UNL     1      -6.758  34.214  20.871  1.00  0.00    -0.311 N 
ATOM     20  H12 UNL     1      -6.838  33.197  20.875  1.00  0.00     0.184 HD
ATOM     21  H11 UNL     1      -5.984  34.732  21.288  1.00  0.00     0.184 HD
ENDBRANCH  18  19
ENDBRANCH  17  18
ENDBRANCH  16  17
ENDBRANCH   1  16
TORSDOF 4
ENDMDL
MODEL 3
REMARK VINA RESULT: -7.290075498      1.735      5.467
REMARK  4 active torsions:
REMARK  status: ('A' for Active; 'I' for Inactive)
REMARK    1  A    between atoms: N1_1  and  O1_4 
REMARK    2  A    between atoms: O1_4  and  C1_5 
REMARK    3  A    between atoms: C1_5  and  C2_6 
REMARK    4  A    between atoms: C2_6  and  N2_7 
ROOT
HETATM    1  N2  UNL     1      -8.138  32.749  17.794  1.00  0.00    -0.262 N 
HETATM    2  C3  UNL     1      -8.054  33.015  16.470  1.00  0.00     0.331 A 
HETATM    3  O2  UNL     1      -7.165  33.851  16.112  1.00  0.00    -0.246 OA
HETATM    4  N3  UNL     1      -8.856  32.438  15.554  1.00  0.00    -0.292 N 
ATOM      5  H3  UNL     1      -8.739  32.680  14.570  1.00  0.00     0.172 HD
HETATM    6  C4  UNL     1      -9.805  31.550  15.903  1.00  0.00     0.146 A 
HETATM    7  N4  UNL     1     -10.730  30.829  15.231  1.00  0.00    -0.292 N 
ATOM      8  H4  UNL     1     -10.877  30.845  14.221  1.00  0.00     0.172 HD
HETATM    9  C5  UNL     1     -11.427  30.087  16.114  1.00  0.00     0.326 A 
HETATM   10  O3  UNL     1     -12.366  29.301  15.806  1.00  0.00    -0.247 OA
HETATM   11  N5  UNL     1     -10.922  30.356  17.332  1.00  0.00    -0.301 N 
ATOM     12  H5  UNL     1     -11.252  29.940  18.203  1.00  0.00     0.171 HD
HETATM   13  C6  UNL     1      -9.922  31.252  17.245  1.00  0.00     0.150 A 
HETATM   14  C7  UNL     1      -9.078  31.864  18.171  1.00  0.00     0.282 A 
HETATM   15  O4  UNL     1      -9.192  31.589  19.382  1.00  0.00    -0.265 OA
ENDROOT
BRANCH   1  16
HETATM   16  C2  UNL     1      -7.241  33.407  18.727  1.00  0.00     0.166 C 
BRANCH  16  17
HETATM   17  C1  UNL     1      -7.901  34.685  19.260  1.00  0.00     0.220 C 
BRANCH  17  18
HETATM   18  O1  UNL     1      -7.717  34.754  20.632  1.00  0.00    -0.286 OA
BRANCH  18  19
HETATM   19  N1  UNL     1      -7.772  33.580  21.216  1.00  0.00    -0.311 N 
ATOM     20  H12 UNL     1      -8.341  33.403  22.044  1.00  0.00     0.184 HD
ATOM     21  H11 UNL     1      -7.193  32.878  20.755  1.00  0.00     0.184 HD
ENDBRANCH  18  19
ENDBRANCH  17  18
ENDBRANCH  16  17
ENDBRANCH   1  16
TORSDOF 4
ENDMDL
MODEL 4
REMARK VINA RESULT: -7.286382705      2.530      4.563
REMARK  4 active torsions:
REMARK  status: ('A' for Active; 'I' for Inactive)
REMARK    1  A    between atoms: N1_1  and  O1_4 
REMARK    2  A    between atoms: O1_4  and  C1_5 
REMARK    3  A    between atoms: C1_5  and  C2_6 
REMARK    4  A    between atoms: C2_6  and  N2_7 
ROOT
HETATM    1  N2  UNL     1     -10.054  30.006  17.833  1.00  0.00    -0.262 N 
HETATM    2  C3  UNL     1      -9.202  30.996  18.187  1.00  0.00     0.331 A 
HETATM    3  O2  UNL     1      -8.903  31.076  19.421  1.00  0.00    -0.246 OA
HETATM    4  N3  UNL     1      -8.679  31.865  17.301  1.00  0.00    -0.292 N 
ATOM      5  H3  UNL     1      -8.040  32.588  17.633  1.00  0.00     0.172 HD
HETATM    6  C4  UNL     1      -8.976  31.805  15.990  1.00  0.00     0.146 A 
HETATM    7  N4  UNL     1      -8.619  32.516  14.897  1.00  0.00    -0.292 N 
ATOM      8  H4  UNL     1      -7.985  33.315  14.890  1.00  0.00     0.172 HD
HETATM    9  C5  UNL     1      -9.237  31.995  13.819  1.00  0.00     0.326 A 
HETATM   10  O3  UNL     1      -9.114  32.431  12.641  1.00  0.00    -0.247 OA
HETATM   11  N5  UNL     1      -9.976  30.959  14.258  1.00  0.00    -0.301 N 
ATOM     12  H5  UNL     1     -10.558  30.368  13.664  1.00  0.00     0.171 HD
HETATM   13  C6  UNL     1      -9.842  30.809  15.589  1.00  0.00     0.150 A 
HETATM   14  C7  UNL     1     -10.368  29.922  16.527  1.00  0.00     0.282 A 
HETATM   15  O4  UNL     1     -11.151  29.026  16.155  1.00  0.00    -0.265 OA
ENDROOT
BRANCH   1  16
HETATM   16  C2  UNL     1     -10.580  29.103  18.840  1.00  0.00     0.166 C 
BRANCH  16  17
HETATM   17  C1  UNL     1      -9.603  27.939  19.049  1.00  0.00     0.220 C 
BRANCH  17  18
HETATM   18  O1  UNL     1     -10.222  26.955  19.802  1.00  0.00    -0.286 OA
BRANCH  18  19
HETATM   19  N1  UNL     1     -11.463  27.250  20.111  1.00  0.00    -0.311 N 
ATOM     20  H12 UNL     1     -11.855  28.182  19.984  1.00  0.00     0.184 HD
ATOM     21  H11 UNL     1     -11.980  26.454  20.487  1.00  0.00     0.184 HD
ENDBRANCH  18  19
ENDBRANCH  17  18
ENDBRANCH  16  17
ENDBRANCH   1  16
TORSDOF 4
ENDMDL
MODEL 5
REMARK VINA RESULT: -7.219818754      1.827      1.909
REMARK  4 active torsions:
REMARK  status: ('A' for Active; 'I' for Inactive)
REMARK    1  A    between atoms: N1_1  and  O1_4 
REMARK    2  A    between atoms: O1_4  and  C1_5 
REMARK    3  A    between atoms: C1_5  and  C2_6 
REMARK    4  A    between atoms: C2_6  and  N2_7 
ROOT
HETATM    1  N2  UNL     1     -10.264  31.476  16.944  1.00  0.00    -0.262 N 
HETATM    2  C3  UNL     1     -10.759  30.835  18.028  1.00  0.00     0.331 A 
HETATM    3  O2  UNL     1     -11.744  30.055  17.829  1.00  0.00    -0.246 OA
HETATM    4  N3  UNL     1     -10.254  30.993  19.267  1.00  0.00    -0.292 N 
ATOM      5  H3  UNL     1     -10.672  30.479  20.042  1.00  0.00     0.172 HD
HETATM    6  C4  UNL     1      -9.213  31.811  19.509  1.00  0.00     0.146 A 
HETATM    7  N4  UNL     1      -8.511  32.163  20.609  1.00  0.00    -0.292 N 
ATOM      8  H4  UNL     1      -8.680  31.821  21.556  1.00  0.00     0.172 HD
HETATM    9  C5  UNL     1      -7.552  33.039  20.251  1.00  0.00     0.326 A 
HETATM   10  O3  UNL     1      -6.723  33.561  21.048  1.00  0.00    -0.247 OA
HETATM   11  N5  UNL     1      -7.669  33.221  18.922  1.00  0.00    -0.301 N 
ATOM     12  H5  UNL     1      -7.074  33.835  18.366  1.00  0.00     0.171 HD
HETATM   13  C6  UNL     1      -8.680  32.483  18.428  1.00  0.00     0.150 A 
HETATM   14  C7  UNL     1      -9.222  32.300  17.156  1.00  0.00     0.282 A 
HETATM   15  O4  UNL     1      -8.734  32.912  16.186  1.00  0.00    -0.265 OA
ENDROOT
BRANCH   1  16
HETATM   16  C2  UNL     1     -10.856  31.259  15.637  1.00  0.00     0.166 C 
BRANCH  16  17
HETATM   17  C1  UNL     1      -9.990  30.279  14.835  1.00  0.00     0.220 C 
BRANCH  17  18
HETATM   18  O1  UNL     1      -9.984  30.661  13.503  1.00  0.00    -0.286 OA
BRANCH  18  19
HETATM   19  N1  UNL     1      -9.566  31.893  13.325  1.00  0.00    -0.311 N 
ATOM     20  H12 UNL     1      -9.675  32.388  12.441  1.00  0.00     0.184 HD
ATOM     21  H11 UNL     1      -9.128  32.288  14.157  1.00  0.00     0.184 HD
ENDBRANCH  18  19
ENDBRANCH  17  18
ENDBRANCH  16  17
ENDBRANCH   1  16
TORSDOF 4
ENDMDL
