MODEL 1
REMARK VINA RESULT: -7.999446251      0.000      0.000
REMARK  3 active torsions:
REMARK  status: ('A' for Active; 'I' for Inactive)
REMARK    1  A    between atoms: C2_7  and  O1_8 
REMARK    2  A    between atoms: O1_8  and  C3_9 
REMARK    3  A    between atoms: N4_15  and  N5_16 
ROOT
HETATM    1  N1  UNL     1      -8.010  32.212  22.426  1.00  0.00    -0.234 N 
ATOM      2  H11 UNL     1      -7.658  32.703  23.248  1.00  0.00     0.174 HD
ATOM      3  H12 UNL     1      -8.425  31.291  22.565  1.00  0.00     0.174 HD
HETATM    4  C1  UNL     1      -7.917  32.773  21.264  1.00  0.00     0.683 A 
HETATM    5  N2  UNL     1      -8.391  32.116  20.162  1.00  0.00    -0.155 N 
ATOM      6  H2  UNL     1      -8.808  31.193  20.290  1.00  0.00     0.188 HD
HETATM    7  C2  UNL     1      -8.333  32.624  18.928  1.00  0.00     0.244 A 
HETATM    8  N6  UNL     1      -7.768  33.863  18.794  1.00  0.00    -0.273 N 
ATOM      9  H6  UNL     1      -7.706  34.285  17.867  1.00  0.00     0.174 HD
HETATM   10  C6  UNL     1      -7.293  34.537  19.855  1.00  0.00     0.341 A 
HETATM   11  O3  UNL     1      -6.767  35.673  19.783  1.00  0.00    -0.246 OA
HETATM   12  N7  UNL     1      -7.377  33.974  21.082  1.00  0.00    -0.141 N 
ATOM     13  H7  UNL     1      -7.017  34.484  21.888  1.00  0.00     0.189 HD
ENDROOT
BRANCH   7  14
HETATM   14  O1  UNL     1      -8.807  31.963  17.829  1.00  0.00    -0.292 OA
BRANCH  14  15
HETATM   15  C3  UNL     1      -9.810  31.028  17.794  1.00  0.00     0.275 C 
HETATM   16  C4  UNL     1      -9.280  29.587  17.886  1.00  0.00     0.180 C 
HETATM   17  N3  UNL     1     -10.440  28.843  17.446  1.00  0.00    -0.337 N 
HETATM   18  C5  UNL     1     -11.111  29.669  16.505  1.00  0.00     0.339 C 
ATOM     19  H3  UNL     1     -10.720  27.910  17.751  1.00  0.00     0.164 HD
HETATM   20  O2  UNL     1     -12.120  29.361  15.791  1.00  0.00    -0.245 OA
HETATM   21  N4  UNL     1     -10.467  30.946  16.473  1.00  0.00    -0.217 N 
BRANCH  21  22
HETATM   22  N5  UNL     1     -10.458  31.891  15.446  1.00  0.00    -0.337 N 
ATOM     23  H52 UNL     1      -9.869  32.717  15.346  1.00  0.00     0.177 HD
ATOM     24  H51 UNL     1     -11.043  31.919  14.611  1.00  0.00     0.177 HD
ENDBRANCH  21  22
ENDBRANCH  14  15
ENDBRANCH   7  14
TORSDOF 3
ENDMDL
MODEL 2
REMARK VINA RESULT: -7.809806372      1.549      6.129
REMARK  3 active torsions:
REMARK  status: ('A' for Active; 'I' for Inactive)
REMARK    1  A    between atoms: C2_7  and  O1_8 
REMARK    2  A    between atoms: O1_8  and  C3_9 
REMARK    3  A    between atoms: N4_15  and  N5_16 
ROOT
HETATM    1  N1  UNL     1     -12.518  31.762  16.494  1.00  0.00    -0.234 N 
ATOM      2  H11 UNL     1     -12.998  31.410  15.665  1.00  0.00     0.174 HD
ATOM      3  H12 UNL     1     -12.894  32.597  16.943  1.00  0.00     0.174 HD
HETATM    4  C1  UNL     1     -11.469  31.141  16.931  1.00  0.00     0.683 A 
HETATM    5  N2  UNL     1     -10.826  31.612  18.041  1.00  0.00    -0.155 N 
ATOM      6  H2  UNL     1     -11.194  32.447  18.498  1.00  0.00     0.188 HD
HETATM    7  C2  UNL     1      -9.738  31.031  18.556  1.00  0.00     0.244 A 
HETATM    8  N6  UNL     1      -9.271  29.914  17.918  1.00  0.00    -0.273 N 
ATOM      9  H6  UNL     1      -8.443  29.442  18.281  1.00  0.00     0.174 HD
HETATM   10  C6  UNL     1      -9.880  29.424  16.825  1.00  0.00     0.341 A 
HETATM   11  O3  UNL     1      -9.491  28.405  16.206  1.00  0.00    -0.246 OA
HETATM   12  N7  UNL     1     -10.977  30.053  16.347  1.00  0.00    -0.141 N 
ATOM     13  H7  UNL     1     -11.440  29.682  15.517  1.00  0.00     0.189 HD
ENDROOT
BRANCH   7  14
HETATM   14  O1  UNL     1      -9.097  31.506  19.667  1.00  0.00    -0.292 OA
BRANCH  14  15
HETATM   15  C3  UNL     1      -8.703  32.797  19.907  1.00  0.00     0.275 C 
HETATM   16  C4  UNL     1      -7.820  33.367  18.785  1.00  0.00     0.180 C 
HETATM   17  N3  UNL     1      -7.252  34.522  19.444  1.00  0.00    -0.337 N 
HETATM   18  C5  UNL     1      -7.134  34.179  20.817  1.00  0.00     0.339 C 
ATOM     19  H3  UNL     1      -6.990  35.407  19.010  1.00  0.00     0.164 HD
HETATM   20  O2  UNL     1      -6.582  34.865  21.738  1.00  0.00    -0.245 OA
HETATM   21  N4  UNL     1      -7.746  32.903  21.027  1.00  0.00    -0.217 N 
BRANCH  21  22
HETATM   22  N5  UNL     1      -7.501  31.977  22.042  1.00  0.00    -0.337 N 
ATOM     23  H52 UNL     1      -6.642  31.468  22.246  1.00  0.00     0.177 HD
ATOM     24  H51 UNL     1      -8.144  31.646  22.762  1.00  0.00     0.177 HD
ENDBRANCH  21  22
ENDBRANCH  14  15
ENDBRANCH   7  14
TORSDOF 3
ENDMDL
MODEL 3
REMARK VINA RESULT: -7.771383101      1.277      1.972
REMARK  3 active torsions:
REMARK  status: ('A' for Active; 'I' for Inactive)
REMARK    1  A    between atoms: C2_7  and  O1_8 
REMARK    2  A    between atoms: O1_8  and  C3_9 
REMARK    3  A    between atoms: N4_15  and  N5_16 
ROOT
HETATM    1  N1  UNL     1      -6.905  33.010  23.418  1.00  0.00    -0.234 N 
ATOM      2  H11 UNL     1      -6.337  33.726  23.871  1.00  0.00     0.174 HD
ATOM      3  H12 UNL     1      -7.201  32.212  23.980  1.00  0.00     0.174 HD
HETATM    4  C1  UNL     1      -7.219  33.146  22.170  1.00  0.00     0.683 A 
HETATM    5  N2  UNL     1      -7.981  32.187  21.562  1.00  0.00    -0.155 N 
ATOM      6  H2  UNL     1      -8.282  31.384  22.115  1.00  0.00     0.188 HD
HETATM    7  C2  UNL     1      -8.349  32.252  20.279  1.00  0.00     0.244 A 
HETATM    8  N6  UNL     1      -7.927  33.342  19.567  1.00  0.00    -0.273 N 
ATOM      9  H6  UNL     1      -8.187  33.427  18.585  1.00  0.00     0.174 HD
HETATM   10  C6  UNL     1      -7.177  34.303  20.134  1.00  0.00     0.341 A 
HETATM   11  O3  UNL     1      -6.767  35.319  19.525  1.00  0.00    -0.246 OA
HETATM   12  N7  UNL     1      -6.834  34.186  21.436  1.00  0.00    -0.141 N 
ATOM     13  H7  UNL     1      -6.265  34.914  21.867  1.00  0.00     0.189 HD
ENDROOT
BRANCH   7  14
HETATM   14  O1  UNL     1      -9.110  31.290  19.674  1.00  0.00    -0.292 OA
BRANCH  14  15
HETATM   15  C3  UNL     1      -9.221  31.046  18.329  1.00  0.00     0.275 C 
HETATM   16  C4  UNL     1     -10.520  31.608  17.730  1.00  0.00     0.180 C 
HETATM   17  N3  UNL     1     -10.565  30.902  16.468  1.00  0.00    -0.337 N 
HETATM   18  C5  UNL     1      -9.963  29.636  16.698  1.00  0.00     0.339 C 
ATOM     19  H3  UNL     1     -10.953  31.244  15.589  1.00  0.00     0.164 HD
HETATM   20  O2  UNL     1      -9.890  28.658  15.884  1.00  0.00    -0.245 OA
HETATM   21  N4  UNL     1      -9.428  29.615  18.025  1.00  0.00    -0.217 N 
BRANCH  21  22
HETATM   22  N5  UNL     1      -9.164  28.513  18.840  1.00  0.00    -0.337 N 
ATOM     23  H52 UNL     1      -8.564  28.460  19.662  1.00  0.00     0.177 HD
ATOM     24  H51 UNL     1      -9.527  27.565  18.753  1.00  0.00     0.177 HD
ENDBRANCH  21  22
ENDBRANCH  14  15
ENDBRANCH   7  14
TORSDOF 3
ENDMDL
MODEL 4
REMARK VINA RESULT: -7.730492113      1.606      1.854
REMARK  3 active torsions:
REMARK  status: ('A' for Active; 'I' for Inactive)
REMARK    1  A    between atoms: C2_7  and  O1_8 
REMARK    2  A    between atoms: O1_8  and  C3_9 
REMARK    3  A    between atoms: N4_15  and  N5_16 
ROOT
HETATM    1  N1  UNL     1      -6.520  33.649  20.931  1.00  0.00    -0.234 N 
ATOM      2  H11 UNL     1      -5.657  34.181  20.814  1.00  0.00     0.174 HD
ATOM      3  H12 UNL     1      -6.786  33.378  21.877  1.00  0.00     0.174 HD
HETATM    4  C1  UNL     1      -7.225  33.348  19.888  1.00  0.00     0.683 A 
HETATM    5  N2  UNL     1      -8.382  32.635  20.044  1.00  0.00    -0.155 N 
ATOM      6  H2  UNL     1      -8.658  32.359  20.987  1.00  0.00     0.188 HD
HETATM    7  C2  UNL     1      -9.166  32.285  19.021  1.00  0.00     0.244 A 
HETATM    8  N6  UNL     1      -8.765  32.672  17.771  1.00  0.00    -0.273 N 
ATOM      9  H6  UNL     1      -9.338  32.423  16.965  1.00  0.00     0.174 HD
HETATM   10  C6  UNL     1      -7.635  33.373  17.583  1.00  0.00     0.341 A 
HETATM   11  O3  UNL     1      -7.226  33.750  16.459  1.00  0.00    -0.246 OA
HETATM   12  N7  UNL     1      -6.878  33.701  18.654  1.00  0.00    -0.141 N 
ATOM     13  H7  UNL     1      -6.020  34.233  18.512  1.00  0.00     0.189 HD
ENDROOT
BRANCH   7  14
HETATM   14  O1  UNL     1     -10.322  31.571  19.182  1.00  0.00    -0.292 OA
BRANCH  14  15
HETATM   15  C3  UNL     1     -10.686  30.426  18.521  1.00  0.00     0.275 C 
HETATM   16  C4  UNL     1      -9.490  29.705  17.880  1.00  0.00     0.180 C 
HETATM   17  N3  UNL     1     -10.168  28.811  16.967  1.00  0.00    -0.337 N 
HETATM   18  C5  UNL     1     -11.347  29.484  16.552  1.00  0.00     0.339 C 
ATOM     19  H3  UNL     1      -9.860  27.882  16.679  1.00  0.00     0.164 HD
HETATM   20  O2  UNL     1     -12.181  29.104  15.666  1.00  0.00    -0.245 OA
HETATM   21  N4  UNL     1     -11.470  30.699  17.298  1.00  0.00    -0.217 N 
BRANCH  21  22
HETATM   22  N5  UNL     1     -12.163  31.862  16.959  1.00  0.00    -0.337 N 
ATOM     23  H52 UNL     1     -12.617  32.535  17.577  1.00  0.00     0.177 HD
ATOM     24  H51 UNL     1     -12.336  32.244  16.030  1.00  0.00     0.177 HD
ENDBRANCH  21  22
ENDBRANCH  14  15
ENDBRANCH   7  14
TORSDOF 3
ENDMDL
MODEL 5
REMARK VINA RESULT: -7.641520010      1.399      6.319
REMARK  3 active torsions:
REMARK  status: ('A' for Active; 'I' for Inactive)
REMARK    1  A    between atoms: C2_7  and  O1_8 
REMARK    2  A    between atoms: O1_8  and  C3_9 
REMARK    3  A    between atoms: N4_15  and  N5_16 
ROOT
HETATM    1  N1  UNL     1      -9.455  31.916  13.354  1.00  0.00    -0.234 N 
ATOM      2  H11 UNL     1      -9.974  31.680  12.507  1.00  0.00     0.174 HD
ATOM      3  H12 UNL     1      -8.667  32.557  13.264  1.00  0.00     0.174 HD
HETATM    4  C1  UNL     1      -9.815  31.398  14.484  1.00  0.00     0.683 A 
HETATM    5  N2  UNL     1      -9.119  31.713  15.618  1.00  0.00    -0.155 N 
ATOM      6  H2  UNL     1      -8.329  32.354  15.540  1.00  0.00     0.188 HD
HETATM    7  C2  UNL     1      -9.426  31.222  16.822  1.00  0.00     0.244 A 
HETATM    8  N6  UNL     1     -10.491  30.365  16.890  1.00  0.00    -0.273 N 
ATOM      9  H6  UNL     1     -10.755  29.970  17.792  1.00  0.00     0.174 HD
HETATM   10  C6  UNL     1     -11.196  30.034  15.795  1.00  0.00     0.341 A 
HETATM   11  O3  UNL     1     -12.178  29.255  15.806  1.00  0.00    -0.246 OA
HETATM   12  N7  UNL     1     -10.842  30.561  14.601  1.00  0.00    -0.141 N 
ATOM     13  H7  UNL     1     -11.375  30.310  13.769  1.00  0.00     0.189 HD
ENDROOT
BRANCH   7  14
HETATM   14  O1  UNL     1      -8.727  31.540  17.954  1.00  0.00    -0.292 OA
BRANCH  14  15
HETATM   15  C3  UNL     1      -8.645  32.769  18.558  1.00  0.00     0.275 C 
HETATM   16  C4  UNL     1      -7.518  33.640  17.980  1.00  0.00     0.180 C 
HETATM   17  N3  UNL     1      -7.405  34.654  19.006  1.00  0.00    -0.337 N 
HETATM   18  C5  UNL     1      -7.730  34.017  20.233  1.00  0.00     0.339 C 
ATOM     19  H3  UNL     1      -7.142  35.631  18.875  1.00  0.00     0.164 HD
HETATM   20  O2  UNL     1      -7.653  34.514  21.404  1.00  0.00    -0.245 OA
HETATM   21  N4  UNL     1      -8.176  32.686  19.957  1.00  0.00    -0.217 N 
BRANCH  21  22
HETATM   22  N5  UNL     1      -8.170  31.574  20.800  1.00  0.00    -0.337 N 
ATOM     23  H52 UNL     1      -8.470  31.511  21.773  1.00  0.00     0.177 HD
ATOM     24  H51 UNL     1      -7.864  30.624  20.589  1.00  0.00     0.177 HD
ENDBRANCH  21  22
ENDBRANCH  14  15
ENDBRANCH   7  14
TORSDOF 3
ENDMDL
