MODEL 1
REMARK VINA RESULT: -8.371453377      0.000      0.000
REMARK  4 active torsions:
REMARK  status: ('A' for Active; 'I' for Inactive)
REMARK    1  A    between atoms: C7_9  and  N2_10 
REMARK    2  A    between atoms: N2_10  and  C8_12 
REMARK    3  A    between atoms: N5_19  and  N6_20 
REMARK    4  A    between atoms: C10_22  and  C11_23 
ROOT
HETATM    1  N1  UNL     1      29.189  10.193  25.210  1.00  0.00    -0.191 NA
HETATM    2  C1  UNL     1      29.603  10.788  24.318  1.00  0.00     0.102 C 
HETATM    3  C2  UNL     1      30.131  11.516  23.185  1.00  0.00     0.074 A 
HETATM    4  C3  UNL     1      29.292  12.093  22.274  1.00  0.00     0.067 A 
HETATM    5  C4  UNL     1      29.762  12.790  21.190  1.00  0.00     0.117 A 
HETATM    6  F1  UNL     1      28.936  13.362  20.283  1.00  0.00    -0.206 F 
HETATM    7  C5  UNL     1      31.117  12.908  21.019  1.00  0.00     0.044 A 
HETATM    8  C6  UNL     1      31.952  12.323  21.945  1.00  0.00     0.034 A 
HETATM    9  C7  UNL     1      31.539  11.614  23.048  1.00  0.00     0.070 A 
ENDROOT
BRANCH   9  10
HETATM   10  N2  UNL     1      32.352  11.000  24.010  1.00  0.00    -0.187 N 
ATOM     11  H2  UNL     1      32.144  11.194  24.989  1.00  0.00     0.184 HD
BRANCH  10  12
HETATM   12  C8  UNL     1      33.431  10.138  23.739  1.00  0.00     0.721 A 
HETATM   13  N3  UNL     1      34.731  10.363  23.485  1.00  0.00    -0.128 N 
HETATM   14  N4  UNL     1      35.395   9.241  23.281  1.00  0.00    -0.260 N 
ATOM     15  H3  UNL     1      35.155  11.291  23.454  1.00  0.00     0.205 HD
HETATM   16  C9  UNL     1      34.530   8.218  23.397  1.00  0.00     0.230 A 
ATOM     17  H4  UNL     1      36.390   9.163  23.071  1.00  0.00     0.190 HD
HETATM   18  S1  UNL     1      34.873   6.608  23.227  1.00  0.00    -0.037 SA
HETATM   19  N5  UNL     1      33.345   8.761  23.674  1.00  0.00    -0.057 N 
BRANCH  19  20
HETATM   20  N6  UNL     1      32.169   8.044  23.870  1.00  0.00    -0.292 N 
HETATM   21  C10 UNL     1      31.676   7.736  25.020  1.00  0.00     0.086 C 
ATOM     22  H6  UNL     1      31.658   7.740  23.042  1.00  0.00     0.186 HD
BRANCH  21  23
HETATM   23  C11 UNL     1      32.300   8.108  26.322  1.00  0.00     0.025 C 
HETATM   24  C12 UNL     1      31.251   8.252  27.411  1.00  0.00     0.010 C 
HETATM   25  C13 UNL     1      31.221   7.017  28.290  1.00  0.00     0.001 C 
HETATM   26  C14 UNL     1      32.543   6.829  29.005  1.00  0.00     0.000 C 
HETATM   27  C15 UNL     1      33.716   7.194  28.149  1.00  0.00     0.001 C 
HETATM   28  C16 UNL     1      33.330   7.068  26.706  1.00  0.00     0.010 C 
ENDBRANCH  21  23
ENDBRANCH  19  20
ENDBRANCH  10  12
ENDBRANCH   9  10
TORSDOF 4
ENDMDL
MODEL 2
REMARK VINA RESULT: -8.261234999      1.809      2.639
REMARK  4 active torsions:
REMARK  status: ('A' for Active; 'I' for Inactive)
REMARK    1  A    between atoms: C7_9  and  N2_10 
REMARK    2  A    between atoms: N2_10  and  C8_12 
REMARK    3  A    between atoms: N5_19  and  N6_20 
REMARK    4  A    between atoms: C10_22  and  C11_23 
ROOT
HETATM    1  N1  UNL     1      34.553  12.022  23.309  1.00  0.00    -0.191 NA
HETATM    2  C1  UNL     1      33.428  11.790  23.334  1.00  0.00     0.102 C 
HETATM    3  C2  UNL     1      32.011  11.503  23.390  1.00  0.00     0.074 A 
HETATM    4  C3  UNL     1      31.108  12.328  22.779  1.00  0.00     0.067 A 
HETATM    5  C4  UNL     1      29.759  12.082  22.814  1.00  0.00     0.117 A 
HETATM    6  F1  UNL     1      28.860  12.896  22.212  1.00  0.00    -0.206 F 
HETATM    7  C5  UNL     1      29.306  10.975  23.484  1.00  0.00     0.044 A 
HETATM    8  C6  UNL     1      30.226  10.153  24.094  1.00  0.00     0.034 A 
HETATM    9  C7  UNL     1      31.587  10.348  24.093  1.00  0.00     0.070 A 
ENDROOT
BRANCH   9  10
HETATM   10  N2  UNL     1      32.556   9.540  24.704  1.00  0.00    -0.187 N 
ATOM     11  H2  UNL     1      32.667   9.627  25.714  1.00  0.00     0.184 HD
BRANCH  10  12
HETATM   12  C8  UNL     1      33.389   8.619  24.042  1.00  0.00     0.721 A 
HETATM   13  N3  UNL     1      34.692   8.644  23.716  1.00  0.00    -0.128 N 
HETATM   14  N4  UNL     1      35.063   7.546  23.084  1.00  0.00    -0.260 N 
ATOM     15  H3  UNL     1      35.319   9.418  23.931  1.00  0.00     0.205 HD
HETATM   16  C9  UNL     1      33.988   6.746  22.972  1.00  0.00     0.230 A 
ATOM     17  H4  UNL     1      36.001   7.341  22.740  1.00  0.00     0.190 HD
HETATM   18  S1  UNL     1      33.934   5.255  22.256  1.00  0.00    -0.037 SA
HETATM   19  N5  UNL     1      32.978   7.395  23.551  1.00  0.00    -0.057 N 
BRANCH  19  20
HETATM   20  N6  UNL     1      31.677   6.912  23.650  1.00  0.00    -0.292 N 
HETATM   21  C10 UNL     1      31.212   6.245  24.650  1.00  0.00     0.086 C 
ATOM     22  H6  UNL     1      31.043   7.100  22.874  1.00  0.00     0.186 HD
BRANCH  21  23
HETATM   23  C11 UNL     1      32.008   5.891  25.859  1.00  0.00     0.025 C 
HETATM   24  C12 UNL     1      31.157   5.958  27.115  1.00  0.00     0.010 C 
HETATM   25  C13 UNL     1      30.726   4.569  27.543  1.00  0.00     0.001 C 
HETATM   26  C14 UNL     1      31.925   3.715  27.897  1.00  0.00     0.000 C 
HETATM   27  C15 UNL     1      33.095   3.966  26.996  1.00  0.00     0.001 C 
HETATM   28  C16 UNL     1      32.601   4.509  25.690  1.00  0.00     0.010 C 
ENDBRANCH  21  23
ENDBRANCH  19  20
ENDBRANCH  10  12
ENDBRANCH   9  10
TORSDOF 4
ENDMDL
MODEL 3
REMARK VINA RESULT: -8.197396570      2.845      4.419
REMARK  4 active torsions:
REMARK  status: ('A' for Active; 'I' for Inactive)
REMARK    1  A    between atoms: C7_9  and  N2_10 
REMARK    2  A    between atoms: N2_10  and  C8_12 
REMARK    3  A    between atoms: N5_19  and  N6_20 
REMARK    4  A    between atoms: C10_22  and  C11_23 
ROOT
HETATM    1  N1  UNL     1      29.085  10.278  24.175  1.00  0.00    -0.191 NA
HETATM    2  C1  UNL     1      30.154  10.684  24.061  1.00  0.00     0.102 C 
HETATM    3  C2  UNL     1      31.500  11.185  23.895  1.00  0.00     0.074 A 
HETATM    4  C3  UNL     1      31.735  12.526  23.771  1.00  0.00     0.067 A 
HETATM    5  C4  UNL     1      33.000  13.032  23.613  1.00  0.00     0.117 A 
HETATM    6  F1  UNL     1      33.238  14.359  23.488  1.00  0.00    -0.206 F 
HETATM    7  C5  UNL     1      34.060  12.163  23.578  1.00  0.00     0.044 A 
HETATM    8  C6  UNL     1      33.810  10.815  23.705  1.00  0.00     0.034 A 
HETATM    9  C7  UNL     1      32.566  10.250  23.865  1.00  0.00     0.070 A 
ENDROOT
BRANCH   9  10
HETATM   10  N2  UNL     1      32.268   8.888  23.993  1.00  0.00    -0.187 N 
ATOM     11  H2  UNL     1      32.055   8.374  23.138  1.00  0.00     0.184 HD
BRANCH  10  12
HETATM   12  C8  UNL     1      32.236   8.167  25.201  1.00  0.00     0.721 A 
HETATM   13  N3  UNL     1      31.244   7.877  26.060  1.00  0.00    -0.128 N 
HETATM   14  N4  UNL     1      31.673   7.165  27.086  1.00  0.00    -0.260 N 
ATOM     15  H3  UNL     1      30.276   8.173  25.935  1.00  0.00     0.205 HD
HETATM   16  C9  UNL     1      32.992   6.959  26.928  1.00  0.00     0.230 A 
ATOM     17  H4  UNL     1      31.103   6.830  27.862  1.00  0.00     0.190 HD
HETATM   18  S1  UNL     1      33.992   6.123  27.948  1.00  0.00    -0.037 SA
HETATM   19  N5  UNL     1      33.331   7.564  25.790  1.00  0.00    -0.057 N 
BRANCH  19  20
HETATM   20  N6  UNL     1      34.616   7.594  25.258  1.00  0.00    -0.292 N 
HETATM   21  C10 UNL     1      35.071   6.763  24.385  1.00  0.00     0.086 C 
ATOM     22  H6  UNL     1      35.245   8.328  25.583  1.00  0.00     0.186 HD
BRANCH  21  23
HETATM   23  C11 UNL     1      34.280   5.638  23.811  1.00  0.00     0.025 C 
HETATM   24  C12 UNL     1      34.085   5.814  22.314  1.00  0.00     0.010 C 
HETATM   25  C13 UNL     1      35.050   4.935  21.543  1.00  0.00     0.001 C 
HETATM   26  C14 UNL     1      34.795   3.470  21.829  1.00  0.00     0.000 C 
HETATM   27  C15 UNL     1      34.426   3.219  23.259  1.00  0.00     0.001 C 
HETATM   28  C16 UNL     1      34.972   4.326  24.108  1.00  0.00     0.010 C 
ENDBRANCH  21  23
ENDBRANCH  19  20
ENDBRANCH  10  12
ENDBRANCH   9  10
TORSDOF 4
ENDMDL
MODEL 4
REMARK VINA RESULT: -8.172764357      1.480      2.424
REMARK  4 active torsions:
REMARK  status: ('A' for Active; 'I' for Inactive)
REMARK    1  A    between atoms: C7_9  and  N2_10 
REMARK    2  A    between atoms: N2_10  and  C8_12 
REMARK    3  A    between atoms: N5_19  and  N6_20 
REMARK    4  A    between atoms: C10_22  and  C11_23 
ROOT
HETATM    1  N1  UNL     1      34.576  12.009  23.205  1.00  0.00    -0.191 NA
HETATM    2  C1  UNL     1      33.446  11.804  23.228  1.00  0.00     0.102 C 
HETATM    3  C2  UNL     1      32.023  11.552  23.280  1.00  0.00     0.074 A 
HETATM    4  C3  UNL     1      31.145  12.371  22.626  1.00  0.00     0.067 A 
HETATM    5  C4  UNL     1      29.790  12.158  22.655  1.00  0.00     0.117 A 
HETATM    6  F1  UNL     1      28.917  12.966  22.011  1.00  0.00    -0.206 F 
HETATM    7  C5  UNL     1      29.305  11.090  23.365  1.00  0.00     0.044 A 
HETATM    8  C6  UNL     1      30.200  10.273  24.019  1.00  0.00     0.034 A 
HETATM    9  C7  UNL     1      31.565  10.436  24.025  1.00  0.00     0.070 A 
ENDROOT
BRANCH   9  10
HETATM   10  N2  UNL     1      32.508   9.633  24.679  1.00  0.00    -0.187 N 
ATOM     11  H2  UNL     1      32.659   9.805  25.672  1.00  0.00     0.184 HD
BRANCH  10  12
HETATM   12  C8  UNL     1      33.265   8.609  24.081  1.00  0.00     0.721 A 
HETATM   13  N3  UNL     1      34.520   8.568  23.601  1.00  0.00    -0.128 N 
HETATM   14  N4  UNL     1      34.824   7.379  23.116  1.00  0.00    -0.260 N 
ATOM     15  H3  UNL     1      35.160   9.362  23.610  1.00  0.00     0.205 HD
HETATM   16  C9  UNL     1      33.752   6.581  23.267  1.00  0.00     0.230 A 
ATOM     17  H4  UNL     1      35.716   7.112  22.701  1.00  0.00     0.190 HD
HETATM   18  S1  UNL     1      33.629   4.993  22.815  1.00  0.00    -0.037 SA
HETATM   19  N5  UNL     1      32.812   7.324  23.849  1.00  0.00    -0.057 N 
BRANCH  19  20
HETATM   20  N6  UNL     1      31.537   6.876  24.182  1.00  0.00    -0.292 N 
HETATM   21  C10 UNL     1      31.221   6.317  25.298  1.00  0.00     0.086 C 
ATOM     22  H6  UNL     1      30.799   6.999  23.490  1.00  0.00     0.186 HD
BRANCH  21  23
HETATM   23  C11 UNL     1      32.183   6.067  26.409  1.00  0.00     0.025 C 
HETATM   24  C12 UNL     1      32.354   7.303  27.274  1.00  0.00     0.010 C 
HETATM   25  C13 UNL     1      31.543   7.178  28.549  1.00  0.00     0.001 C 
HETATM   26  C14 UNL     1      32.026   6.012  29.386  1.00  0.00     0.000 C 
HETATM   27  C15 UNL     1      32.424   4.833  28.553  1.00  0.00     0.001 C 
HETATM   28  C16 UNL     1      31.706   4.895  27.239  1.00  0.00     0.010 C 
ENDBRANCH  21  23
ENDBRANCH  19  20
ENDBRANCH  10  12
ENDBRANCH   9  10
TORSDOF 4
ENDMDL
MODEL 5
REMARK VINA RESULT: -8.161054994      2.375      3.202
REMARK  4 active torsions:
REMARK  status: ('A' for Active; 'I' for Inactive)
REMARK    1  A    between atoms: C7_9  and  N2_10 
REMARK    2  A    between atoms: N2_10  and  C8_12 
REMARK    3  A    between atoms: N5_19  and  N6_20 
REMARK    4  A    between atoms: C10_22  and  C11_23 
ROOT
HETATM    1  N1  UNL     1      30.315   8.770  27.544  1.00  0.00    -0.191 NA
HETATM    2  C1  UNL     1      30.807   9.298  26.650  1.00  0.00     0.102 C 
HETATM    3  C2  UNL     1      31.425   9.941  25.511  1.00  0.00     0.074 A 
HETATM    4  C3  UNL     1      30.773  10.931  24.831  1.00  0.00     0.067 A 
HETATM    5  C4  UNL     1      31.332  11.561  23.748  1.00  0.00     0.117 A 
HETATM    6  F1  UNL     1      30.690  12.540  23.069  1.00  0.00    -0.206 F 
HETATM    7  C5  UNL     1      32.584  11.182  23.338  1.00  0.00     0.044 A 
HETATM    8  C6  UNL     1      33.231  10.185  24.033  1.00  0.00     0.034 A 
HETATM    9  C7  UNL     1      32.721   9.519  25.123  1.00  0.00     0.070 A 
ENDROOT
BRANCH   9  10
HETATM   10  N2  UNL     1      33.342   8.498  25.854  1.00  0.00    -0.187 N 
ATOM     11  H2  UNL     1      33.400   8.616  26.865  1.00  0.00     0.184 HD
BRANCH  10  12
HETATM   12  C8  UNL     1      33.893   7.322  25.312  1.00  0.00     0.721 A 
HETATM   13  N3  UNL     1      35.136   7.000  24.916  1.00  0.00    -0.128 N 
HETATM   14  N4  UNL     1      35.203   5.764  24.458  1.00  0.00    -0.260 N 
ATOM     15  H3  UNL     1      35.932   7.635  24.963  1.00  0.00     0.205 HD
HETATM   16  C9  UNL     1      33.975   5.222  24.541  1.00  0.00     0.230 A 
ATOM     17  H4  UNL     1      36.039   5.301  24.103  1.00  0.00     0.190 HD
HETATM   18  S1  UNL     1      33.536   3.691  24.090  1.00  0.00    -0.037 SA
HETATM   19  N5  UNL     1      33.185   6.163  25.057  1.00  0.00    -0.057 N 
BRANCH  19  20
HETATM   20  N6  UNL     1      31.825   6.010  25.307  1.00  0.00    -0.292 N 
HETATM   21  C10 UNL     1      31.327   5.473  26.367  1.00  0.00     0.086 C 
ATOM     22  H6  UNL     1      31.174   6.348  24.599  1.00  0.00     0.186 HD
BRANCH  21  23
HETATM   23  C11 UNL     1      32.142   4.932  27.491  1.00  0.00     0.025 C 
HETATM   24  C12 UNL     1      32.591   6.043  28.425  1.00  0.00     0.010 C 
HETATM   25  C13 UNL     1      31.722   6.081  29.666  1.00  0.00     0.001 C 
HETATM   26  C14 UNL     1      31.848   4.795  30.455  1.00  0.00     0.000 C 
HETATM   27  C15 UNL     1      31.962   3.589  29.575  1.00  0.00     0.001 C 
HETATM   28  C16 UNL     1      31.341   3.893  28.245  1.00  0.00     0.010 C 
ENDBRANCH  21  23
ENDBRANCH  19  20
ENDBRANCH  10  12
ENDBRANCH   9  10
TORSDOF 4
ENDMDL
