MODEL 1
REMARK VINA RESULT: -9.370037506      0.000      0.000
REMARK  10 active torsions:
REMARK  status: ('A' for Active; 'I' for Inactive)
REMARK    1  A    between atoms: O1_2  and  C2_3 
REMARK    2  A    between atoms: C2_3  and  C3_5 
REMARK    3  A    between atoms: C7_9  and  C8_10 
REMARK    4  A    between atoms: C8_10  and  C9_11 
REMARK    5  A    between atoms: C9_11  and  C10_12 
REMARK    6  A    between atoms: C11_13  and  C13_16 
REMARK    7  A    between atoms: C13_16  and  C14_17 
REMARK    8  A    between atoms: C14_17  and  C15_18 
REMARK    9  A    between atoms: C18_21  and  O3_22 
REMARK   10  A    between atoms: C22_27  and  O4_28 
ROOT
HETATM    1  C10 UNL     1       0.575  11.496  29.895  1.00  0.00     0.069 C 
HETATM    2  C11 UNL     1       0.378  10.415  30.643  1.00  0.00     0.029 C 
HETATM    3  C12 UNL     1       1.311   9.983  31.602  1.00  0.00     0.095 C 
HETATM    4  N1  UNL     1       2.073   9.596  32.413  1.00  0.00    -0.192 NA
ENDROOT
BRANCH   2   5
HETATM    5  C13 UNL     1      -0.876   9.655  30.424  1.00  0.00     0.055 C 
BRANCH   5   6
HETATM    6  C14 UNL     1      -2.056  10.594  30.288  1.00  0.00     0.040 C 
BRANCH   6   7
HETATM    7  C15 UNL     1      -2.827  10.102  29.076  1.00  0.00    -0.075 C 
HETATM    8  C16 UNL     1      -4.127  10.197  28.992  1.00  0.00    -0.053 C 
HETATM    9  C17 UNL     1      -4.914  10.810  30.129  1.00  0.00     0.046 C 
HETATM   10  C18 UNL     1      -4.880   9.750  27.789  1.00  0.00     0.147 C 
HETATM   11  C19 UNL     1      -4.135   8.907  26.830  1.00  0.00     0.036 C 
HETATM   12  C20 UNL     1      -2.921   8.311  27.482  1.00  0.00     0.007 C 
HETATM   13  C21 UNL     1      -2.064   9.480  27.958  1.00  0.00     0.034 C 
BRANCH  10  14
HETATM   14  O3  UNL     1      -6.111   9.179  28.114  1.00  0.00    -0.391 OA
ATOM     15  H3  UNL     1      -6.719   9.189  27.384  1.00  0.00     0.210 HD
ENDBRANCH  10  14
ENDBRANCH   6   7
ENDBRANCH   5   6
ENDBRANCH   2   5
BRANCH   1  16
HETATM   16  C9  UNL     1       1.708  12.289  29.987  1.00  0.00    -0.154 C 
BRANCH  16  17
HETATM   17  C8  UNL     1       2.717  12.997  30.068  1.00  0.00     0.092 C 
BRANCH  17  18
HETATM   18  C7  UNL     1       3.357  13.576  31.341  1.00  0.00     0.026 C 
HETATM   19  C6  UNL     1       3.755  12.401  32.134  1.00  0.00     0.008 C 
HETATM   20  C5  UNL     1       5.064  12.483  32.847  1.00  0.00     0.001 C 
HETATM   21  C4  UNL     1       5.684  13.833  32.836  1.00  0.00     0.017 C 
HETATM   22  C3  UNL     1       5.787  14.309  31.404  1.00  0.00     0.114 C 
HETATM   23  C22 UNL     1       4.406  14.523  30.894  1.00  0.00     0.136 C 
BRANCH  22  24
HETATM   24  C2  UNL     1       6.637  13.454  30.582  1.00  0.00     0.265 C 
HETATM   25  O2  UNL     1       7.816  13.221  30.940  1.00  0.00    -0.265 OA
BRANCH  24  26
HETATM   26  O1  UNL     1       6.211  12.864  29.399  1.00  0.00    -0.326 OA
HETATM   27  C1  UNL     1       6.584  11.506  29.093  1.00  0.00     0.213 C 
ENDBRANCH  24  26
ENDBRANCH  22  24
BRANCH  23  28
HETATM   28  O4  UNL     1       4.036  15.834  31.298  1.00  0.00    -0.394 OA
ATOM     29  H4  UNL     1       3.167  15.984  30.944  1.00  0.00     0.210 HD
ENDBRANCH  23  28
ENDBRANCH  17  18
ENDBRANCH  16  17
ENDBRANCH   1  16
TORSDOF 10
ENDMDL
MODEL 2
REMARK VINA RESULT: -9.362945959      1.364      2.281
REMARK  10 active torsions:
REMARK  status: ('A' for Active; 'I' for Inactive)
REMARK    1  A    between atoms: O1_2  and  C2_3 
REMARK    2  A    between atoms: C2_3  and  C3_5 
REMARK    3  A    between atoms: C7_9  and  C8_10 
REMARK    4  A    between atoms: C8_10  and  C9_11 
REMARK    5  A    between atoms: C9_11  and  C10_12 
REMARK    6  A    between atoms: C11_13  and  C13_16 
REMARK    7  A    between atoms: C13_16  and  C14_17 
REMARK    8  A    between atoms: C14_17  and  C15_18 
REMARK    9  A    between atoms: C18_21  and  O3_22 
REMARK   10  A    between atoms: C22_27  and  O4_28 
ROOT
HETATM    1  C10 UNL     1       1.510  12.049  29.482  1.00  0.00     0.069 C 
HETATM    2  C11 UNL     1       0.853  11.257  30.324  1.00  0.00     0.029 C 
HETATM    3  C12 UNL     1       1.513  10.432  31.251  1.00  0.00     0.095 C 
HETATM    4  N1  UNL     1       2.037   9.730  32.039  1.00  0.00    -0.192 NA
ENDROOT
BRANCH   2   5
HETATM    5  C13 UNL     1      -0.628  11.262  30.247  1.00  0.00     0.055 C 
BRANCH   5   6
HETATM    6  C14 UNL     1      -1.173   9.850  30.308  1.00  0.00     0.040 C 
BRANCH   6   7
HETATM    7  C15 UNL     1      -2.267   9.793  29.257  1.00  0.00    -0.075 C 
HETATM    8  C16 UNL     1      -3.505  10.110  29.523  1.00  0.00    -0.053 C 
HETATM    9  C17 UNL     1      -3.889  10.548  30.918  1.00  0.00     0.046 C 
HETATM   10  C18 UNL     1      -4.571  10.090  28.484  1.00  0.00     0.147 C 
HETATM   11  C19 UNL     1      -4.239   9.395  27.223  1.00  0.00     0.036 C 
HETATM   12  C20 UNL     1      -3.068   8.475  27.419  1.00  0.00     0.007 C 
HETATM   13  C21 UNL     1      -1.904   9.344  27.883  1.00  0.00     0.034 C 
BRANCH  10  14
HETATM   14  O3  UNL     1      -5.799   9.660  28.991  1.00  0.00    -0.391 OA
ATOM     15  H3  UNL     1      -6.172   8.951  28.480  1.00  0.00     0.210 HD
ENDBRANCH  10  14
ENDBRANCH   6   7
ENDBRANCH   5   6
ENDBRANCH   2   5
BRANCH   1  16
HETATM   16  C9  UNL     1       2.893  12.133  29.438  1.00  0.00    -0.154 C 
BRANCH  16  17
HETATM   17  C8  UNL     1       4.126  12.207  29.398  1.00  0.00     0.092 C 
BRANCH  17  18
HETATM   18  C7  UNL     1       5.113  12.054  30.567  1.00  0.00     0.026 C 
HETATM   19  C6  UNL     1       6.381  12.612  30.068  1.00  0.00     0.008 C 
HETATM   20  C5  UNL     1       7.182  13.425  31.030  1.00  0.00     0.001 C 
HETATM   21  C4  UNL     1       6.693  13.373  32.432  1.00  0.00     0.017 C 
HETATM   22  C3  UNL     1       5.230  13.752  32.451  1.00  0.00     0.114 C 
HETATM   23  C22 UNL     1       4.472  12.684  31.747  1.00  0.00     0.136 C 
BRANCH  22  24
HETATM   24  C2  UNL     1       4.990  15.112  31.977  1.00  0.00     0.265 C 
HETATM   25  O2  UNL     1       5.389  16.087  32.657  1.00  0.00    -0.265 OA
BRANCH  24  26
HETATM   26  O1  UNL     1       4.334  15.402  30.788  1.00  0.00    -0.326 OA
HETATM   27  C1  UNL     1       2.957  15.827  30.808  1.00  0.00     0.213 C 
ENDBRANCH  24  26
ENDBRANCH  22  24
BRANCH  23  28
HETATM   28  O4  UNL     1       4.219  11.677  32.717  1.00  0.00    -0.394 OA
ATOM     29  H4  UNL     1       3.403  11.263  32.460  1.00  0.00     0.210 HD
ENDBRANCH  23  28
ENDBRANCH  17  18
ENDBRANCH  16  17
ENDBRANCH   1  16
TORSDOF 10
ENDMDL
MODEL 3
REMARK VINA RESULT: -9.184976669      1.542      1.915
REMARK  10 active torsions:
REMARK  status: ('A' for Active; 'I' for Inactive)
REMARK    1  A    between atoms: O1_2  and  C2_3 
REMARK    2  A    between atoms: C2_3  and  C3_5 
REMARK    3  A    between atoms: C7_9  and  C8_10 
REMARK    4  A    between atoms: C8_10  and  C9_11 
REMARK    5  A    between atoms: C9_11  and  C10_12 
REMARK    6  A    between atoms: C11_13  and  C13_16 
REMARK    7  A    between atoms: C13_16  and  C14_17 
REMARK    8  A    between atoms: C14_17  and  C15_18 
REMARK    9  A    between atoms: C18_21  and  O3_22 
REMARK   10  A    between atoms: C22_27  and  O4_28 
ROOT
HETATM    1  C10 UNL     1       1.660  11.006  31.321  1.00  0.00     0.069 C 
HETATM    2  C11 UNL     1       1.029  10.537  30.250  1.00  0.00     0.029 C 
HETATM    3  C12 UNL     1       0.874  11.293  29.076  1.00  0.00     0.095 C 
HETATM    4  N1  UNL     1       0.729  11.902  28.077  1.00  0.00    -0.192 NA
ENDROOT
BRANCH   2   5
HETATM    5  C13 UNL     1       0.469   9.166  30.337  1.00  0.00     0.055 C 
BRANCH   5   6
HETATM    6  C14 UNL     1      -0.765   9.144  31.214  1.00  0.00     0.040 C 
BRANCH   6   7
HETATM    7  C15 UNL     1      -1.904   9.605  30.322  1.00  0.00    -0.075 C 
HETATM    8  C16 UNL     1      -2.867  10.369  30.762  1.00  0.00    -0.053 C 
HETATM    9  C17 UNL     1      -2.873  10.821  32.205  1.00  0.00     0.046 C 
HETATM   10  C18 UNL     1      -3.963  10.853  29.879  1.00  0.00     0.147 C 
HETATM   11  C19 UNL     1      -4.092  10.177  28.571  1.00  0.00     0.036 C 
HETATM   12  C20 UNL     1      -3.380   8.855  28.586  1.00  0.00     0.007 C 
HETATM   13  C21 UNL     1      -1.918   9.151  28.903  1.00  0.00     0.034 C 
BRANCH  10  14
HETATM   14  O3  UNL     1      -5.191  10.912  30.541  1.00  0.00    -0.391 OA
ATOM     15  H3  UNL     1      -5.785  11.539  30.145  1.00  0.00     0.210 HD
ENDBRANCH  10  14
ENDBRANCH   6   7
ENDBRANCH   5   6
ENDBRANCH   2   5
BRANCH   1  16
HETATM   16  C9  UNL     1       2.219  12.274  31.381  1.00  0.00    -0.154 C 
BRANCH  16  17
HETATM   17  C8  UNL     1       2.716  13.404  31.435  1.00  0.00     0.092 C 
BRANCH  17  18
HETATM   18  C7  UNL     1       3.947  13.849  32.242  1.00  0.00     0.026 C 
HETATM   19  C6  UNL     1       4.476  12.612  32.841  1.00  0.00     0.008 C 
HETATM   20  C5  UNL     1       5.960  12.465  32.878  1.00  0.00     0.001 C 
HETATM   21  C4  UNL     1       6.707  13.694  32.504  1.00  0.00     0.017 C 
HETATM   22  C3  UNL     1       6.218  14.167  31.154  1.00  0.00     0.114 C 
HETATM   23  C22 UNL     1       4.809  14.616  31.310  1.00  0.00     0.136 C 
BRANCH  22  24
HETATM   24  C2  UNL     1       6.456  13.195  30.091  1.00  0.00     0.265 C 
HETATM   25  O2  UNL     1       7.580  12.649  29.988  1.00  0.00    -0.265 OA
BRANCH  24  26
HETATM   26  O1  UNL     1       5.490  12.825  29.164  1.00  0.00    -0.326 OA
HETATM   27  C1  UNL     1       5.055  11.453  29.083  1.00  0.00     0.213 C 
ENDBRANCH  24  26
ENDBRANCH  22  24
BRANCH  23  28
HETATM   28  O4  UNL     1       4.872  15.963  31.755  1.00  0.00    -0.394 OA
ATOM     29  H4  UNL     1       4.653  16.500  31.002  1.00  0.00     0.210 HD
ENDBRANCH  23  28
ENDBRANCH  17  18
ENDBRANCH  16  17
ENDBRANCH   1  16
TORSDOF 10
ENDMDL
MODEL 4
REMARK VINA RESULT: -9.143116183      1.175      1.634
REMARK  10 active torsions:
REMARK  status: ('A' for Active; 'I' for Inactive)
REMARK    1  A    between atoms: O1_2  and  C2_3 
REMARK    2  A    between atoms: C2_3  and  C3_5 
REMARK    3  A    between atoms: C7_9  and  C8_10 
REMARK    4  A    between atoms: C8_10  and  C9_11 
REMARK    5  A    between atoms: C9_11  and  C10_12 
REMARK    6  A    between atoms: C11_13  and  C13_16 
REMARK    7  A    between atoms: C13_16  and  C14_17 
REMARK    8  A    between atoms: C14_17  and  C15_18 
REMARK    9  A    between atoms: C18_21  and  O3_22 
REMARK   10  A    between atoms: C22_27  and  O4_28 
ROOT
HETATM    1  C10 UNL     1       1.770  12.405  29.971  1.00  0.00     0.069 C 
HETATM    2  C11 UNL     1       1.447  11.167  30.331  1.00  0.00     0.029 C 
HETATM    3  C12 UNL     1       1.630  10.692  31.641  1.00  0.00     0.095 C 
HETATM    4  N1  UNL     1       1.772  10.266  32.730  1.00  0.00    -0.192 NA
ENDROOT
BRANCH   2   5
HETATM    5  C13 UNL     1       0.885  10.279  29.285  1.00  0.00     0.055 C 
BRANCH   5   6
HETATM    6  C14 UNL     1      -0.111   9.308  29.883  1.00  0.00     0.040 C 
BRANCH   6   7
HETATM    7  C15 UNL     1      -1.461   9.717  29.323  1.00  0.00    -0.075 C 
HETATM    8  C16 UNL     1      -2.381  10.277  30.063  1.00  0.00    -0.053 C 
HETATM    9  C17 UNL     1      -2.117  10.533  31.529  1.00  0.00     0.046 C 
HETATM   10  C18 UNL     1      -3.691  10.712  29.507  1.00  0.00     0.147 C 
HETATM   11  C19 UNL     1      -4.031  10.200  28.163  1.00  0.00     0.036 C 
HETATM   12  C20 UNL     1      -3.195   8.999  27.827  1.00  0.00     0.007 C 
HETATM   13  C21 UNL     1      -1.739   9.452  27.883  1.00  0.00     0.034 C 
BRANCH  10  14
HETATM   14  O3  UNL     1      -4.741  10.515  30.405  1.00  0.00    -0.391 OA
ATOM     15  H3  UNL     1      -4.498  10.727  31.298  1.00  0.00     0.210 HD
ENDBRANCH  10  14
ENDBRANCH   6   7
ENDBRANCH   5   6
ENDBRANCH   2   5
BRANCH   1  16
HETATM   16  C9  UNL     1       2.315  13.334  30.844  1.00  0.00    -0.154 C 
BRANCH  16  17
HETATM   17  C8  UNL     1       2.800  14.163  31.621  1.00  0.00     0.092 C 
BRANCH  17  18
HETATM   18  C7  UNL     1       4.056  14.007  32.494  1.00  0.00     0.026 C 
HETATM   19  C6  UNL     1       4.211  12.554  32.679  1.00  0.00     0.008 C 
HETATM   20  C5  UNL     1       5.602  12.015  32.633  1.00  0.00     0.001 C 
HETATM   21  C4  UNL     1       6.663  13.056  32.626  1.00  0.00     0.017 C 
HETATM   22  C3  UNL     1       6.390  14.020  31.494  1.00  0.00     0.114 C 
HETATM   23  C22 UNL     1       5.139  14.759  31.814  1.00  0.00     0.136 C 
BRANCH  22  24
HETATM   24  C2  UNL     1       6.427  13.381  30.182  1.00  0.00     0.265 C 
HETATM   25  O2  UNL     1       7.525  13.014  29.700  1.00  0.00    -0.265 OA
BRANCH  24  26
HETATM   26  O1  UNL     1       5.293  13.144  29.416  1.00  0.00    -0.326 OA
HETATM   27  C1  UNL     1       5.087  11.852  28.813  1.00  0.00     0.213 C 
ENDBRANCH  24  26
ENDBRANCH  22  24
BRANCH  23  28
HETATM   28  O4  UNL     1       5.524  15.846  32.642  1.00  0.00    -0.394 OA
ATOM     29  H4  UNL     1       4.731  16.338  32.818  1.00  0.00     0.210 HD
ENDBRANCH  23  28
ENDBRANCH  17  18
ENDBRANCH  16  17
ENDBRANCH   1  16
TORSDOF 10
ENDMDL
MODEL 5
REMARK VINA RESULT: -9.116640685      1.424      2.649
REMARK  10 active torsions:
REMARK  status: ('A' for Active; 'I' for Inactive)
REMARK    1  A    between atoms: O1_2  and  C2_3 
REMARK    2  A    between atoms: C2_3  and  C3_5 
REMARK    3  A    between atoms: C7_9  and  C8_10 
REMARK    4  A    between atoms: C8_10  and  C9_11 
REMARK    5  A    between atoms: C9_11  and  C10_12 
REMARK    6  A    between atoms: C11_13  and  C13_16 
REMARK    7  A    between atoms: C13_16  and  C14_17 
REMARK    8  A    between atoms: C14_17  and  C15_18 
REMARK    9  A    between atoms: C18_21  and  O3_22 
REMARK   10  A    between atoms: C22_27  and  O4_28 
ROOT
HETATM    1  C10 UNL     1       0.228  11.609  29.762  1.00  0.00     0.069 C 
HETATM    2  C11 UNL     1      -0.171  10.789  30.728  1.00  0.00     0.029 C 
HETATM    3  C12 UNL     1       0.733  10.151  31.595  1.00  0.00     0.095 C 
HETATM    4  N1  UNL     1       1.466   9.602  32.337  1.00  0.00    -0.192 NA
ENDROOT
BRANCH   2   5
HETATM    5  C13 UNL     1      -1.629  10.553  30.861  1.00  0.00     0.055 C 
BRANCH   5   6
HETATM    6  C14 UNL     1      -2.027   9.258  30.184  1.00  0.00     0.040 C 
BRANCH   6   7
HETATM    7  C15 UNL     1      -3.302   9.574  29.424  1.00  0.00    -0.075 C 
HETATM    8  C16 UNL     1      -3.506   9.157  28.203  1.00  0.00    -0.053 C 
HETATM    9  C17 UNL     1      -2.451   8.334  27.501  1.00  0.00     0.046 C 
HETATM   10  C18 UNL     1      -4.771   9.434  27.470  1.00  0.00     0.147 C 
HETATM   11  C19 UNL     1      -5.653  10.465  28.058  1.00  0.00     0.036 C 
HETATM   12  C20 UNL     1      -4.887  11.329  29.019  1.00  0.00     0.007 C 
HETATM   13  C21 UNL     1      -4.341  10.401  30.100  1.00  0.00     0.034 C 
BRANCH  10  14
HETATM   14  O3  UNL     1      -4.558   9.667  26.111  1.00  0.00    -0.391 OA
ATOM     15  H3  UNL     1      -3.635   9.685  25.887  1.00  0.00     0.210 HD
ENDBRANCH  10  14
ENDBRANCH   6   7
ENDBRANCH   5   6
ENDBRANCH   2   5
BRANCH   1  16
HETATM   16  C9  UNL     1       1.560  11.908  29.518  1.00  0.00    -0.154 C 
BRANCH  16  17
HETATM   17  C8  UNL     1       2.747  12.174  29.300  1.00  0.00     0.092 C 
BRANCH  17  18
HETATM   18  C7  UNL     1       3.961  11.834  30.180  1.00  0.00     0.026 C 
HETATM   19  C6  UNL     1       5.134  12.163  29.352  1.00  0.00     0.008 C 
HETATM   20  C5  UNL     1       6.287  12.808  30.046  1.00  0.00     0.001 C 
HETATM   21  C4  UNL     1       6.177  12.827  31.528  1.00  0.00     0.017 C 
HETATM   22  C3  UNL     1       4.859  13.461  31.909  1.00  0.00     0.114 C 
HETATM   23  C22 UNL     1       3.769  12.553  31.462  1.00  0.00     0.136 C 
BRANCH  22  24
HETATM   24  C2  UNL     1       4.747  14.848  31.466  1.00  0.00     0.265 C 
HETATM   25  O2  UNL     1       5.398  15.743  32.054  1.00  0.00    -0.265 OA
BRANCH  24  26
HETATM   26  O1  UNL     1       3.944  15.247  30.405  1.00  0.00    -0.326 OA
HETATM   27  C1  UNL     1       2.813  16.108  30.640  1.00  0.00     0.213 C 
ENDBRANCH  24  26
ENDBRANCH  22  24
BRANCH  23  28
HETATM   28  O4  UNL     1       3.604  11.596  32.499  1.00  0.00    -0.394 OA
ATOM     29  H4  UNL     1       2.764  11.180  32.342  1.00  0.00     0.210 HD
ENDBRANCH  23  28
ENDBRANCH  17  18
ENDBRANCH  16  17
ENDBRANCH   1  16
TORSDOF 10
ENDMDL
