MODEL 1
REMARK VINA RESULT: -7.006936416      0.000      0.000
REMARK  6 active torsions:
REMARK  status: ('A' for Active; 'I' for Inactive)
REMARK    1  A    between atoms: C4_5  and  C5_6 
REMARK    2  A    between atoms: C5_6  and  C6_7 
REMARK    3  A    between atoms: C5_6  and  N2_17 
REMARK    4  A    between atoms: C11_14  and  O2_15 
REMARK    5  A    between atoms: C18_24  and  O3_25 
REMARK    6  A    between atoms: C20_27  and  O4_28 
ROOT
HETATM    1  C1  UNL     1       1.056   8.281  33.126  1.00  0.00     0.210 C 
HETATM    2  O1  UNL     1       1.225   9.150  32.204  1.00  0.00    -0.353 OA
HETATM    3  C2  UNL     1       1.402  10.064  31.235  1.00  0.00     0.104 A 
HETATM    4  C3  UNL     1       2.456  10.906  30.891  1.00  0.00     0.045 A 
HETATM    5  C4  UNL     1       2.472  11.701  29.803  1.00  0.00    -0.032 A 
HETATM    6  C17 UNL     1       1.357  11.712  28.844  1.00  0.00     0.104 A 
HETATM    7  C18 UNL     1       0.342  10.813  29.329  1.00  0.00     0.086 A 
HETATM    8  C20 UNL     1       0.265  10.079  30.392  1.00  0.00     0.131 A 
ENDROOT
BRANCH   8   9
HETATM    9  O4  UNL     1      -0.959   9.500  30.605  1.00  0.00    -0.351 OA
HETATM   10  C21 UNL     1      -1.759  10.436  31.445  1.00  0.00     0.210 C 
ENDBRANCH   8   9
BRANCH   5  11
HETATM   11  C5  UNL     1       3.331  12.908  29.590  1.00  0.00     0.304 C 
BRANCH  11  12
HETATM   12  C6  UNL     1       4.649  12.565  30.397  1.00  0.00     0.081 A 
HETATM   13  N1  UNL     1       5.137  12.627  31.349  1.00  0.00    -0.358 N 
HETATM   14  C7  UNL     1       6.281  12.372  31.848  1.00  0.00     0.014 A 
ATOM     15  H1  UNL     1       4.504  12.997  32.059  1.00  0.00     0.165 HD
HETATM   16  C8  UNL     1       7.202  12.229  32.950  1.00  0.00     0.068 C 
HETATM   17  C9  UNL     1       6.786  11.905  30.446  1.00  0.00    -0.005 A 
HETATM   18  C10 UNL     1       8.217  11.671  30.309  1.00  0.00     0.053 C 
HETATM   19  C11 UNL     1       5.798  11.992  29.527  1.00  0.00     0.098 A 
BRANCH  19  20
HETATM   20  O2  UNL     1       5.786  11.627  28.171  1.00  0.00    -0.358 OA
ATOM     21  H2  UNL     1       6.237  12.029  27.437  1.00  0.00     0.217 HD
ENDBRANCH  19  20
ENDBRANCH  11  12
BRANCH  11  22
HETATM   22  N2  UNL     1       2.788  14.135  30.007  1.00  0.00     0.103 N 
HETATM   23  C12 UNL     1       2.259  13.986  31.357  1.00  0.00     0.273 C 
HETATM   24  C13 UNL     1       1.886  15.254  31.966  1.00  0.00     0.030 C 
HETATM   25  C14 UNL     1       2.400  16.512  31.412  1.00  0.00     0.003 C 
HETATM   26  C15 UNL     1       3.125  16.436  30.121  1.00  0.00     0.030 C 
HETATM   27  C16 UNL     1       3.897  15.103  30.050  1.00  0.00     0.273 C 
ENDBRANCH  11  22
ENDBRANCH   5  11
BRANCH   7  28
HETATM   28  O3  UNL     1      -0.748  10.789  28.310  1.00  0.00    -0.357 OA
HETATM   29  C19 UNL     1      -0.499  11.633  27.275  1.00  0.00     0.209 C 
ENDBRANCH   7  28
TORSDOF 6
ENDMDL
MODEL 2
REMARK VINA RESULT: -6.313753926      6.334     10.204
REMARK  6 active torsions:
REMARK  status: ('A' for Active; 'I' for Inactive)
REMARK    1  A    between atoms: C4_5  and  C5_6 
REMARK    2  A    between atoms: C5_6  and  C6_7 
REMARK    3  A    between atoms: C5_6  and  N2_17 
REMARK    4  A    between atoms: C11_14  and  O2_15 
REMARK    5  A    between atoms: C18_24  and  O3_25 
REMARK    6  A    between atoms: C20_27  and  O4_28 
ROOT
HETATM    1  C1  UNL     1      -8.537  10.950  22.781  1.00  0.00     0.210 C 
HETATM    2  O1  UNL     1      -7.883  10.793  23.867  1.00  0.00    -0.353 OA
HETATM    3  C2  UNL     1      -7.194  10.627  25.009  1.00  0.00     0.104 A 
HETATM    4  C3  UNL     1      -6.079   9.871  25.357  1.00  0.00     0.045 A 
HETATM    5  C4  UNL     1      -5.473   9.915  26.560  1.00  0.00    -0.032 A 
HETATM    6  C17 UNL     1      -5.936  10.823  27.620  1.00  0.00     0.104 A 
HETATM    7  C18 UNL     1      -7.092  11.527  27.130  1.00  0.00     0.086 A 
HETATM    8  C20 UNL     1      -7.735  11.472  26.008  1.00  0.00     0.131 A 
ENDROOT
BRANCH   8   9
HETATM    9  O4  UNL     1      -8.918  12.165  25.987  1.00  0.00    -0.351 OA
HETATM   10  C21 UNL     1      -8.633  13.524  25.443  1.00  0.00     0.210 C 
ENDBRANCH   8   9
BRANCH   5  11
HETATM   11  C5  UNL     1      -4.576   8.871  27.148  1.00  0.00     0.304 C 
BRANCH  11  12
HETATM   12  C6  UNL     1      -3.299   9.693  27.591  1.00  0.00     0.081 A 
HETATM   13  N1  UNL     1      -2.403  10.174  27.253  1.00  0.00    -0.358 N 
HETATM   14  C7  UNL     1      -1.385  10.748  27.758  1.00  0.00     0.014 A 
ATOM     15  H1  UNL     1      -2.351  10.172  26.234  1.00  0.00     0.165 HD
HETATM   16  C8  UNL     1      -0.167  11.519  27.675  1.00  0.00     0.068 C 
HETATM   17  C9  UNL     1      -1.938  10.465  29.191  1.00  0.00    -0.005 A 
HETATM   18  C10 UNL     1      -1.035  10.717  30.305  1.00  0.00     0.053 C 
HETATM   19  C11 UNL     1      -3.131   9.831  29.127  1.00  0.00     0.098 A 
BRANCH  19  20
HETATM   20  O2  UNL     1      -4.007   9.440  30.153  1.00  0.00    -0.358 OA
ATOM     21  H2  UNL     1      -3.823   9.289  31.074  1.00  0.00     0.217 HD
ENDBRANCH  19  20
ENDBRANCH  11  12
BRANCH  11  22
HETATM   22  N2  UNL     1      -4.224   7.809  26.298  1.00  0.00     0.103 N 
HETATM   23  C12 UNL     1      -3.198   7.001  26.948  1.00  0.00     0.273 C 
HETATM   24  C13 UNL     1      -2.934   5.750  26.253  1.00  0.00     0.030 C 
HETATM   25  C14 UNL     1      -3.905   5.232  25.282  1.00  0.00     0.003 C 
HETATM   26  C15 UNL     1      -5.029   6.122  24.907  1.00  0.00     0.030 C 
HETATM   27  C16 UNL     1      -5.428   6.977  26.128  1.00  0.00     0.273 C 
ENDBRANCH  11  22
ENDBRANCH   5  11
BRANCH   7  28
HETATM   28  O3  UNL     1      -7.505  12.491  28.194  1.00  0.00    -0.357 OA
HETATM   29  C19 UNL     1      -6.544  13.418  28.444  1.00  0.00     0.209 C 
ENDBRANCH   7  28
TORSDOF 6
ENDMDL
MODEL 3
REMARK VINA RESULT: -6.020824357      6.408     10.514
REMARK  6 active torsions:
REMARK  status: ('A' for Active; 'I' for Inactive)
REMARK    1  A    between atoms: C4_5  and  C5_6 
REMARK    2  A    between atoms: C5_6  and  C6_7 
REMARK    3  A    between atoms: C5_6  and  N2_17 
REMARK    4  A    between atoms: C11_14  and  O2_15 
REMARK    5  A    between atoms: C18_24  and  O3_25 
REMARK    6  A    between atoms: C20_27  and  O4_28 
ROOT
HETATM    1  C1  UNL     1      -2.801  10.939  32.660  1.00  0.00     0.210 C 
HETATM    2  O1  UNL     1      -3.305  10.710  31.509  1.00  0.00    -0.353 OA
HETATM    3  C2  UNL     1      -3.836  10.470  30.298  1.00  0.00     0.104 A 
HETATM    4  C3  UNL     1      -4.930  10.985  29.610  1.00  0.00     0.045 A 
HETATM    5  C4  UNL     1      -5.247  10.671  28.338  1.00  0.00    -0.032 A 
HETATM    6  C17 UNL     1      -4.412   9.760  27.541  1.00  0.00     0.104 A 
HETATM    7  C18 UNL     1      -3.334   9.299  28.376  1.00  0.00     0.086 A 
HETATM    8  C20 UNL     1      -3.028   9.531  29.612  1.00  0.00     0.131 A 
ENDROOT
BRANCH   8   9
HETATM    9  O4  UNL     1      -2.022   8.746  30.114  1.00  0.00    -0.351 OA
HETATM   10  C21 UNL     1      -0.750   9.513  29.988  1.00  0.00     0.210 C 
ENDBRANCH   8   9
BRANCH   5  11
HETATM   11  C5  UNL     1      -6.585  10.828  27.686  1.00  0.00     0.304 C 
BRANCH  11  12
HETATM   12  C6  UNL     1      -6.655   9.597  26.694  1.00  0.00     0.081 A 
HETATM   13  N1  UNL     1      -6.421   9.250  25.707  1.00  0.00    -0.358 N 
HETATM   14  C7  UNL     1      -6.622   8.215  24.993  1.00  0.00     0.014 A 
ATOM     15  H1  UNL     1      -5.883   9.948  25.194  1.00  0.00     0.165 HD
HETATM   16  C8  UNL     1      -6.422   7.404  23.815  1.00  0.00     0.068 C 
HETATM   17  C9  UNL     1      -7.426   7.565  26.163  1.00  0.00    -0.005 A 
HETATM   18  C10 UNL     1      -8.164   6.348  25.856  1.00  0.00     0.053 C 
HETATM   19  C11 UNL     1      -7.451   8.383  27.240  1.00  0.00     0.098 A 
BRANCH  19  20
HETATM   20  O2  UNL     1      -8.000   8.185  28.517  1.00  0.00    -0.358 OA
ATOM     21  H2  UNL     1      -8.865   7.870  28.756  1.00  0.00     0.217 HD
ENDBRANCH  19  20
ENDBRANCH  11  12
BRANCH  11  22
HETATM   22  N2  UNL     1      -6.804  12.038  27.006  1.00  0.00     0.103 N 
HETATM   23  C12 UNL     1      -7.963  11.891  26.134  1.00  0.00     0.273 C 
HETATM   24  C13 UNL     1      -8.411  13.152  25.564  1.00  0.00     0.030 C 
HETATM   25  C14 UNL     1      -7.982  14.421  26.164  1.00  0.00     0.003 C 
HETATM   26  C15 UNL     1      -6.941  14.354  27.216  1.00  0.00     0.030 C 
HETATM   27  C16 UNL     1      -7.119  13.053  28.026  1.00  0.00     0.273 C 
ENDBRANCH  11  22
ENDBRANCH   5  11
BRANCH   7  28
HETATM   28  O3  UNL     1      -2.462   8.431  27.529  1.00  0.00    -0.357 OA
HETATM   29  C19 UNL     1      -3.147   7.387  26.993  1.00  0.00     0.209 C 
ENDBRANCH   7  28
TORSDOF 6
ENDMDL
MODEL 4
REMARK VINA RESULT: -5.882218431      1.343      1.930
REMARK  6 active torsions:
REMARK  status: ('A' for Active; 'I' for Inactive)
REMARK    1  A    between atoms: C4_5  and  C5_6 
REMARK    2  A    between atoms: C5_6  and  C6_7 
REMARK    3  A    between atoms: C5_6  and  N2_17 
REMARK    4  A    between atoms: C11_14  and  O2_15 
REMARK    5  A    between atoms: C18_24  and  O3_25 
REMARK    6  A    between atoms: C20_27  and  O4_28 
ROOT
HETATM    1  C1  UNL     1       1.359   8.582  33.512  1.00  0.00     0.210 C 
HETATM    2  O1  UNL     1       1.680   9.381  32.568  1.00  0.00    -0.353 OA
HETATM    3  C2  UNL     1       2.018  10.221  31.575  1.00  0.00     0.104 A 
HETATM    4  C3  UNL     1       3.059  11.128  31.398  1.00  0.00     0.045 A 
HETATM    5  C4  UNL     1       3.277  11.825  30.265  1.00  0.00    -0.032 A 
HETATM    6  C17 UNL     1       2.428  11.646  29.078  1.00  0.00     0.104 A 
HETATM    7  C18 UNL     1       1.396  10.698  29.407  1.00  0.00     0.086 A 
HETATM    8  C20 UNL     1       1.120  10.054  30.494  1.00  0.00     0.131 A 
ENDROOT
BRANCH   8   9
HETATM    9  O4  UNL     1      -0.074   9.379  30.476  1.00  0.00    -0.351 OA
HETATM   10  C21 UNL     1      -1.100  10.266  31.097  1.00  0.00     0.210 C 
ENDBRANCH   8   9
BRANCH   5  11
HETATM   11  C5  UNL     1       4.071  13.087  30.131  1.00  0.00     0.304 C 
BRANCH  11  12
HETATM   12  C6  UNL     1       5.503  12.677  30.669  1.00  0.00     0.081 A 
HETATM   13  N1  UNL     1       6.466  12.292  30.398  1.00  0.00    -0.358 N 
HETATM   14  C7  UNL     1       7.537  11.921  30.979  1.00  0.00     0.014 A 
ATOM     15  H1  UNL     1       6.548  12.196  29.386  1.00  0.00     0.165 HD
HETATM   16  C8  UNL     1       8.916  11.494  30.986  1.00  0.00     0.068 C 
HETATM   17  C9  UNL     1       6.892  12.235  32.366  1.00  0.00    -0.005 A 
HETATM   18  C10 UNL     1       7.614  11.775  33.544  1.00  0.00     0.053 C 
HETATM   19  C11 UNL     1       5.640  12.723  32.214  1.00  0.00     0.098 A 
BRANCH  19  20
HETATM   20  O2  UNL     1       4.725  13.189  33.172  1.00  0.00    -0.358 OA
ATOM     21  H2  UNL     1       3.994  13.786  33.062  1.00  0.00     0.217 HD
ENDBRANCH  19  20
ENDBRANCH  11  12
BRANCH  11  22
HETATM   22  N2  UNL     1       3.574  14.206  30.819  1.00  0.00     0.103 N 
HETATM   23  C12 UNL     1       3.645  15.371  29.945  1.00  0.00     0.273 C 
HETATM   24  C13 UNL     1       2.942  16.527  30.479  1.00  0.00     0.030 C 
HETATM   25  C14 UNL     1       1.953  16.354  31.549  1.00  0.00     0.003 C 
HETATM   26  C15 UNL     1       1.862  15.014  32.176  1.00  0.00     0.030 C 
HETATM   27  C16 UNL     1       2.157  13.935  31.113  1.00  0.00     0.273 C 
ENDBRANCH  11  22
ENDBRANCH   5  11
BRANCH   7  28
HETATM   28  O3  UNL     1       0.588  10.481  28.170  1.00  0.00    -0.357 OA
HETATM   29  C19 UNL     1      -0.062  11.609  27.779  1.00  0.00     0.209 C 
ENDBRANCH   7  28
TORSDOF 6
ENDMDL
MODEL 5
REMARK VINA RESULT: -5.792386739      6.005      9.719
REMARK  6 active torsions:
REMARK  status: ('A' for Active; 'I' for Inactive)
REMARK    1  A    between atoms: C4_5  and  C5_6 
REMARK    2  A    between atoms: C5_6  and  C6_7 
REMARK    3  A    between atoms: C5_6  and  N2_17 
REMARK    4  A    between atoms: C11_14  and  O2_15 
REMARK    5  A    between atoms: C18_24  and  O3_25 
REMARK    6  A    between atoms: C20_27  and  O4_28 
ROOT
HETATM    1  C1  UNL     1      -7.103  14.494  28.983  1.00  0.00     0.210 C 
HETATM    2  O1  UNL     1      -6.762  13.412  28.396  1.00  0.00    -0.353 OA
HETATM    3  C2  UNL     1      -6.402  12.274  27.779  1.00  0.00     0.104 A 
HETATM    4  C3  UNL     1      -5.732  11.126  28.195  1.00  0.00     0.045 A 
HETATM    5  C4  UNL     1      -5.548  10.033  27.429  1.00  0.00    -0.032 A 
HETATM    6  C17 UNL     1      -6.090   9.950  26.065  1.00  0.00     0.104 A 
HETATM    7  C18 UNL     1      -6.740  11.199  25.767  1.00  0.00     0.086 A 
HETATM    8  C20 UNL     1      -6.889  12.289  26.450  1.00  0.00     0.131 A 
ENDROOT
BRANCH   8   9
HETATM    9  O4  UNL     1      -7.406  13.345  25.745  1.00  0.00    -0.351 OA
HETATM   10  C21 UNL     1      -8.885  13.330  25.934  1.00  0.00     0.210 C 
ENDBRANCH   8   9
BRANCH   5  11
HETATM   11  C5  UNL     1      -4.513   8.969  27.625  1.00  0.00     0.304 C 
BRANCH  11  12
HETATM   12  C6  UNL     1      -3.183   9.793  27.867  1.00  0.00     0.081 A 
HETATM   13  N1  UNL     1      -2.364  10.298  27.394  1.00  0.00    -0.358 N 
HETATM   14  C7  UNL     1      -1.277  10.867  27.733  1.00  0.00     0.014 A 
ATOM     15  H1  UNL     1      -2.493  10.332  26.383  1.00  0.00     0.165 HD
HETATM   16  C8  UNL     1      -0.099  11.657  27.465  1.00  0.00     0.068 C 
HETATM   17  C9  UNL     1      -1.567  10.527  29.230  1.00  0.00    -0.005 A 
HETATM   18  C10 UNL     1      -0.484  10.751  30.176  1.00  0.00     0.053 C 
HETATM   19  C11 UNL     1      -2.748   9.879  29.354  1.00  0.00     0.098 A 
BRANCH  19  20
HETATM   20  O2  UNL     1      -3.426   9.441  30.503  1.00  0.00    -0.358 OA
ATOM     21  H2  UNL     1      -3.483   9.850  31.359  1.00  0.00     0.217 HD
ENDBRANCH  19  20
ENDBRANCH  11  12
BRANCH  11  22
HETATM   22  N2  UNL     1      -4.357   8.056  26.569  1.00  0.00     0.103 N 
HETATM   23  C12 UNL     1      -3.295   7.116  26.907  1.00  0.00     0.273 C 
HETATM   24  C13 UNL     1      -3.214   5.993  25.985  1.00  0.00     0.030 C 
HETATM   25  C14 UNL     1      -4.349   5.681  25.109  1.00  0.00     0.003 C 
HETATM   26  C15 UNL     1      -5.462   6.659  25.068  1.00  0.00     0.030 C 
HETATM   27  C16 UNL     1      -5.620   7.307  26.460  1.00  0.00     0.273 C 
ENDBRANCH  11  22
ENDBRANCH   5  11
BRANCH   7  28
HETATM   28  O3  UNL     1      -7.340  11.070  24.406  1.00  0.00    -0.357 OA
HETATM   29  C19 UNL     1      -6.779  10.058  23.694  1.00  0.00     0.209 C 
ENDBRANCH   7  28
TORSDOF 6
ENDMDL
