MODEL 1
REMARK VINA RESULT: -7.446902234      0.000      0.000
REMARK  5 active torsions:
REMARK  status: ('A' for Active; 'I' for Inactive)
REMARK    1  A    between atoms: C2_2  and  C3_3 
REMARK    2  A    between atoms: C3_3  and  C6_6 
REMARK    3  A    between atoms: C8_8  and  O1_9 
REMARK    4  A    between atoms: C16_18  and  N1_19 
REMARK    5  A    between atoms: C27_34  and  O3_35 
ROOT
HETATM    1  C6  UNL     1       3.753   5.423  25.437  1.00  0.00     0.004 C 
HETATM    2  C7  UNL     1       3.233   3.975  25.637  1.00  0.00     0.038 C 
HETATM    3  C8  UNL     1       2.178   4.040  26.706  1.00  0.00     0.123 C 
HETATM    4  C9  UNL     1       2.338   5.442  27.253  1.00  0.00     0.019 C 
HETATM    5  C10 UNL     1       1.006   5.768  27.875  1.00  0.00     0.008 C 
HETATM    6  C11 UNL     1       0.343   6.744  26.961  1.00  0.00     0.013 C 
HETATM    7  C12 UNL     1       1.222   7.952  26.732  1.00  0.00    -0.009 C 
HETATM    8  C13 UNL     1       1.521   8.502  28.139  1.00  0.00     0.018 C 
HETATM    9  C14 UNL     1       2.514   7.641  25.985  1.00  0.00     0.004 C 
HETATM   10  C15 UNL     1       2.679   8.182  24.614  1.00  0.00     0.045 C 
HETATM   11  C16 UNL     1       3.239   9.528  24.380  1.00  0.00     0.130 C 
HETATM   12  C17 UNL     1       4.010  10.177  25.468  1.00  0.00     0.039 C 
HETATM   13  C18 UNL     1       4.933  11.239  24.841  1.00  0.00     0.002 C 
HETATM   14  C19 UNL     1       4.170  12.167  23.945  1.00  0.00     0.001 C 
HETATM   15  C20 UNL     1       2.690  11.981  24.294  1.00  0.00     0.010 C 
HETATM   16  C21 UNL     1       2.215  10.600  23.909  1.00  0.00     0.053 C 
HETATM   17  C22 UNL     1       0.867  10.355  24.461  1.00  0.00     0.157 C 
HETATM   18  O2  UNL     1       1.233   9.842  25.693  1.00  0.00    -0.371 OA
HETATM   19  C23 UNL     1       0.330   8.957  26.101  1.00  0.00     0.065 C 
HETATM   20  C24 UNL     1      -0.729   8.395  25.255  1.00  0.00     0.047 C 
HETATM   21  C25 UNL     1      -0.412   9.939  27.024  1.00  0.00     0.041 C 
HETATM   22  C26 UNL     1      -0.873  11.080  26.108  1.00  0.00     0.037 C 
HETATM   23  C27 UNL     1       0.010  11.456  24.966  1.00  0.00     0.147 C 
HETATM   24  C28 UNL     1       2.643   6.162  25.980  1.00  0.00     0.002 C 
ENDROOT
BRANCH   1  25
HETATM   25  C3  UNL     1       5.130   5.398  25.863  1.00  0.00    -0.027 C 
HETATM   26  C4  UNL     1       5.937   4.156  25.816  1.00  0.00     0.019 C 
HETATM   27  C5  UNL     1       5.457   6.061  27.208  1.00  0.00     0.019 C 
BRANCH  25  28
HETATM   28  C2  UNL     1       5.872   6.381  24.950  1.00  0.00    -0.028 C 
HETATM   29  C1  UNL     1       5.727   6.335  23.641  1.00  0.00     0.007 C 
ENDBRANCH  25  28
ENDBRANCH   1  25
BRANCH   3  30
HETATM   30  O1  UNL     1       0.916   3.919  26.123  1.00  0.00    -0.395 OA
ATOM     31  H1  UNL     1       0.373   3.351  26.658  1.00  0.00     0.210 HD
ENDBRANCH   3  30
BRANCH  11  32
HETATM   32  N1  UNL     1       4.176   9.491  23.228  1.00  0.00    -0.070 N 
ATOM     33  H13 UNL     1       5.131   9.280  23.518  1.00  0.00     0.275 HD
ATOM     34  H12 UNL     1       4.019   8.679  22.632  1.00  0.00     0.275 HD
ATOM     35  H11 UNL     1       4.120  10.366  22.706  1.00  0.00     0.275 HD
ENDBRANCH  11  32
BRANCH  23  36
HETATM   36  O3  UNL     1      -0.819  11.879  23.898  1.00  0.00    -0.393 OA
ATOM     37  H3  UNL     1      -1.712  11.635  24.113  1.00  0.00     0.210 HD
ENDBRANCH  23  36
TORSDOF 5
ENDMDL
MODEL 2
REMARK VINA RESULT: -7.193466001      2.103      5.732
REMARK  5 active torsions:
REMARK  status: ('A' for Active; 'I' for Inactive)
REMARK    1  A    between atoms: C2_2  and  C3_3 
REMARK    2  A    between atoms: C3_3  and  C6_6 
REMARK    3  A    between atoms: C8_8  and  O1_9 
REMARK    4  A    between atoms: C16_18  and  N1_19 
REMARK    5  A    between atoms: C27_34  and  O3_35 
ROOT
HETATM    1  C6  UNL     1       5.553  10.478  24.194  1.00  0.00     0.004 C 
HETATM    2  C7  UNL     1       5.494  12.026  24.274  1.00  0.00     0.038 C 
HETATM    3  C8  UNL     1       4.049  12.411  24.121  1.00  0.00     0.123 C 
HETATM    4  C9  UNL     1       3.398  11.114  23.691  1.00  0.00     0.019 C 
HETATM    5  C10 UNL     1       1.950  11.262  24.077  1.00  0.00     0.008 C 
HETATM    6  C11 UNL     1       1.740  10.385  25.266  1.00  0.00     0.013 C 
HETATM    7  C12 UNL     1       2.148   8.962  24.966  1.00  0.00    -0.009 C 
HETATM    8  C13 UNL     1       1.326   8.561  23.728  1.00  0.00     0.018 C 
HETATM    9  C14 UNL     1       3.641   8.792  24.704  1.00  0.00     0.004 C 
HETATM   10  C15 UNL     1       4.445   8.034  25.693  1.00  0.00     0.045 C 
HETATM   11  C16 UNL     1       4.585   6.567  25.608  1.00  0.00     0.130 C 
HETATM   12  C17 UNL     1       4.270   5.895  24.323  1.00  0.00     0.039 C 
HETATM   13  C18 UNL     1       5.003   4.540  24.293  1.00  0.00     0.002 C 
HETATM   14  C19 UNL     1       4.724   3.739  25.529  1.00  0.00     0.001 C 
HETATM   15  C20 UNL     1       3.494   4.375  26.185  1.00  0.00     0.010 C 
HETATM   16  C21 UNL     1       3.810   5.763  26.690  1.00  0.00     0.053 C 
HETATM   17  C22 UNL     1       2.567   6.448  27.102  1.00  0.00     0.157 C 
HETATM   18  O2  UNL     1       2.225   7.013  25.887  1.00  0.00    -0.371 OA
HETATM   19  C23 UNL     1       1.589   8.162  26.085  1.00  0.00     0.065 C 
HETATM   20  C24 UNL     1       1.518   8.866  27.370  1.00  0.00     0.047 C 
HETATM   21  C25 UNL     1       0.181   7.568  25.908  1.00  0.00     0.041 C 
HETATM   22  C26 UNL     1       0.068   6.478  26.981  1.00  0.00     0.037 C 
HETATM   23  C27 UNL     1       1.299   5.711  27.328  1.00  0.00     0.147 C 
HETATM   24  C28 UNL     1       4.188  10.161  24.528  1.00  0.00     0.002 C 
ENDROOT
BRANCH   1  25
HETATM   25  C3  UNL     1       6.292  10.183  22.992  1.00  0.00    -0.027 C 
HETATM   26  C4  UNL     1       7.037  11.233  22.260  1.00  0.00     0.019 C 
HETATM   27  C5  UNL     1       5.578   9.349  21.920  1.00  0.00     0.019 C 
BRANCH  25  28
HETATM   28  C2  UNL     1       7.357   9.156  23.393  1.00  0.00    -0.028 C 
HETATM   29  C1  UNL     1       8.563   9.536  23.764  1.00  0.00     0.007 C 
ENDBRANCH  25  28
ENDBRANCH   1  25
BRANCH   3  30
HETATM   30  O1  UNL     1       3.534  12.790  25.361  1.00  0.00    -0.395 OA
ATOM     31  H1  UNL     1       3.530  12.040  25.945  1.00  0.00     0.210 HD
ENDBRANCH   3  30
BRANCH  11  32
HETATM   32  N1  UNL     1       5.988   6.176  25.900  1.00  0.00    -0.070 N 
ATOM     33  H13 UNL     1       6.596   6.986  26.014  1.00  0.00     0.275 HD
ATOM     34  H12 UNL     1       6.089   5.781  26.835  1.00  0.00     0.275 HD
ATOM     35  H11 UNL     1       6.329   5.540  25.178  1.00  0.00     0.275 HD
ENDBRANCH  11  32
BRANCH  23  36
HETATM   36  O3  UNL     1       1.233   5.384  28.705  1.00  0.00    -0.393 OA
ATOM     37  H3  UNL     1       2.113   5.171  28.992  1.00  0.00     0.210 HD
ENDBRANCH  23  36
TORSDOF 5
ENDMDL
MODEL 3
REMARK VINA RESULT: -7.185990958      0.749      1.046
REMARK  5 active torsions:
REMARK  status: ('A' for Active; 'I' for Inactive)
REMARK    1  A    between atoms: C2_2  and  C3_3 
REMARK    2  A    between atoms: C3_3  and  C6_6 
REMARK    3  A    between atoms: C8_8  and  O1_9 
REMARK    4  A    between atoms: C16_18  and  N1_19 
REMARK    5  A    between atoms: C27_34  and  O3_35 
ROOT
HETATM    1  C6  UNL     1       3.881   5.803  24.541  1.00  0.00     0.004 C 
HETATM    2  C7  UNL     1       3.400   4.328  24.522  1.00  0.00     0.038 C 
HETATM    3  C8  UNL     1       2.368   4.198  25.608  1.00  0.00     0.123 C 
HETATM    4  C9  UNL     1       2.508   5.502  26.363  1.00  0.00     0.019 C 
HETATM    5  C10 UNL     1       1.182   5.692  27.053  1.00  0.00     0.008 C 
HETATM    6  C11 UNL     1       0.476   6.780  26.314  1.00  0.00     0.013 C 
HETATM    7  C12 UNL     1       1.321   8.032  26.261  1.00  0.00    -0.009 C 
HETATM    8  C13 UNL     1       1.639   8.364  27.731  1.00  0.00     0.018 C 
HETATM    9  C14 UNL     1       2.603   7.875  25.451  1.00  0.00     0.004 C 
HETATM   10  C15 UNL     1       2.725   8.627  24.178  1.00  0.00     0.045 C 
HETATM   11  C16 UNL     1       3.247  10.007  24.146  1.00  0.00     0.130 C 
HETATM   12  C17 UNL     1       4.028  10.500  25.308  1.00  0.00     0.039 C 
HETATM   13  C18 UNL     1       4.911  11.670  24.838  1.00  0.00     0.002 C 
HETATM   14  C19 UNL     1       4.107  12.705  24.111  1.00  0.00     0.001 C 
HETATM   15  C20 UNL     1       2.640  12.429  24.454  1.00  0.00     0.010 C 
HETATM   16  C21 UNL     1       2.189  11.112  23.867  1.00  0.00     0.053 C 
HETATM   17  C22 UNL     1       0.859  10.748  24.399  1.00  0.00     0.157 C 
HETATM   18  O2  UNL     1       1.264  10.060  25.529  1.00  0.00    -0.371 OA
HETATM   19  C23 UNL     1       0.392   9.099  25.810  1.00  0.00     0.065 C 
HETATM   20  C24 UNL     1      -0.672   8.647  24.907  1.00  0.00     0.047 C 
HETATM   21  C25 UNL     1      -0.352   9.905  26.889  1.00  0.00     0.041 C 
HETATM   22  C26 UNL     1      -0.859  11.162  26.171  1.00  0.00     0.037 C 
HETATM   23  C27 UNL     1      -0.012  11.735  25.085  1.00  0.00     0.147 C 
HETATM   24  C28 UNL     1       2.767   6.419  25.213  1.00  0.00     0.002 C 
ENDROOT
BRANCH   1  25
HETATM   25  C3  UNL     1       5.268   5.749  24.932  1.00  0.00    -0.027 C 
HETATM   26  C4  UNL     1       5.673   5.396  26.313  1.00  0.00     0.019 C 
HETATM   27  C5  UNL     1       6.156   6.932  24.523  1.00  0.00     0.019 C 
BRANCH  25  28
HETATM   28  C2  UNL     1       5.914   4.676  24.049  1.00  0.00    -0.028 C 
HETATM   29  C1  UNL     1       6.718   3.767  24.562  1.00  0.00     0.007 C 
ENDBRANCH  25  28
ENDBRANCH   1  25
BRANCH   3  30
HETATM   30  O1  UNL     1       1.097   4.136  25.036  1.00  0.00    -0.395 OA
ATOM     31  H1  UNL     1       0.947   3.264  24.689  1.00  0.00     0.210 HD
ENDBRANCH   3  30
BRANCH  11  32
HETATM   32  N1  UNL     1       4.160  10.175  22.986  1.00  0.00    -0.070 N 
ATOM     33  H13 UNL     1       4.834  10.926  23.134  1.00  0.00     0.275 HD
ATOM     34  H12 UNL     1       4.817   9.400  22.901  1.00  0.00     0.275 HD
ATOM     35  H11 UNL     1       3.616  10.311  22.133  1.00  0.00     0.275 HD
ENDBRANCH  11  32
BRANCH  23  36
HETATM   36  O3  UNL     1      -0.874  12.296  24.111  1.00  0.00    -0.393 OA
ATOM     37  H3  UNL     1      -1.743  11.942  24.259  1.00  0.00     0.210 HD
ENDBRANCH  23  36
TORSDOF 5
ENDMDL
MODEL 4
REMARK VINA RESULT: -7.157461314      1.931      3.223
REMARK  5 active torsions:
REMARK  status: ('A' for Active; 'I' for Inactive)
REMARK    1  A    between atoms: C2_2  and  C3_3 
REMARK    2  A    between atoms: C3_3  and  C6_6 
REMARK    3  A    between atoms: C8_8  and  O1_9 
REMARK    4  A    between atoms: C16_18  and  N1_19 
REMARK    5  A    between atoms: C27_34  and  O3_35 
ROOT
HETATM    1  C6  UNL     1       5.034   8.567  23.426  1.00  0.00     0.004 C 
HETATM    2  C7  UNL     1       5.542   7.109  23.280  1.00  0.00     0.038 C 
HETATM    3  C8  UNL     1       5.170   6.393  24.549  1.00  0.00     0.123 C 
HETATM    4  C9  UNL     1       4.726   7.522  25.454  1.00  0.00     0.019 C 
HETATM    5  C10 UNL     1       3.827   6.870  26.471  1.00  0.00     0.008 C 
HETATM    6  C11 UNL     1       2.434   7.277  26.123  1.00  0.00     0.013 C 
HETATM    7  C12 UNL     1       2.308   8.783  26.074  1.00  0.00    -0.009 C 
HETATM    8  C13 UNL     1       2.787   9.270  27.453  1.00  0.00     0.018 C 
HETATM    9  C14 UNL     1       3.120   9.432  24.958  1.00  0.00     0.004 C 
HETATM   10  C15 UNL     1       2.386  10.072  23.839  1.00  0.00     0.045 C 
HETATM   11  C16 UNL     1       1.950  11.481  23.911  1.00  0.00     0.130 C 
HETATM   12  C17 UNL     1       2.588  12.373  24.911  1.00  0.00     0.039 C 
HETATM   13  C18 UNL     1       2.415  13.829  24.440  1.00  0.00     0.002 C 
HETATM   14  C19 UNL     1       0.983  14.135  24.118  1.00  0.00     0.001 C 
HETATM   15  C20 UNL     1       0.151  13.021  24.761  1.00  0.00     0.010 C 
HETATM   16  C21 UNL     1       0.420  11.693  24.091  1.00  0.00     0.053 C 
HETATM   17  C22 UNL     1      -0.201  10.599  24.866  1.00  0.00     0.157 C 
HETATM   18  O2  UNL     1       0.846  10.330  25.729  1.00  0.00    -0.371 OA
HETATM   19  C23 UNL     1       0.847   9.042  26.051  1.00  0.00     0.065 C 
HETATM   20  C24 UNL     1       0.049   8.012  25.376  1.00  0.00     0.047 C 
HETATM   21  C25 UNL     1       0.132   9.241  27.400  1.00  0.00     0.041 C 
HETATM   22  C26 UNL     1      -1.206   9.904  27.050  1.00  0.00     0.037 C 
HETATM   23  C27 UNL     1      -1.234  10.855  25.901  1.00  0.00     0.147 C 
HETATM   24  C28 UNL     1       4.034   8.380  24.446  1.00  0.00     0.002 C 
ENDROOT
BRANCH   1  25
HETATM   25  C3  UNL     1       6.220   9.386  23.449  1.00  0.00    -0.027 C 
HETATM   26  C4  UNL     1       7.533   8.842  23.864  1.00  0.00     0.019 C 
HETATM   27  C5  UNL     1       6.106  10.763  24.118  1.00  0.00     0.019 C 
BRANCH  25  28
HETATM   28  C2  UNL     1       6.432   9.862  22.008  1.00  0.00    -0.028 C 
HETATM   29  C1  UNL     1       7.457  10.626  21.687  1.00  0.00     0.007 C 
ENDBRANCH  25  28
ENDBRANCH   1  25
BRANCH   3  30
HETATM   30  O1  UNL     1       4.085   5.550  24.307  1.00  0.00    -0.395 OA
ATOM     31  H1  UNL     1       3.752   5.217  25.132  1.00  0.00     0.210 HD
ENDBRANCH   3  30
BRANCH  11  32
HETATM   32  N1  UNL     1       2.188  12.151  22.607  1.00  0.00    -0.070 N 
ATOM     33  H13 UNL     1       2.849  12.923  22.688  1.00  0.00     0.275 HD
ATOM     34  H12 UNL     1       2.724  11.564  21.967  1.00  0.00     0.275 HD
ATOM     35  H11 UNL     1       1.300  12.447  22.201  1.00  0.00     0.275 HD
ENDBRANCH  11  32
BRANCH  23  36
HETATM   36  O3  UNL     1      -2.501  10.746  25.278  1.00  0.00    -0.393 OA
ATOM     37  H3  UNL     1      -2.601  11.489  24.696  1.00  0.00     0.210 HD
ENDBRANCH  23  36
TORSDOF 5
ENDMDL
MODEL 5
REMARK VINA RESULT: -6.996220955      0.772      1.266
REMARK  5 active torsions:
REMARK  status: ('A' for Active; 'I' for Inactive)
REMARK    1  A    between atoms: C2_2  and  C3_3 
REMARK    2  A    between atoms: C3_3  and  C6_6 
REMARK    3  A    between atoms: C8_8  and  O1_9 
REMARK    4  A    between atoms: C16_18  and  N1_19 
REMARK    5  A    between atoms: C27_34  and  O3_35 
ROOT
HETATM    1  C6  UNL     1       3.947   5.938  24.576  1.00  0.00     0.004 C 
HETATM    2  C7  UNL     1       3.458   4.467  24.533  1.00  0.00     0.038 C 
HETATM    3  C8  UNL     1       2.370   4.344  25.562  1.00  0.00     0.123 C 
HETATM    4  C9  UNL     1       2.477   5.648  26.323  1.00  0.00     0.019 C 
HETATM    5  C10 UNL     1       1.118   5.847  26.942  1.00  0.00     0.008 C 
HETATM    6  C11 UNL     1       0.459   6.939  26.166  1.00  0.00     0.013 C 
HETATM    7  C12 UNL     1       1.313   8.185  26.157  1.00  0.00    -0.009 C 
HETATM    8  C13 UNL     1       1.555   8.516  27.641  1.00  0.00     0.018 C 
HETATM    9  C14 UNL     1       2.636   8.020  25.416  1.00  0.00     0.004 C 
HETATM   10  C15 UNL     1       2.829   8.769  24.151  1.00  0.00     0.045 C 
HETATM   11  C16 UNL     1       3.361  10.146  24.146  1.00  0.00     0.130 C 
HETATM   12  C17 UNL     1       4.082  10.635  25.348  1.00  0.00     0.039 C 
HETATM   13  C18 UNL     1       4.997  11.799  24.924  1.00  0.00     0.002 C 
HETATM   14  C19 UNL     1       4.238  12.839  24.155  1.00  0.00     0.001 C 
HETATM   15  C20 UNL     1       2.753  12.572  24.420  1.00  0.00     0.010 C 
HETATM   16  C21 UNL     1       2.326  11.257  23.811  1.00  0.00     0.053 C 
HETATM   17  C22 UNL     1       0.968  10.902  24.272  1.00  0.00     0.157 C 
HETATM   18  O2  UNL     1       1.308  10.213  25.421  1.00  0.00    -0.371 OA
HETATM   19  C23 UNL     1       0.417   9.257  25.657  1.00  0.00     0.065 C 
HETATM   20  C24 UNL     1      -0.601   8.811  24.699  1.00  0.00     0.047 C 
HETATM   21  C25 UNL     1      -0.379  10.069  26.694  1.00  0.00     0.041 C 
HETATM   22  C26 UNL     1      -0.840  11.329  25.949  1.00  0.00     0.037 C 
HETATM   23  C27 UNL     1       0.068  11.895  24.910  1.00  0.00     0.147 C 
HETATM   24  C28 UNL     1       2.803   6.562  25.188  1.00  0.00     0.002 C 
ENDROOT
BRANCH   1  25
HETATM   25  C3  UNL     1       5.311   5.876  25.041  1.00  0.00    -0.027 C 
HETATM   26  C4  UNL     1       6.326   6.862  24.605  1.00  0.00     0.019 C 
HETATM   27  C5  UNL     1       6.005   4.508  24.990  1.00  0.00     0.019 C 
BRANCH  25  28
HETATM   28  C2  UNL     1       5.245   6.030  26.564  1.00  0.00    -0.028 C 
HETATM   29  C1  UNL     1       6.070   5.369  27.351  1.00  0.00     0.007 C 
ENDBRANCH  25  28
ENDBRANCH   1  25
BRANCH   3  30
HETATM   30  O1  UNL     1       1.130   4.289  24.924  1.00  0.00    -0.395 OA
ATOM     31  H1  UNL     1       0.507   3.835  25.480  1.00  0.00     0.210 HD
ENDBRANCH   3  30
BRANCH  11  32
HETATM   32  N1  UNL     1       4.335  10.307  23.036  1.00  0.00    -0.070 N 
ATOM     33  H13 UNL     1       4.423   9.459  22.477  1.00  0.00     0.275 HD
ATOM     34  H12 UNL     1       3.986  10.929  22.307  1.00  0.00     0.275 HD
ATOM     35  H11 UNL     1       5.234  10.618  23.405  1.00  0.00     0.275 HD
ENDBRANCH  11  32
BRANCH  23  36
HETATM   36  O3  UNL     1      -0.738  12.460  23.891  1.00  0.00    -0.393 OA
ATOM     37  H3  UNL     1      -1.569  12.701  24.283  1.00  0.00     0.210 HD
ENDBRANCH  23  36
TORSDOF 5
ENDMDL
