MODEL 1
REMARK VINA RESULT: -4.618212470      0.000      0.000
REMARK  3 active torsions:
REMARK  status: ('A' for Active; 'I' for Inactive)
REMARK       I    between atoms: C1_2  and  N3_8 
REMARK    1  A    between atoms: N2_3  and  C2_5 
REMARK    2  A    between atoms: N3_8  and  C5_10 
REMARK    3  A    between atoms: C9_14  and  N4_15 
ROOT
HETATM    1  C5  UNL     1      15.109  14.980   2.147  1.00  0.00     0.114 C 
HETATM    2  C6  UNL     1      14.507  16.363   1.972  1.00  0.00     0.027 C 
HETATM    3  C7  UNL     1      13.016  16.209   2.184  1.00  0.00     0.004 C 
HETATM    4  C8  UNL     1      12.942  14.937   2.997  1.00  0.00     0.035 C 
HETATM    5  C9  UNL     1      13.912  14.052   2.226  1.00  0.00     0.206 C 
ENDROOT
BRANCH   1   6
HETATM    6  N3  UNL     1      15.991  14.633   1.070  1.00  0.00    -0.358 N 
HETATM    7  C1  UNL     1      16.921  13.582   1.238  1.00  0.00     0.184 C 
HETATM    8  N1  UNL     1      17.180  13.028   2.538  1.00  0.00    -0.064 NA
HETATM    9  N2  UNL     1      17.563  13.087   0.241  1.00  0.00    -0.360 N 
ATOM     10  H2  UNL     1      17.396  13.465  -0.691  1.00  0.00     0.162 HD
ATOM     11  H3  UNL     1      15.947  15.142   0.187  1.00  0.00     0.162 HD
BRANCH   9  12
HETATM   12  C2  UNL     1      18.518  12.011   0.403  1.00  0.00     0.084 A 
HETATM   13  C3  UNL     1      18.763  11.203  -0.823  1.00  0.00     0.027 A 
HETATM   14  C4  UNL     1      18.055  10.592   0.375  1.00  0.00     0.027 A 
ENDBRANCH   9  12
ENDBRANCH   1   6
BRANCH   5  15
HETATM   15  N4  UNL     1      13.466  13.825   0.867  1.00  0.00    -0.073 N 
ATOM     16  H43 UNL     1      12.545  14.218   0.676  1.00  0.00     0.274 HD
ATOM     17  H42 UNL     1      13.985  14.369   0.177  1.00  0.00     0.274 HD
ATOM     18  H41 UNL     1      13.514  12.819   0.704  1.00  0.00     0.274 HD
ENDBRANCH   5  15
TORSDOF 3
ENDMDL
MODEL 2
REMARK VINA RESULT: -4.394295822      8.888     10.344
REMARK  3 active torsions:
REMARK  status: ('A' for Active; 'I' for Inactive)
REMARK       I    between atoms: C1_2  and  N3_8 
REMARK    1  A    between atoms: N2_3  and  C2_5 
REMARK    2  A    between atoms: N3_8  and  C5_10 
REMARK    3  A    between atoms: C9_14  and  N4_15 
ROOT
HETATM    1  C5  UNL     1      11.281   7.264   7.161  1.00  0.00     0.114 C 
HETATM    2  C6  UNL     1      11.367   5.759   6.974  1.00  0.00     0.027 C 
HETATM    3  C7  UNL     1       9.944   5.265   6.824  1.00  0.00     0.004 C 
HETATM    4  C8  UNL     1       9.222   6.513   6.372  1.00  0.00     0.035 C 
HETATM    5  C9  UNL     1       9.800   7.540   7.338  1.00  0.00     0.206 C 
ENDROOT
BRANCH   1   6
HETATM    6  N3  UNL     1      12.052   7.717   8.282  1.00  0.00    -0.358 N 
HETATM    7  C1  UNL     1      12.884   8.852   8.147  1.00  0.00     0.184 C 
HETATM    8  N1  UNL     1      13.172   9.403   6.852  1.00  0.00    -0.064 NA
HETATM    9  N2  UNL     1      13.408   9.425   9.169  1.00  0.00    -0.360 N 
ATOM     10  H2  UNL     1      13.218   9.051  10.098  1.00  0.00     0.162 HD
ATOM     11  H3  UNL     1      12.000   7.222   9.172  1.00  0.00     0.162 HD
BRANCH   9  12
HETATM   12  C2  UNL     1      14.262  10.588   9.041  1.00  0.00     0.084 A 
HETATM   13  C3  UNL     1      14.268  11.492  10.224  1.00  0.00     0.027 A 
HETATM   14  C4  UNL     1      13.658  11.946   8.908  1.00  0.00     0.027 A 
ENDBRANCH   9  12
ENDBRANCH   1   6
BRANCH   5  15
HETATM   15  N4  UNL     1       9.475   7.223   8.713  1.00  0.00    -0.073 N 
ATOM     16  H43 UNL     1      10.103   7.664   9.385  1.00  0.00     0.274 HD
ATOM     17  H42 UNL     1       8.612   7.663   9.034  1.00  0.00     0.274 HD
ATOM     18  H41 UNL     1       9.459   6.206   8.787  1.00  0.00     0.274 HD
ENDBRANCH   5  15
TORSDOF 3
ENDMDL
MODEL 3
REMARK VINA RESULT: -4.309443009      1.140      1.254
REMARK  3 active torsions:
REMARK  status: ('A' for Active; 'I' for Inactive)
REMARK       I    between atoms: C1_2  and  N3_8 
REMARK    1  A    between atoms: N2_3  and  C2_5 
REMARK    2  A    between atoms: N3_8  and  C5_10 
REMARK    3  A    between atoms: C9_14  and  N4_15 
ROOT
HETATM    1  C5  UNL     1      14.637  14.476   2.697  1.00  0.00     0.114 C 
HETATM    2  C6  UNL     1      15.306  15.422   3.679  1.00  0.00     0.027 C 
HETATM    3  C7  UNL     1      14.253  16.430   4.086  1.00  0.00     0.004 C 
HETATM    4  C8  UNL     1      12.971  15.688   3.783  1.00  0.00     0.035 C 
HETATM    5  C9  UNL     1      13.293  15.117   2.408  1.00  0.00     0.206 C 
ENDROOT
BRANCH   1   6
HETATM    6  N3  UNL     1      15.414  14.292   1.506  1.00  0.00    -0.358 N 
HETATM    7  C1  UNL     1      16.575  13.485   1.546  1.00  0.00     0.184 C 
HETATM    8  N1  UNL     1      17.134  13.059   2.798  1.00  0.00    -0.064 NA
HETATM    9  N2  UNL     1      17.167  13.107   0.470  1.00  0.00    -0.360 N 
ATOM     10  H2  UNL     1      16.788  13.398  -0.431  1.00  0.00     0.162 HD
ATOM     11  H3  UNL     1      15.131  14.741   0.635  1.00  0.00     0.162 HD
BRANCH   9  12
HETATM   12  C2  UNL     1      18.356  12.281   0.500  1.00  0.00     0.084 A 
HETATM   13  C3  UNL     1      18.672  11.595  -0.783  1.00  0.00     0.027 A 
HETATM   14  C4  UNL     1      18.234  10.795   0.434  1.00  0.00     0.027 A 
ENDBRANCH   9  12
ENDBRANCH   1   6
BRANCH   5  15
HETATM   15  N4  UNL     1      13.528  16.165   1.435  1.00  0.00    -0.073 N 
ATOM     16  H43 UNL     1      14.184  15.892   0.703  1.00  0.00     0.274 HD
ATOM     17  H42 UNL     1      12.725  16.340   0.831  1.00  0.00     0.274 HD
ATOM     18  H41 UNL     1      13.827  16.989   1.955  1.00  0.00     0.274 HD
ENDBRANCH   5  15
TORSDOF 3
ENDMDL
MODEL 4
REMARK VINA RESULT: -4.245356376      8.869     10.248
REMARK  3 active torsions:
REMARK  status: ('A' for Active; 'I' for Inactive)
REMARK       I    between atoms: C1_2  and  N3_8 
REMARK    1  A    between atoms: N2_3  and  C2_5 
REMARK    2  A    between atoms: N3_8  and  C5_10 
REMARK    3  A    between atoms: C9_14  and  N4_15 
ROOT
HETATM    1  C5  UNL     1      11.112   7.294   7.782  1.00  0.00     0.114 C 
HETATM    2  C6  UNL     1       9.727   7.520   7.203  1.00  0.00     0.027 C 
HETATM    3  C7  UNL     1       9.305   6.208   6.578  1.00  0.00     0.004 C 
HETATM    4  C8  UNL     1      10.176   5.214   7.312  1.00  0.00     0.035 C 
HETATM    5  C9  UNL     1      11.521   5.927   7.265  1.00  0.00     0.206 C 
ENDROOT
BRANCH   1   6
HETATM    6  N3  UNL     1      12.037   8.317   7.391  1.00  0.00    -0.358 N 
HETATM    7  C1  UNL     1      12.757   9.026   8.380  1.00  0.00     0.184 C 
HETATM    8  N1  UNL     1      12.396   8.925   9.767  1.00  0.00    -0.064 NA
HETATM    9  N2  UNL     1      13.752   9.780   8.076  1.00  0.00    -0.360 N 
ATOM     10  H2  UNL     1      14.026   9.867   7.098  1.00  0.00     0.162 HD
ATOM     11  H3  UNL     1      12.175   8.533   6.403  1.00  0.00     0.162 HD
BRANCH   9  12
HETATM   12  C2  UNL     1      14.495  10.510   9.083  1.00  0.00     0.084 A 
HETATM   13  C3  UNL     1      13.655  11.244  10.068  1.00  0.00     0.027 A 
HETATM   14  C4  UNL     1      14.508  12.002   9.063  1.00  0.00     0.027 A 
ENDBRANCH   9  12
ENDBRANCH   1   6
BRANCH   5  15
HETATM   15  N4  UNL     1      11.981   6.114   5.904  1.00  0.00    -0.073 N 
ATOM     16  H43 UNL     1      11.465   6.835   5.401  1.00  0.00     0.274 HD
ATOM     17  H42 UNL     1      12.902   6.549   5.847  1.00  0.00     0.274 HD
ATOM     18  H41 UNL     1      11.939   5.201   5.450  1.00  0.00     0.274 HD
ENDBRANCH   5  15
TORSDOF 3
ENDMDL
MODEL 5
REMARK VINA RESULT: -3.964934544      8.952     10.194
REMARK  3 active torsions:
REMARK  status: ('A' for Active; 'I' for Inactive)
REMARK       I    between atoms: C1_2  and  N3_8 
REMARK    1  A    between atoms: N2_3  and  C2_5 
REMARK    2  A    between atoms: N3_8  and  C5_10 
REMARK    3  A    between atoms: C9_14  and  N4_15 
ROOT
HETATM    1  C5  UNL     1      13.152   9.842   8.667  1.00  0.00     0.114 C 
HETATM    2  C6  UNL     1      12.901  11.338   8.728  1.00  0.00     0.027 C 
HETATM    3  C7  UNL     1      13.968  11.914   9.633  1.00  0.00     0.004 C 
HETATM    4  C8  UNL     1      15.046  10.857   9.563  1.00  0.00     0.035 C 
HETATM    5  C9  UNL     1      14.213   9.592   9.721  1.00  0.00     0.206 C 
ENDROOT
BRANCH   1   6
HETATM    6  N3  UNL     1      11.960   9.082   8.911  1.00  0.00    -0.358 N 
HETATM    7  C1  UNL     1      11.477   8.201   7.916  1.00  0.00     0.184 C 
HETATM    8  N1  UNL     1      12.000   8.241   6.579  1.00  0.00    -0.064 NA
HETATM    9  N2  UNL     1      10.559   7.339   8.172  1.00  0.00    -0.360 N 
ATOM     10  H2  UNL     1      10.172   7.293   9.114  1.00  0.00     0.162 HD
ATOM     11  H3  UNL     1      11.464   9.177   9.797  1.00  0.00     0.162 HD
BRANCH   9  12
HETATM   12  C2  UNL     1      10.057   6.433   7.160  1.00  0.00     0.084 A 
HETATM   13  C3  UNL     1      10.058   4.997   7.552  1.00  0.00     0.027 A 
HETATM   14  C4  UNL     1      10.991   5.501   6.463  1.00  0.00     0.027 A 
ENDBRANCH   9  12
ENDBRANCH   1   6
BRANCH   5  15
HETATM   15  N4  UNL     1      13.535   9.555  11.000  1.00  0.00    -0.073 N 
ATOM     16  H43 UNL     1      14.173   9.473  11.791  1.00  0.00     0.274 HD
ATOM     17  H42 UNL     1      13.120  10.450  11.261  1.00  0.00     0.274 HD
ATOM     18  H41 UNL     1      12.855   8.796  10.953  1.00  0.00     0.274 HD
ENDBRANCH   5  15
TORSDOF 3
ENDMDL
