MODEL 1
REMARK VINA RESULT: -5.537521926      0.000      0.000
REMARK  1 active torsions:
REMARK  status: ('A' for Active; 'I' for Inactive)
REMARK       I    between atoms: C1_4  and  N3_6 
REMARK       I    between atoms: C2_8  and  N5_10 
REMARK    1  A    between atoms: N5_10  and  C3_12 
ROOT
HETATM    1  N1  UNL     1      15.225  11.126   9.799  1.00  0.00    -0.373 N 
ATOM      2  H11 UNL     1      15.520  10.237  10.202  1.00  0.00     0.158 HD
ATOM      3  H12 UNL     1      15.683  11.978  10.125  1.00  0.00     0.158 HD
HETATM    4  C1  UNL     1      14.304  11.163   8.910  1.00  0.00     0.188 C 
HETATM    5  N2  UNL     1      13.895  12.395   8.351  1.00  0.00    -0.064 NA
HETATM    6  N3  UNL     1      13.667   9.980   8.458  1.00  0.00    -0.305 N 
ATOM      7  H3  UNL     1      13.701   9.765   7.461  1.00  0.00     0.171 HD
HETATM    8  C2  UNL     1      13.051   9.164   9.234  1.00  0.00     0.190 C 
HETATM    9  N4  UNL     1      12.911   9.311  10.627  1.00  0.00    -0.063 NA
HETATM   10  N5  UNL     1      12.465   8.018   8.622  1.00  0.00    -0.360 N 
ATOM     11  H5  UNL     1      12.893   7.108   8.794  1.00  0.00     0.162 HD
ENDROOT
BRANCH  10  12
HETATM   12  C3  UNL     1      11.310   8.071   7.782  1.00  0.00     0.084 C 
HETATM   13  C4  UNL     1      10.208   7.249   8.408  1.00  0.00     0.025 C 
HETATM   14  C5  UNL     1      10.332   5.823   7.917  1.00  0.00     0.002 C 
HETATM   15  C6  UNL     1       9.961   5.757   6.465  1.00  0.00     0.000 C 
HETATM   16  C7  UNL     1      10.491   6.957   5.714  1.00  0.00     0.002 C 
HETATM   17  C8  UNL     1      11.703   7.491   6.423  1.00  0.00     0.025 C 
ENDBRANCH  10  12
TORSDOF 1
ENDMDL
MODEL 2
REMARK VINA RESULT: -5.530557442      1.219      2.342
REMARK  1 active torsions:
REMARK  status: ('A' for Active; 'I' for Inactive)
REMARK       I    between atoms: C1_4  and  N3_6 
REMARK       I    between atoms: C2_8  and  N5_10 
REMARK    1  A    between atoms: N5_10  and  C3_12 
ROOT
HETATM    1  N1  UNL     1      13.668  11.549   9.872  1.00  0.00    -0.373 N 
ATOM      2  H11 UNL     1      13.653  12.065   8.993  1.00  0.00     0.158 HD
ATOM      3  H12 UNL     1      14.058  12.010  10.694  1.00  0.00     0.158 HD
HETATM    4  C1  UNL     1      13.209  10.354   9.932  1.00  0.00     0.188 C 
HETATM    5  N2  UNL     1      13.231   9.638  11.151  1.00  0.00    -0.064 NA
HETATM    6  N3  UNL     1      12.668   9.713   8.790  1.00  0.00    -0.305 N 
ATOM      7  H3  UNL     1      11.706   9.375   8.837  1.00  0.00     0.171 HD
HETATM    8  C2  UNL     1      13.321   9.535   7.699  1.00  0.00     0.190 C 
HETATM    9  N4  UNL     1      14.651   9.938   7.469  1.00  0.00    -0.063 NA
HETATM   10  N5  UNL     1      12.632   8.873   6.641  1.00  0.00    -0.360 N 
ATOM     11  H5  UNL     1      12.359   9.423   5.827  1.00  0.00     0.162 HD
ENDROOT
BRANCH  10  12
HETATM   12  C3  UNL     1      12.303   7.483   6.657  1.00  0.00     0.084 C 
HETATM   13  C4  UNL     1      11.471   7.160   5.438  1.00  0.00     0.025 C 
HETATM   14  C5  UNL     1      10.013   7.372   5.779  1.00  0.00     0.002 C 
HETATM   15  C6  UNL     1       9.560   6.306   6.734  1.00  0.00     0.000 C 
HETATM   16  C7  UNL     1      10.632   6.005   7.758  1.00  0.00     0.002 C 
HETATM   17  C8  UNL     1      11.506   7.214   7.934  1.00  0.00     0.025 C 
ENDBRANCH  10  12
TORSDOF 1
ENDMDL
MODEL 3
REMARK VINA RESULT: -5.479591153      1.508      1.672
REMARK  1 active torsions:
REMARK  status: ('A' for Active; 'I' for Inactive)
REMARK       I    between atoms: C1_4  and  N3_6 
REMARK       I    between atoms: C2_8  and  N5_10 
REMARK    1  A    between atoms: N5_10  and  C3_12 
ROOT
HETATM    1  N1  UNL     1      15.817  10.342   7.376  1.00  0.00    -0.373 N 
ATOM      2  H11 UNL     1      15.893   9.988   8.330  1.00  0.00     0.158 HD
ATOM      3  H12 UNL     1      16.537  10.983   7.041  1.00  0.00     0.158 HD
HETATM    4  C1  UNL     1      14.842   9.985   6.627  1.00  0.00     0.188 C 
HETATM    5  N2  UNL     1      14.737  10.474   5.304  1.00  0.00    -0.064 NA
HETATM    6  N3  UNL     1      13.842   9.095   7.091  1.00  0.00    -0.305 N 
ATOM      7  H3  UNL     1      13.687   8.230   6.572  1.00  0.00     0.171 HD
HETATM    8  C2  UNL     1      13.119   9.317   8.129  1.00  0.00     0.190 C 
HETATM    9  N4  UNL     1      13.203  10.456   8.953  1.00  0.00    -0.063 NA
HETATM   10  N5  UNL     1      12.157   8.320   8.465  1.00  0.00    -0.360 N 
ATOM     11  H5  UNL     1      12.325   7.749   9.293  1.00  0.00     0.162 HD
ENDROOT
BRANCH  10  12
HETATM   12  C3  UNL     1      10.971   8.076   7.707  1.00  0.00     0.084 C 
HETATM   13  C4  UNL     1      10.090   7.113   8.467  1.00  0.00     0.025 C 
HETATM   14  C5  UNL     1      10.469   5.702   8.075  1.00  0.00     0.002 C 
HETATM   15  C6  UNL     1      10.039   5.440   6.661  1.00  0.00     0.000 C 
HETATM   16  C7  UNL     1      10.279   6.651   5.788  1.00  0.00     0.002 C 
HETATM   17  C8  UNL     1      11.396   7.470   6.370  1.00  0.00     0.025 C 
ENDBRANCH  10  12
TORSDOF 1
ENDMDL
MODEL 4
REMARK VINA RESULT: -5.159290639      1.434      2.529
REMARK  1 active torsions:
REMARK  status: ('A' for Active; 'I' for Inactive)
REMARK       I    between atoms: C1_4  and  N3_6 
REMARK       I    between atoms: C2_8  and  N5_10 
REMARK    1  A    between atoms: N5_10  and  C3_12 
ROOT
HETATM    1  N1  UNL     1      13.773  10.829   8.765  1.00  0.00    -0.373 N 
ATOM      2  H11 UNL     1      13.902  11.246   7.843  1.00  0.00     0.158 HD
ATOM      3  H12 UNL     1      14.299  11.219   9.547  1.00  0.00     0.158 HD
HETATM    4  C1  UNL     1      12.973   9.842   8.925  1.00  0.00     0.188 C 
HETATM    5  N2  UNL     1      12.794   9.264  10.203  1.00  0.00    -0.064 NA
HETATM    6  N3  UNL     1      12.243   9.299   7.838  1.00  0.00    -0.305 N 
ATOM      7  H3  UNL     1      11.225   9.277   7.905  1.00  0.00     0.171 HD
HETATM    8  C2  UNL     1      12.792   8.834   6.775  1.00  0.00     0.190 C 
HETATM    9  N4  UNL     1      14.177   8.790   6.525  1.00  0.00    -0.063 NA
HETATM   10  N5  UNL     1      11.917   8.325   5.773  1.00  0.00    -0.360 N 
ATOM     11  H5  UNL     1      11.811   8.858   4.910  1.00  0.00     0.162 HD
ENDROOT
BRANCH  10  12
HETATM   12  C3  UNL     1      11.179   7.109   5.908  1.00  0.00     0.084 C 
HETATM   13  C4  UNL     1       9.720   7.439   6.122  1.00  0.00     0.025 C 
HETATM   14  C5  UNL     1       9.474   7.596   7.606  1.00  0.00     0.002 C 
HETATM   15  C6  UNL     1       9.573   6.258   8.276  1.00  0.00     0.000 C 
HETATM   16  C7  UNL     1      10.702   5.440   7.690  1.00  0.00     0.002 C 
HETATM   17  C8  UNL     1      11.740   6.363   7.119  1.00  0.00     0.025 C 
ENDBRANCH  10  12
TORSDOF 1
ENDMDL
MODEL 5
REMARK VINA RESULT: -4.748823362      1.239      1.889
REMARK  1 active torsions:
REMARK  status: ('A' for Active; 'I' for Inactive)
REMARK       I    between atoms: C1_4  and  N3_6 
REMARK       I    between atoms: C2_8  and  N5_10 
REMARK    1  A    between atoms: N5_10  and  C3_12 
ROOT
HETATM    1  N1  UNL     1      14.564  10.872   9.490  1.00  0.00    -0.373 N 
ATOM      2  H11 UNL     1      14.735  11.158   8.526  1.00  0.00     0.158 HD
ATOM      3  H12 UNL     1      15.282  11.075  10.186  1.00  0.00     0.158 HD
HETATM    4  C1  UNL     1      13.476  10.276   9.808  1.00  0.00     0.188 C 
HETATM    5  N2  UNL     1      13.239   9.880  11.145  1.00  0.00    -0.064 NA
HETATM    6  N3  UNL     1      12.479   9.994   8.841  1.00  0.00    -0.305 N 
ATOM      7  H3  UNL     1      11.541  10.365   8.993  1.00  0.00     0.171 HD
HETATM    8  C2  UNL     1      12.692   9.297   7.784  1.00  0.00     0.190 C 
HETATM    9  N4  UNL     1      13.922   8.714   7.425  1.00  0.00    -0.063 NA
HETATM   10  N5  UNL     1      11.583   9.106   6.910  1.00  0.00    -0.360 N 
ATOM     11  H5  UNL     1      11.588   9.591   6.012  1.00  0.00     0.162 HD
ENDROOT
BRANCH  10  12
HETATM   12  C3  UNL     1      10.464   8.273   7.219  1.00  0.00     0.084 C 
HETATM   13  C4  UNL     1      10.781   7.461   8.454  1.00  0.00     0.025 C 
HETATM   14  C5  UNL     1      11.450   6.174   8.025  1.00  0.00     0.002 C 
HETATM   15  C6  UNL     1      10.448   5.290   7.342  1.00  0.00     0.000 C 
HETATM   16  C7  UNL     1       9.527   6.098   6.455  1.00  0.00     0.002 C 
HETATM   17  C8  UNL     1      10.231   7.353   6.021  1.00  0.00     0.025 C 
ENDBRANCH  10  12
TORSDOF 1
ENDMDL
