MODEL 1
REMARK VINA RESULT: -6.038362398      0.000      0.000
REMARK  8 active torsions:
REMARK  status: ('A' for Active; 'I' for Inactive)
REMARK    1  A    between atoms: N1_1  and  C1_4 
REMARK    2  A    between atoms: N5_14  and  C4_15 
REMARK    3  A    between atoms: C5_17  and  C6_18 
REMARK       I    between atoms: C6_18  and  N6_20 
REMARK    4  A    between atoms: N6_20  and  C7_22 
REMARK    5  A    between atoms: C7_22  and  C8_23 
REMARK    6  A    between atoms: C8_23  and  O4_24 
REMARK    7  A    between atoms: C8_23  and  O5_26 
REMARK    8  A    between atoms: C9_30  and  O6_31 
ROOT
HETATM    1  C4  UNL     1     -21.816  13.769  23.000  1.00  0.00     0.304 C 
HETATM    2  O2  UNL     1     -21.282  14.320  24.295  1.00  0.00    -0.299 OA
HETATM    3  C5  UNL     1     -20.843  13.222  24.852  1.00  0.00     0.212 C 
HETATM    4  N7  UNL     1     -19.894  12.737  23.769  1.00  0.00    -0.336 N 
ATOM      5  H7  UNL     1     -18.893  12.547  23.792  1.00  0.00     0.164 HD
HETATM    6  C9  UNL     1     -20.864  12.626  22.688  1.00  0.00     0.271 C 
ENDROOT
BRANCH   1   7
HETATM    7  N5  UNL     1     -21.700  14.766  21.979  1.00  0.00    -0.225 N 
HETATM    8  N4  UNL     1     -21.134  15.964  22.049  1.00  0.00    -0.236 N 
HETATM    9  N3  UNL     1     -21.292  16.527  20.868  1.00  0.00    -0.278 N 
ATOM     10  H4  UNL     1     -20.668  16.370  22.859  1.00  0.00     0.208 HD
HETATM   11  C3  UNL     1     -21.946  15.725  20.031  1.00  0.00     0.164 A 
ATOM     12  H3  UNL     1     -20.955  17.459  20.627  1.00  0.00     0.189 HD
HETATM   13  C2  UNL     1     -22.370  15.809  18.726  1.00  0.00     0.291 A 
HETATM   14  C10 UNL     1     -22.223  14.553  20.744  1.00  0.00     0.175 A 
HETATM   15  N2  UNL     1     -23.037  14.787  18.155  1.00  0.00    -0.154 N 
HETATM   16  O1  UNL     1     -22.125  16.865  18.075  1.00  0.00    -0.265 OA
HETATM   17  C1  UNL     1     -23.309  13.657  18.843  1.00  0.00     0.680 A 
ATOM     18  H2  UNL     1     -23.343  14.868  17.185  1.00  0.00     0.187 HD
HETATM   19  N8  UNL     1     -22.885  13.573  20.129  1.00  0.00    -0.173 N 
ATOM     20  H8  UNL     1     -23.081  12.718  20.650  1.00  0.00     0.186 HD
BRANCH  17  21
HETATM   21  N1  UNL     1     -23.954  12.732  18.234  1.00  0.00    -0.234 N 
ATOM     22  H12 UNL     1     -24.646  12.899  17.503  1.00  0.00     0.174 HD
ATOM     23  H11 UNL     1     -23.760  11.767  18.499  1.00  0.00     0.174 HD
ENDBRANCH  17  21
ENDBRANCH   1   7
BRANCH   6  24
HETATM   24  O6  UNL     1     -21.526  11.372  22.806  1.00  0.00    -0.372 OA
ATOM     25  H6  UNL     1     -20.978  10.744  23.263  1.00  0.00     0.212 HD
ENDBRANCH   6  24
BRANCH   3  26
HETATM   26  C6  UNL     1     -20.326  12.834  26.107  1.00  0.00     0.292 C 
HETATM   27  O3  UNL     1     -19.192  13.090  26.533  1.00  0.00    -0.264 OA
HETATM   28  N6  UNL     1     -21.215  12.095  26.997  1.00  0.00    -0.349 N 
ATOM     29  H6  UNL     1     -22.148  11.868  26.655  1.00  0.00     0.163 HD
BRANCH  28  30
HETATM   30  C7  UNL     1     -20.870  11.674  28.298  1.00  0.00     0.183 C 
BRANCH  30  31
HETATM   31  C8  UNL     1     -20.045  10.468  28.528  1.00  0.00     0.271 C 
BRANCH  31  32
HETATM   32  O4  UNL     1     -20.138  10.198  29.943  1.00  0.00    -0.370 OA
ATOM     33  H4  UNL     1     -19.470   9.546  30.124  1.00  0.00     0.212 HD
ENDBRANCH  31  32
BRANCH  31  34
HETATM   34  O5  UNL     1     -18.711  10.560  28.285  1.00  0.00    -0.370 OA
ATOM     35  H5  UNL     1     -18.321   9.912  27.710  1.00  0.00     0.212 HD
ENDBRANCH  31  34
ENDBRANCH  30  31
ENDBRANCH  28  30
ENDBRANCH   3  26
TORSDOF 8
ENDMDL
MODEL 2
REMARK VINA RESULT: -6.001811040      4.967      8.750
REMARK  8 active torsions:
REMARK  status: ('A' for Active; 'I' for Inactive)
REMARK    1  A    between atoms: N1_1  and  C1_4 
REMARK    2  A    between atoms: N5_14  and  C4_15 
REMARK    3  A    between atoms: C5_17  and  C6_18 
REMARK       I    between atoms: C6_18  and  N6_20 
REMARK    4  A    between atoms: N6_20  and  C7_22 
REMARK    5  A    between atoms: C7_22  and  C8_23 
REMARK    6  A    between atoms: C8_23  and  O4_24 
REMARK    7  A    between atoms: C8_23  and  O5_26 
REMARK    8  A    between atoms: C9_30  and  O6_31 
ROOT
HETATM    1  C4  UNL     1     -22.719  17.059  23.525  1.00  0.00     0.304 C 
HETATM    2  O2  UNL     1     -21.920  17.532  22.340  1.00  0.00    -0.299 OA
HETATM    3  C5  UNL     1     -22.166  16.567  21.494  1.00  0.00     0.212 C 
HETATM    4  N7  UNL     1     -23.684  16.613  21.472  1.00  0.00    -0.336 N 
ATOM      5  H7  UNL     1     -24.338  16.767  20.705  1.00  0.00     0.164 HD
HETATM    6  C9  UNL     1     -23.913  16.367  22.888  1.00  0.00     0.271 C 
ENDROOT
BRANCH   1   7
HETATM    7  N5  UNL     1     -23.177  18.193  24.270  1.00  0.00    -0.225 N 
HETATM    8  N4  UNL     1     -24.421  18.597  24.484  1.00  0.00    -0.236 N 
HETATM    9  N3  UNL     1     -24.344  19.696  25.206  1.00  0.00    -0.278 N 
ATOM     10  H4  UNL     1     -25.274  18.145  24.153  1.00  0.00     0.208 HD
HETATM   11  C3  UNL     1     -23.079  20.016  25.469  1.00  0.00     0.164 A 
ATOM     12  H3  UNL     1     -25.151  20.233  25.524  1.00  0.00     0.189 HD
HETATM   13  C2  UNL     1     -22.448  21.029  26.151  1.00  0.00     0.291 A 
HETATM   14  C10 UNL     1     -22.290  19.034  24.862  1.00  0.00     0.175 A 
HETATM   15  N2  UNL     1     -21.103  21.070  26.227  1.00  0.00    -0.154 N 
HETATM   16  O1  UNL     1     -23.154  21.923  26.702  1.00  0.00    -0.265 OA
HETATM   17  C1  UNL     1     -20.339  20.124  25.638  1.00  0.00     0.680 A 
ATOM     18  H2  UNL     1     -20.653  21.829  26.739  1.00  0.00     0.187 HD
HETATM   19  N8  UNL     1     -20.964  19.122  24.971  1.00  0.00    -0.173 N 
ATOM     20  H8  UNL     1     -20.392  18.401  24.531  1.00  0.00     0.186 HD
BRANCH  17  21
HETATM   21  N1  UNL     1     -19.067  20.235  25.749  1.00  0.00    -0.234 N 
ATOM     22  H12 UNL     1     -18.587  21.089  26.034  1.00  0.00     0.174 HD
ATOM     23  H11 UNL     1     -18.502  19.413  25.538  1.00  0.00     0.174 HD
ENDBRANCH  17  21
ENDBRANCH   1   7
BRANCH   6  24
HETATM   24  O6  UNL     1     -23.862  14.963  23.114  1.00  0.00    -0.372 OA
ATOM     25  H6  UNL     1     -24.701  14.642  23.422  1.00  0.00     0.212 HD
ENDBRANCH   6  24
BRANCH   3  26
HETATM   26  C6  UNL     1     -21.711  16.169  20.218  1.00  0.00     0.292 C 
HETATM   27  O3  UNL     1     -20.902  15.261  19.988  1.00  0.00    -0.264 OA
HETATM   28  N6  UNL     1     -22.269  16.865  19.063  1.00  0.00    -0.349 N 
ATOM     29  H6  UNL     1     -22.929  17.623  19.237  1.00  0.00     0.163 HD
BRANCH  28  30
HETATM   30  C7  UNL     1     -21.956  16.561  17.722  1.00  0.00     0.183 C 
BRANCH  30  31
HETATM   31  C8  UNL     1     -23.009  16.218  16.741  1.00  0.00     0.271 C 
BRANCH  31  32
HETATM   32  O4  UNL     1     -22.308  15.847  15.533  1.00  0.00    -0.370 OA
ATOM     33  H4  UNL     1     -22.577  16.481  14.877  1.00  0.00     0.212 HD
ENDBRANCH  31  32
BRANCH  31  34
HETATM   34  O5  UNL     1     -23.856  17.208  16.353  1.00  0.00    -0.370 OA
ATOM     35  H5  UNL     1     -23.626  17.707  15.578  1.00  0.00     0.212 HD
ENDBRANCH  31  34
ENDBRANCH  30  31
ENDBRANCH  28  30
ENDBRANCH   3  26
TORSDOF 8
ENDMDL
MODEL 3
REMARK VINA RESULT: -5.916858309      4.279      6.934
REMARK  8 active torsions:
REMARK  status: ('A' for Active; 'I' for Inactive)
REMARK    1  A    between atoms: N1_1  and  C1_4 
REMARK    2  A    between atoms: N5_14  and  C4_15 
REMARK    3  A    between atoms: C5_17  and  C6_18 
REMARK       I    between atoms: C6_18  and  N6_20 
REMARK    4  A    between atoms: N6_20  and  C7_22 
REMARK    5  A    between atoms: C7_22  and  C8_23 
REMARK    6  A    between atoms: C8_23  and  O4_24 
REMARK    7  A    between atoms: C8_23  and  O5_26 
REMARK    8  A    between atoms: C9_30  and  O6_31 
ROOT
HETATM    1  C4  UNL     1     -21.539  16.126  24.161  1.00  0.00     0.304 C 
HETATM    2  O2  UNL     1     -21.199  16.237  22.699  1.00  0.00    -0.299 OA
HETATM    3  C5  UNL     1     -21.091  14.971  22.389  1.00  0.00     0.212 C 
HETATM    4  N7  UNL     1     -22.457  14.472  22.829  1.00  0.00    -0.336 N 
ATOM      5  H7  UNL     1     -23.203  14.015  22.306  1.00  0.00     0.164 HD
HETATM    6  C9  UNL     1     -22.366  14.852  24.232  1.00  0.00     0.271 C 
ENDROOT
BRANCH   1   7
HETATM    7  N5  UNL     1     -22.358  17.237  24.541  1.00  0.00    -0.225 N 
HETATM    8  N4  UNL     1     -23.681  17.329  24.550  1.00  0.00    -0.236 N 
HETATM    9  N3  UNL     1     -23.974  18.547  24.956  1.00  0.00    -0.278 N 
ATOM     10  H4  UNL     1     -24.343  16.598  24.292  1.00  0.00     0.208 HD
HETATM   11  C3  UNL     1     -22.874  19.251  25.214  1.00  0.00     0.164 A 
ATOM     12  H3  UNL     1     -24.923  18.905  25.060  1.00  0.00     0.189 HD
HETATM   13  C2  UNL     1     -22.609  20.530  25.644  1.00  0.00     0.291 A 
HETATM   14  C10 UNL     1     -21.793  18.403  24.949  1.00  0.00     0.175 A 
HETATM   15  N2  UNL     1     -21.338  20.950  25.802  1.00  0.00    -0.154 N 
HETATM   16  O1  UNL     1     -23.580  21.303  25.884  1.00  0.00    -0.265 OA
HETATM   17  C1  UNL     1     -20.294  20.133  25.543  1.00  0.00     0.680 A 
ATOM     18  H2  UNL     1     -21.162  21.902  26.123  1.00  0.00     0.187 HD
HETATM   19  N8  UNL     1     -20.557  18.870  25.124  1.00  0.00    -0.173 N 
ATOM     20  H8  UNL     1     -19.771  18.247  24.935  1.00  0.00     0.186 HD
BRANCH  17  21
HETATM   21  N1  UNL     1     -19.114  20.607  25.710  1.00  0.00    -0.234 N 
ATOM     22  H12 UNL     1     -18.885  21.364  26.355  1.00  0.00     0.174 HD
ATOM     23  H11 UNL     1     -18.359  20.198  25.162  1.00  0.00     0.174 HD
ENDBRANCH  17  21
ENDBRANCH   1   7
BRANCH   6  24
HETATM   24  O6  UNL     1     -21.661  13.832  24.928  1.00  0.00    -0.372 OA
ATOM     25  H6  UNL     1     -20.804  13.692  24.544  1.00  0.00     0.212 HD
ENDBRANCH   6  24
BRANCH   3  26
HETATM   26  C6  UNL     1     -20.675  14.211  21.274  1.00  0.00     0.292 C 
HETATM   27  O3  UNL     1     -20.706  14.582  20.093  1.00  0.00    -0.264 OA
HETATM   28  N6  UNL     1     -20.128  12.885  21.536  1.00  0.00    -0.349 N 
ATOM     29  H6  UNL     1     -20.106  12.561  22.503  1.00  0.00     0.163 HD
BRANCH  28  30
HETATM   30  C7  UNL     1     -19.628  12.019  20.542  1.00  0.00     0.183 C 
BRANCH  30  31
HETATM   31  C8  UNL     1     -20.511  11.078  19.818  1.00  0.00     0.271 C 
BRANCH  31  32
HETATM   32  O4  UNL     1     -21.631  11.868  19.363  1.00  0.00    -0.370 OA
ATOM     33  H4  UNL     1     -22.155  12.039  20.137  1.00  0.00     0.212 HD
ENDBRANCH  31  32
BRANCH  31  34
HETATM   34  O5  UNL     1     -21.074  10.067  20.531  1.00  0.00    -0.370 OA
ATOM     35  H5  UNL     1     -21.529   9.387  20.047  1.00  0.00     0.212 HD
ENDBRANCH  31  34
ENDBRANCH  30  31
ENDBRANCH  28  30
ENDBRANCH   3  26
TORSDOF 8
ENDMDL
MODEL 4
REMARK VINA RESULT: -5.904228478      4.324      7.859
REMARK  8 active torsions:
REMARK  status: ('A' for Active; 'I' for Inactive)
REMARK    1  A    between atoms: N1_1  and  C1_4 
REMARK    2  A    between atoms: N5_14  and  C4_15 
REMARK    3  A    between atoms: C5_17  and  C6_18 
REMARK       I    between atoms: C6_18  and  N6_20 
REMARK    4  A    between atoms: N6_20  and  C7_22 
REMARK    5  A    between atoms: C7_22  and  C8_23 
REMARK    6  A    between atoms: C8_23  and  O4_24 
REMARK    7  A    between atoms: C8_23  and  O5_26 
REMARK    8  A    between atoms: C9_30  and  O6_31 
ROOT
HETATM    1  C4  UNL     1     -24.035  16.430  18.845  1.00  0.00     0.304 C 
HETATM    2  O2  UNL     1     -24.027  14.927  18.760  1.00  0.00    -0.299 OA
HETATM    3  C5  UNL     1     -23.887  14.768  17.470  1.00  0.00     0.212 C 
HETATM    4  N7  UNL     1     -22.612  15.562  17.242  1.00  0.00    -0.336 N 
ATOM      5  H7  UNL     1     -21.708  15.282  16.863  1.00  0.00     0.164 HD
HETATM    6  C9  UNL     1     -23.085  16.848  17.734  1.00  0.00     0.271 C 
ENDROOT
BRANCH   1   7
HETATM    7  N5  UNL     1     -23.488  16.835  20.105  1.00  0.00    -0.225 N 
HETATM    8  N4  UNL     1     -23.787  17.901  20.835  1.00  0.00    -0.236 N 
HETATM    9  N3  UNL     1     -23.013  17.860  21.900  1.00  0.00    -0.278 N 
ATOM     10  H4  UNL     1     -24.481  18.615  20.615  1.00  0.00     0.208 HD
HETATM   11  C3  UNL     1     -22.217  16.793  21.882  1.00  0.00     0.164 A 
ATOM     12  H3  UNL     1     -23.022  18.558  22.644  1.00  0.00     0.189 HD
HETATM   13  C2  UNL     1     -21.245  16.283  22.710  1.00  0.00     0.291 A 
HETATM   14  C10 UNL     1     -22.517  16.099  20.705  1.00  0.00     0.175 A 
HETATM   15  N2  UNL     1     -20.599  15.144  22.388  1.00  0.00    -0.154 N 
HETATM   16  O1  UNL     1     -20.967  16.905  23.775  1.00  0.00    -0.265 OA
HETATM   17  C1  UNL     1     -20.885  14.475  21.250  1.00  0.00     0.680 A 
ATOM     18  H2  UNL     1     -19.882  14.781  23.016  1.00  0.00     0.187 HD
HETATM   19  N8  UNL     1     -21.849  14.977  20.437  1.00  0.00    -0.173 N 
ATOM     20  H8  UNL     1     -22.073  14.471  19.580  1.00  0.00     0.186 HD
BRANCH  17  21
HETATM   21  N1  UNL     1     -20.223  13.404  21.009  1.00  0.00    -0.234 N 
ATOM     22  H12 UNL     1     -19.634  12.927  21.692  1.00  0.00     0.174 HD
ATOM     23  H11 UNL     1     -20.294  13.006  20.074  1.00  0.00     0.174 HD
ENDBRANCH  17  21
ENDBRANCH   1   7
BRANCH   6  24
HETATM   24  O6  UNL     1     -23.792  17.497  16.684  1.00  0.00    -0.372 OA
ATOM     25  H6  UNL     1     -23.253  18.166  16.278  1.00  0.00     0.212 HD
ENDBRANCH   6  24
BRANCH   3  26
HETATM   26  C6  UNL     1     -23.918  13.698  16.551  1.00  0.00     0.292 C 
HETATM   27  O3  UNL     1     -24.693  13.590  15.592  1.00  0.00    -0.264 OA
HETATM   28  N6  UNL     1     -22.927  12.641  16.721  1.00  0.00    -0.349 N 
ATOM     29  H6  UNL     1     -22.288  12.711  17.513  1.00  0.00     0.163 HD
BRANCH  28  30
HETATM   30  C7  UNL     1     -22.793  11.528  15.865  1.00  0.00     0.183 C 
BRANCH  30  31
HETATM   31  C8  UNL     1     -21.789  10.472  16.119  1.00  0.00     0.271 C 
BRANCH  31  32
HETATM   32  O4  UNL     1     -21.138  10.844  17.353  1.00  0.00    -0.370 OA
ATOM     33  H4  UNL     1     -21.636  11.578  17.695  1.00  0.00     0.212 HD
ENDBRANCH  31  32
BRANCH  31  34
HETATM   34  O5  UNL     1     -20.775  10.338  15.225  1.00  0.00    -0.370 OA
ATOM     35  H5  UNL     1     -20.447   9.462  15.058  1.00  0.00     0.212 HD
ENDBRANCH  31  34
ENDBRANCH  30  31
ENDBRANCH  28  30
ENDBRANCH   3  26
TORSDOF 8
ENDMDL
MODEL 5
REMARK VINA RESULT: -5.886665718      5.644      7.428
REMARK  8 active torsions:
REMARK  status: ('A' for Active; 'I' for Inactive)
REMARK    1  A    between atoms: N1_1  and  C1_4 
REMARK    2  A    between atoms: N5_14  and  C4_15 
REMARK    3  A    between atoms: C5_17  and  C6_18 
REMARK       I    between atoms: C6_18  and  N6_20 
REMARK    4  A    between atoms: N6_20  and  C7_22 
REMARK    5  A    between atoms: C7_22  and  C8_23 
REMARK    6  A    between atoms: C8_23  and  O4_24 
REMARK    7  A    between atoms: C8_23  and  O5_26 
REMARK    8  A    between atoms: C9_30  and  O6_31 
ROOT
HETATM    1  C4  UNL     1     -21.431  18.049  23.585  1.00  0.00     0.304 C 
HETATM    2  O2  UNL     1     -20.538  18.449  24.729  1.00  0.00    -0.299 OA
HETATM    3  C5  UNL     1     -21.118  19.560  25.100  1.00  0.00     0.212 C 
HETATM    4  N7  UNL     1     -22.526  19.051  25.359  1.00  0.00    -0.336 N 
ATOM      5  H7  UNL     1     -23.098  19.064  26.203  1.00  0.00     0.164 HD
HETATM    6  C9  UNL     1     -22.802  18.536  24.026  1.00  0.00     0.271 C 
ENDROOT
BRANCH   1   7
HETATM    7  N5  UNL     1     -21.452  16.621  23.480  1.00  0.00    -0.225 N 
HETATM    8  N4  UNL     1     -21.428  15.717  24.450  1.00  0.00    -0.236 N 
HETATM    9  N3  UNL     1     -21.444  14.536  23.867  1.00  0.00    -0.278 N 
ATOM     10  H4  UNL     1     -21.402  15.901  25.452  1.00  0.00     0.208 HD
HETATM   11  C3  UNL     1     -21.479  14.648  22.541  1.00  0.00     0.164 A 
ATOM     12  H3  UNL     1     -21.431  13.648  24.369  1.00  0.00     0.189 HD
HETATM   13  C2  UNL     1     -21.501  13.769  21.485  1.00  0.00     0.291 A 
HETATM   14  C10 UNL     1     -21.488  16.020  22.263  1.00  0.00     0.175 A 
HETATM   15  N2  UNL     1     -21.528  14.223  20.216  1.00  0.00    -0.154 N 
HETATM   16  O1  UNL     1     -21.491  12.528  21.727  1.00  0.00    -0.265 OA
HETATM   17  C1  UNL     1     -21.533  15.546  19.946  1.00  0.00     0.680 A 
ATOM     18  H2  UNL     1     -21.545  13.554  19.446  1.00  0.00     0.187 HD
HETATM   19  N8  UNL     1     -21.518  16.412  20.989  1.00  0.00    -0.173 N 
ATOM     20  H8  UNL     1     -21.529  17.413  20.790  1.00  0.00     0.186 HD
BRANCH  17  21
HETATM   21  N1  UNL     1     -21.553  15.900  18.714  1.00  0.00    -0.234 N 
ATOM     22  H12 UNL     1     -20.728  16.178  18.182  1.00  0.00     0.174 HD
ATOM     23  H11 UNL     1     -22.454  15.901  18.237  1.00  0.00     0.174 HD
ENDBRANCH  17  21
ENDBRANCH   1   7
BRANCH   6  24
HETATM   24  O6  UNL     1     -23.239  19.616  23.210  1.00  0.00    -0.372 OA
ATOM     25  H6  UNL     1     -23.412  20.387  23.737  1.00  0.00     0.212 HD
ENDBRANCH   6  24
BRANCH   3  26
HETATM   26  C6  UNL     1     -20.853  20.617  25.998  1.00  0.00     0.292 C 
HETATM   27  O3  UNL     1     -19.766  20.844  26.546  1.00  0.00    -0.264 OA
HETATM   28  N6  UNL     1     -21.942  21.545  26.279  1.00  0.00    -0.349 N 
ATOM     29  H6  UNL     1     -22.846  21.364  25.843  1.00  0.00     0.163 HD
BRANCH  28  30
HETATM   30  C7  UNL     1     -21.830  22.675  27.115  1.00  0.00     0.183 C 
BRANCH  30  31
HETATM   31  C8  UNL     1     -22.451  23.969  26.755  1.00  0.00     0.271 C 
BRANCH  31  32
HETATM   32  O4  UNL     1     -22.818  23.850  25.363  1.00  0.00    -0.370 OA
ATOM     33  H4  UNL     1     -22.057  23.483  24.928  1.00  0.00     0.212 HD
ENDBRANCH  31  32
BRANCH  31  34
HETATM   34  O5  UNL     1     -21.670  25.080  26.808  1.00  0.00    -0.370 OA
ATOM     35  H5  UNL     1     -20.844  25.017  27.273  1.00  0.00     0.212 HD
ENDBRANCH  31  34
ENDBRANCH  30  31
ENDBRANCH  28  30
ENDBRANCH   3  26
TORSDOF 8
ENDMDL
