MODEL 1
REMARK VINA RESULT: -11.441420124      0.000      0.000
REMARK  5 active torsions:
REMARK  status: ('A' for Active; 'I' for Inactive)
REMARK    1  A    between atoms: C4_4  and  C5_5 
REMARK    2  A    between atoms: C5_5  and  C6_6 
REMARK    3  A    between atoms: C7_9  and  C8_10 
REMARK    4  A    between atoms: C16_18  and  C17_19 
REMARK    5  A    between atoms: C20_22  and  C21_23 
ROOT
HETATM    1  C6  UNL     1      20.124  -9.079   5.137  1.00  0.00     0.025 A 
HETATM    2  N1  UNL     1      20.470  -8.113   4.224  1.00  0.00    -0.358 N 
ATOM      3  H1  UNL     1      21.015  -7.320   4.559  1.00  0.00     0.166 HD
HETATM    4  C7  UNL     1      20.146  -8.137   2.930  1.00  0.00     0.042 A 
HETATM    5  C14 UNL     1      19.415  -9.206   2.488  1.00  0.00     0.031 A 
HETATM    6  C15 UNL     1      19.053 -10.184   3.372  1.00  0.00     0.016 A 
HETATM    7  C16 UNL     1      19.397 -10.155   4.739  1.00  0.00    -0.003 A 
ENDROOT
BRANCH   7   8
HETATM    8  C17 UNL     1      18.953 -11.257   5.576  1.00  0.00    -0.024 A 
HETATM    9  C18 UNL     1      17.902 -11.257   6.442  1.00  0.00     0.013 A 
HETATM   10  C19 UNL     1      17.563 -12.354   7.199  1.00  0.00     0.013 A 
HETATM   11  C20 UNL     1      18.295 -13.528   7.103  1.00  0.00    -0.026 A 
HETATM   12  C27 UNL     1      19.355 -13.514   6.222  1.00  0.00     0.013 A 
HETATM   13  C28 UNL     1      19.697 -12.442   5.474  1.00  0.00     0.013 A 
BRANCH  11  14
HETATM   14  C21 UNL     1      17.999 -14.726   7.870  1.00  0.00    -0.026 A 
HETATM   15  C22 UNL     1      17.904 -15.972   7.297  1.00  0.00     0.012 A 
HETATM   16  C23 UNL     1      17.619 -17.109   8.057  1.00  0.00     0.001 A 
HETATM   17  C24 UNL     1      17.428 -16.964   9.432  1.00  0.00     0.000 A 
HETATM   18  C25 UNL     1      17.520 -15.724  10.017  1.00  0.00     0.001 A 
HETATM   19  C26 UNL     1      17.804 -14.620   9.233  1.00  0.00     0.012 A 
ENDBRANCH  11  14
ENDBRANCH   7   8
BRANCH   1  20
HETATM   20  C5  UNL     1      20.600  -8.813   6.492  1.00  0.00     0.096 C 
BRANCH  20  21
HETATM   21  C4  UNL     1      21.015  -9.958   7.306  1.00  0.00    -0.053 A 
HETATM   22  C3  UNL     1      22.133 -10.725   7.022  1.00  0.00     0.007 A 
HETATM   23  C2  UNL     1      22.477 -11.836   7.758  1.00  0.00     0.001 A 
HETATM   24  C1  UNL     1      21.711 -12.238   8.827  1.00  0.00     0.000 A 
HETATM   25  C30 UNL     1      20.596 -11.484   9.123  1.00  0.00     0.001 A 
HETATM   26  C29 UNL     1      20.262 -10.372   8.376  1.00  0.00     0.007 A 
ENDBRANCH  20  21
ENDBRANCH   1  20
BRANCH   4  27
HETATM   27  C8  UNL     1      20.563  -7.054   2.040  1.00  0.00    -0.009 A 
HETATM   28  C9  UNL     1      21.151  -5.931   2.633  1.00  0.00     0.013 A 
HETATM   29  C10 UNL     1      21.566  -4.876   1.856  1.00  0.00     0.001 A 
HETATM   30  C11 UNL     1      21.400  -4.929   0.481  1.00  0.00     0.000 A 
HETATM   31  C12 UNL     1      20.822  -6.037  -0.092  1.00  0.00     0.001 A 
HETATM   32  C13 UNL     1      20.392  -7.119   0.680  1.00  0.00     0.013 A 
ENDBRANCH   4  27
TORSDOF 5
ENDMDL
MODEL 2
REMARK VINA RESULT: -11.296205598      0.832      1.029
REMARK  5 active torsions:
REMARK  status: ('A' for Active; 'I' for Inactive)
REMARK    1  A    between atoms: C4_4  and  C5_5 
REMARK    2  A    between atoms: C5_5  and  C6_6 
REMARK    3  A    between atoms: C7_9  and  C8_10 
REMARK    4  A    between atoms: C16_18  and  C17_19 
REMARK    5  A    between atoms: C20_22  and  C21_23 
ROOT
HETATM    1  C6  UNL     1      20.582  -9.675   5.187  1.00  0.00     0.025 A 
HETATM    2  N1  UNL     1      20.860  -8.674   4.287  1.00  0.00    -0.358 N 
ATOM      3  H1  UNL     1      21.702  -8.121   4.441  1.00  0.00     0.166 HD
HETATM    4  C7  UNL     1      20.108  -8.373   3.227  1.00  0.00     0.042 A 
HETATM    5  C14 UNL     1      18.980  -9.121   3.028  1.00  0.00     0.031 A 
HETATM    6  C15 UNL     1      18.675 -10.124   3.905  1.00  0.00     0.016 A 
HETATM    7  C16 UNL     1      19.471 -10.439   5.025  1.00  0.00    -0.003 A 
ENDROOT
BRANCH   7   8
HETATM    8  C17 UNL     1      19.039 -11.529   5.883  1.00  0.00    -0.024 A 
HETATM    9  C18 UNL     1      18.357 -11.429   7.057  1.00  0.00     0.013 A 
HETATM   10  C19 UNL     1      17.996 -12.526   7.803  1.00  0.00     0.013 A 
HETATM   11  C20 UNL     1      18.321 -13.804   7.375  1.00  0.00    -0.026 A 
HETATM   12  C27 UNL     1      19.011 -13.891   6.185  1.00  0.00     0.013 A 
HETATM   13  C28 UNL     1      19.370 -12.820   5.445  1.00  0.00     0.013 A 
BRANCH  11  14
HETATM   14  C21 UNL     1      17.975 -15.010   8.109  1.00  0.00    -0.026 A 
HETATM   15  C22 UNL     1      17.879 -16.244   7.511  1.00  0.00     0.012 A 
HETATM   16  C23 UNL     1      17.545 -17.389   8.239  1.00  0.00     0.001 A 
HETATM   17  C24 UNL     1      17.308 -17.265   9.609  1.00  0.00     0.000 A 
HETATM   18  C25 UNL     1      17.401 -16.037  10.220  1.00  0.00     0.001 A 
HETATM   19  C26 UNL     1      17.734 -14.925   9.467  1.00  0.00     0.012 A 
ENDBRANCH  11  14
ENDBRANCH   7   8
BRANCH   1  20
HETATM   20  C5  UNL     1      21.564  -9.795   6.262  1.00  0.00     0.096 C 
BRANCH  20  21
HETATM   21  C4  UNL     1      21.964 -11.143   6.671  1.00  0.00    -0.053 A 
HETATM   22  C3  UNL     1      22.482 -12.080   5.792  1.00  0.00     0.007 A 
HETATM   23  C2  UNL     1      22.797 -13.364   6.176  1.00  0.00     0.001 A 
HETATM   24  C1  UNL     1      22.607 -13.778   7.474  1.00  0.00     0.000 A 
HETATM   25  C30 UNL     1      22.093 -12.856   8.361  1.00  0.00     0.001 A 
HETATM   26  C29 UNL     1      21.782 -11.571   7.962  1.00  0.00     0.007 A 
ENDBRANCH  20  21
ENDBRANCH   1  20
BRANCH   4  27
HETATM   27  C8  UNL     1      20.492  -7.283   2.330  1.00  0.00    -0.009 A 
HETATM   28  C9  UNL     1      20.893  -6.081   2.922  1.00  0.00     0.013 A 
HETATM   29  C10 UNL     1      21.268  -5.015   2.139  1.00  0.00     0.001 A 
HETATM   30  C11 UNL     1      21.246  -5.137   0.758  1.00  0.00     0.000 A 
HETATM   31  C12 UNL     1      20.851  -6.322   0.186  1.00  0.00     0.001 A 
HETATM   32  C13 UNL     1      20.466  -7.417   0.965  1.00  0.00     0.013 A 
ENDBRANCH   4  27
TORSDOF 5
ENDMDL
MODEL 3
REMARK VINA RESULT: -10.650681932      1.391      1.711
REMARK  5 active torsions:
REMARK  status: ('A' for Active; 'I' for Inactive)
REMARK    1  A    between atoms: C4_4  and  C5_5 
REMARK    2  A    between atoms: C5_5  and  C6_6 
REMARK    3  A    between atoms: C7_9  and  C8_10 
REMARK    4  A    between atoms: C16_18  and  C17_19 
REMARK    5  A    between atoms: C20_22  and  C21_23 
ROOT
HETATM    1  C6  UNL     1      19.565  -9.421   4.814  1.00  0.00     0.025 A 
HETATM    2  N1  UNL     1      19.995  -8.390   4.013  1.00  0.00    -0.358 N 
ATOM      3  H1  UNL     1      19.680  -7.449   4.245  1.00  0.00     0.166 HD
HETATM    4  C7  UNL     1      20.795  -8.531   2.955  1.00  0.00     0.042 A 
HETATM    5  C14 UNL     1      21.213  -9.798   2.652  1.00  0.00     0.031 A 
HETATM    6  C15 UNL     1      20.802 -10.846   3.428  1.00  0.00     0.016 A 
HETATM    7  C16 UNL     1      19.957 -10.693   4.546  1.00  0.00    -0.003 A 
ENDROOT
BRANCH   7   8
HETATM    8  C17 UNL     1      19.592 -11.886   5.292  1.00  0.00    -0.024 A 
HETATM    9  C18 UNL     1      18.427 -12.585   5.203  1.00  0.00     0.013 A 
HETATM   10  C19 UNL     1      18.173 -13.704   5.960  1.00  0.00     0.013 A 
HETATM   11  C20 UNL     1      19.118 -14.174   6.859  1.00  0.00    -0.026 A 
HETATM   12  C27 UNL     1      20.293 -13.458   6.938  1.00  0.00     0.013 A 
HETATM   13  C28 UNL     1      20.553 -12.357   6.200  1.00  0.00     0.013 A 
BRANCH  11  14
HETATM   14  C21 UNL     1      18.921 -15.348   7.693  1.00  0.00    -0.026 A 
HETATM   15  C22 UNL     1      17.870 -16.217   7.519  1.00  0.00     0.012 A 
HETATM   16  C23 UNL     1      17.703 -17.340   8.334  1.00  0.00     0.001 A 
HETATM   17  C24 UNL     1      18.634 -17.575   9.347  1.00  0.00     0.000 A 
HETATM   18  C25 UNL     1      19.689 -16.714   9.532  1.00  0.00     0.001 A 
HETATM   19  C26 UNL     1      19.822 -15.612   8.706  1.00  0.00     0.012 A 
ENDBRANCH  11  14
ENDBRANCH   7   8
BRANCH   1  20
HETATM   20  C5  UNL     1      18.693  -8.999   5.907  1.00  0.00     0.096 C 
BRANCH  20  21
HETATM   21  C4  UNL     1      18.804  -9.711   7.182  1.00  0.00    -0.053 A 
HETATM   22  C3  UNL     1      19.896  -9.589   8.026  1.00  0.00     0.007 A 
HETATM   23  C2  UNL     1      20.017 -10.310   9.192  1.00  0.00     0.001 A 
HETATM   24  C1  UNL     1      19.040 -11.200   9.574  1.00  0.00     0.000 A 
HETATM   25  C30 UNL     1      17.947 -11.332   8.745  1.00  0.00     0.001 A 
HETATM   26  C29 UNL     1      17.838 -10.601   7.579  1.00  0.00     0.007 A 
ENDBRANCH  20  21
ENDBRANCH   1  20
BRANCH   4  27
HETATM   27  C8  UNL     1      21.191  -7.366   2.164  1.00  0.00    -0.009 A 
HETATM   28  C9  UNL     1      20.855  -6.106   2.671  1.00  0.00     0.013 A 
HETATM   29  C10 UNL     1      21.198  -4.969   1.979  1.00  0.00     0.001 A 
HETATM   30  C11 UNL     1      21.879  -5.075   0.777  1.00  0.00     0.000 A 
HETATM   31  C12 UNL     1      22.205  -6.318   0.288  1.00  0.00     0.001 A 
HETATM   32  C13 UNL     1      21.866  -7.486   0.975  1.00  0.00     0.013 A 
ENDBRANCH   4  27
TORSDOF 5
ENDMDL
MODEL 4
REMARK VINA RESULT: -10.264133904      1.557      8.765
REMARK  5 active torsions:
REMARK  status: ('A' for Active; 'I' for Inactive)
REMARK    1  A    between atoms: C4_4  and  C5_5 
REMARK    2  A    between atoms: C5_5  and  C6_6 
REMARK    3  A    between atoms: C7_9  and  C8_10 
REMARK    4  A    between atoms: C16_18  and  C17_19 
REMARK    5  A    between atoms: C20_22  and  C21_23 
ROOT
HETATM    1  C6  UNL     1      20.423 -11.966   6.520  1.00  0.00     0.025 A 
HETATM    2  N1  UNL     1      19.899 -12.981   7.284  1.00  0.00    -0.358 N 
ATOM      3  H1  UNL     1      20.420 -13.266   8.113  1.00  0.00     0.166 HD
HETATM    4  C7  UNL     1      18.759 -13.622   7.020  1.00  0.00     0.042 A 
HETATM    5  C14 UNL     1      18.067 -13.233   5.906  1.00  0.00     0.031 A 
HETATM    6  C15 UNL     1      18.561 -12.226   5.125  1.00  0.00     0.016 A 
HETATM    7  C16 UNL     1      19.767 -11.552   5.406  1.00  0.00    -0.003 A 
ENDROOT
BRANCH   7   8
HETATM    8  C17 UNL     1      20.185 -10.497   4.498  1.00  0.00    -0.024 A 
HETATM    9  C18 UNL     1      20.870 -10.644   3.330  1.00  0.00     0.013 A 
HETATM   10  C19 UNL     1      21.226  -9.578   2.539  1.00  0.00     0.013 A 
HETATM   11  C20 UNL     1      20.891  -8.284   2.910  1.00  0.00    -0.026 A 
HETATM   12  C27 UNL     1      20.197  -8.150   4.093  1.00  0.00     0.013 A 
HETATM   13  C28 UNL     1      19.842  -9.191   4.878  1.00  0.00     0.013 A 
BRANCH  11  14
HETATM   14  C21 UNL     1      21.234  -7.109   2.127  1.00  0.00    -0.026 A 
HETATM   15  C22 UNL     1      21.070  -5.827   2.597  1.00  0.00     0.012 A 
HETATM   16  C23 UNL     1      21.408  -4.713   1.825  1.00  0.00     0.001 A 
HETATM   17  C24 UNL     1      21.925  -4.918   0.545  1.00  0.00     0.000 A 
HETATM   18  C25 UNL     1      22.094  -6.194   0.063  1.00  0.00     0.001 A 
HETATM   19  C26 UNL     1      21.749  -7.274   0.856  1.00  0.00     0.012 A 
ENDBRANCH  11  14
ENDBRANCH   7   8
BRANCH   1  20
HETATM   20  C5  UNL     1      21.686 -11.435   7.026  1.00  0.00     0.096 C 
BRANCH  20  21
HETATM   21  C4  UNL     1      22.316 -12.129   8.151  1.00  0.00    -0.053 A 
HETATM   22  C3  UNL     1      21.666 -13.089   8.910  1.00  0.00     0.007 A 
HETATM   23  C2  UNL     1      22.248 -13.689  10.004  1.00  0.00     0.001 A 
HETATM   24  C1  UNL     1      23.523 -13.355  10.396  1.00  0.00     0.000 A 
HETATM   25  C30 UNL     1      24.183 -12.403   9.650  1.00  0.00     0.001 A 
HETATM   26  C29 UNL     1      23.588 -11.808   8.555  1.00  0.00     0.007 A 
ENDBRANCH  20  21
ENDBRANCH   1  20
BRANCH   4  27
HETATM   27  C8  UNL     1      18.291 -14.695   7.897  1.00  0.00    -0.009 A 
HETATM   28  C9  UNL     1      18.074 -14.372   9.241  1.00  0.00     0.013 A 
HETATM   29  C10 UNL     1      17.634 -15.332  10.121  1.00  0.00     0.001 A 
HETATM   30  C11 UNL     1      17.404 -16.622   9.671  1.00  0.00     0.000 A 
HETATM   31  C12 UNL     1      17.620 -16.929   8.349  1.00  0.00     0.001 A 
HETATM   32  C13 UNL     1      18.068 -15.969   7.438  1.00  0.00     0.013 A 
ENDBRANCH   4  27
TORSDOF 5
ENDMDL
MODEL 5
REMARK VINA RESULT: -9.666249636      2.397      9.097
REMARK  5 active torsions:
REMARK  status: ('A' for Active; 'I' for Inactive)
REMARK    1  A    between atoms: C4_4  and  C5_5 
REMARK    2  A    between atoms: C5_5  and  C6_6 
REMARK    3  A    between atoms: C7_9  and  C8_10 
REMARK    4  A    between atoms: C16_18  and  C17_19 
REMARK    5  A    between atoms: C20_22  and  C21_23 
ROOT
HETATM    1  C6  UNL     1      19.821 -11.963   8.058  1.00  0.00     0.025 A 
HETATM    2  N1  UNL     1      19.951 -12.848   9.101  1.00  0.00    -0.358 N 
ATOM      3  H1  UNL     1      19.096 -13.220   9.514  1.00  0.00     0.166 HD
HETATM    4  C7  UNL     1      21.113 -13.255   9.614  1.00  0.00     0.042 A 
HETATM    5  C14 UNL     1      22.255 -12.749   9.053  1.00  0.00     0.031 A 
HETATM    6  C15 UNL     1      22.160 -11.867   8.014  1.00  0.00     0.016 A 
HETATM    7  C16 UNL     1      20.929 -11.439   7.475  1.00  0.00    -0.003 A 
ENDROOT
BRANCH   7   8
HETATM    8  C17 UNL     1      20.962 -10.497   6.369  1.00  0.00    -0.024 A 
HETATM    9  C18 UNL     1      20.649  -9.172   6.410  1.00  0.00     0.013 A 
HETATM   10  C19 UNL     1      20.706  -8.361   5.301  1.00  0.00     0.013 A 
HETATM   11  C20 UNL     1      21.095  -8.874   4.073  1.00  0.00    -0.026 A 
HETATM   12  C27 UNL     1      21.409 -10.216   4.047  1.00  0.00     0.013 A 
HETATM   13  C28 UNL     1      21.357 -11.022   5.129  1.00  0.00     0.013 A 
BRANCH  11  14
HETATM   14  C21 UNL     1      21.177  -8.081   2.859  1.00  0.00    -0.026 A 
HETATM   15  C22 UNL     1      21.936  -8.454   1.775  1.00  0.00     0.012 A 
HETATM   16  C23 UNL     1      21.999  -7.674   0.618  1.00  0.00     0.001 A 
HETATM   17  C24 UNL     1      21.267  -6.486   0.573  1.00  0.00     0.000 A 
HETATM   18  C25 UNL     1      20.504  -6.100   1.649  1.00  0.00     0.001 A 
HETATM   19  C26 UNL     1      20.466  -6.899   2.778  1.00  0.00     0.012 A 
ENDBRANCH  11  14
ENDBRANCH   7   8
BRANCH   1  20
HETATM   20  C5  UNL     1      18.436 -11.680   7.689  1.00  0.00     0.096 C 
BRANCH  20  21
HETATM   21  C4  UNL     1      18.113 -11.597   6.263  1.00  0.00    -0.053 A 
HETATM   22  C3  UNL     1      18.167 -12.686   5.409  1.00  0.00     0.007 A 
HETATM   23  C2  UNL     1      17.922 -12.582   4.058  1.00  0.00     0.001 A 
HETATM   24  C1  UNL     1      17.608 -11.370   3.490  1.00  0.00     0.000 A 
HETATM   25  C30 UNL     1      17.550 -10.276   4.327  1.00  0.00     0.001 A 
HETATM   26  C29 UNL     1      17.798 -10.395   5.681  1.00  0.00     0.007 A 
ENDBRANCH  20  21
ENDBRANCH   1  20
BRANCH   4  27
HETATM   27  C8  UNL     1      21.142 -14.199  10.730  1.00  0.00    -0.009 A 
HETATM   28  C9  UNL     1      20.429 -15.393  10.576  1.00  0.00     0.013 A 
HETATM   29  C10 UNL     1      20.413 -16.325  11.586  1.00  0.00     0.001 A 
HETATM   30  C11 UNL     1      21.107 -16.078  12.759  1.00  0.00     0.000 A 
HETATM   31  C12 UNL     1      21.805 -14.902  12.902  1.00  0.00     0.001 A 
HETATM   32  C13 UNL     1      21.833 -13.941  11.887  1.00  0.00     0.013 A 
ENDBRANCH   4  27
TORSDOF 5
ENDMDL
