MODEL 1
REMARK VINA RESULT: -5.205268263      0.000      0.000
REMARK  6 active torsions:
REMARK  status: ('A' for Active; 'I' for Inactive)
REMARK    1  A    between atoms: N1_1  and  C1_4 
REMARK    2  A    between atoms: C2_9  and  C3_10 
REMARK    3  A    between atoms: C3_10  and  C4_11 
REMARK    4  A    between atoms: C4_11  and  C5_12 
REMARK    5  A    between atoms: C5_12  and  N4_13 
REMARK    6  A    between atoms: C5_12  and  N5_17 
ROOT
HETATM    1  C3  UNL     1      92.286  43.373  48.808  1.00  0.00     0.066 C 
ENDROOT
BRANCH   1   2
HETATM    2  C2  UNL     1      93.499  42.540  48.772  1.00  0.00     0.076 A 
HETATM    3  C1  UNL     1      94.121  41.994  47.670  1.00  0.00     0.185 A 
HETATM    4  O1  UNL     1      95.183  41.315  48.082  1.00  0.00    -0.204 OA
HETATM    5  N2  UNL     1      95.249  41.414  49.376  1.00  0.00     0.028 NA
HETATM    6  N3  UNL     1      94.238  42.154  49.825  1.00  0.00    -0.278 N 
ATOM      7  H3  UNL     1      94.055  42.386  50.801  1.00  0.00     0.184 HD
BRANCH   3   8
HETATM    8  N1  UNL     1      93.716  42.136  46.467  1.00  0.00    -0.377 N 
ATOM      9  H12 UNL     1      93.922  41.486  45.708  1.00  0.00     0.158 HD
ATOM     10  H11 UNL     1      93.145  42.895  46.095  1.00  0.00     0.158 HD
ENDBRANCH   3   8
ENDBRANCH   1   2
BRANCH   1  11
HETATM   11  C4  UNL     1      91.093  42.682  49.391  1.00  0.00     0.068 C 
BRANCH  11  12
HETATM   12  C5  UNL     1      90.859  42.962  50.838  1.00  0.00     0.378 C 
BRANCH  12  13
HETATM   13  N4  UNL     1      91.245  41.906  51.721  1.00  0.00    -0.051 N 
ATOM     14  H43 UNL     1      90.549  41.161  51.706  1.00  0.00     0.276 HD
ATOM     15  H42 UNL     1      92.048  41.404  51.342  1.00  0.00     0.276 HD
ATOM     16  H41 UNL     1      91.430  42.199  52.680  1.00  0.00     0.276 HD
ENDBRANCH  12  13
BRANCH  12  17
HETATM   17  N5  UNL     1      91.547  44.225  51.131  1.00  0.00    -0.051 N 
ATOM     18  H53 UNL     1      92.171  44.169  51.936  1.00  0.00     0.276 HD
ATOM     19  H52 UNL     1      92.256  44.470  50.440  1.00  0.00     0.276 HD
ATOM     20  H51 UNL     1      90.820  44.933  51.232  1.00  0.00     0.276 HD
ENDBRANCH  12  17
ENDBRANCH  11  12
ENDBRANCH   1  11
TORSDOF 6
ENDMDL
MODEL 2
REMARK VINA RESULT: -5.096202362      0.873      1.790
REMARK  6 active torsions:
REMARK  status: ('A' for Active; 'I' for Inactive)
REMARK    1  A    between atoms: N1_1  and  C1_4 
REMARK    2  A    between atoms: C2_9  and  C3_10 
REMARK    3  A    between atoms: C3_10  and  C4_11 
REMARK    4  A    between atoms: C4_11  and  C5_12 
REMARK    5  A    between atoms: C5_12  and  N4_13 
REMARK    6  A    between atoms: C5_12  and  N5_17 
ROOT
HETATM    1  C3  UNL     1      92.784  43.350  48.518  1.00  0.00     0.066 C 
ENDROOT
BRANCH   1   2
HETATM    2  C2  UNL     1      93.678  42.261  48.090  1.00  0.00     0.076 A 
HETATM    3  C1  UNL     1      94.605  41.578  48.847  1.00  0.00     0.185 A 
HETATM    4  O1  UNL     1      95.194  40.676  48.074  1.00  0.00    -0.204 OA
HETATM    5  N2  UNL     1      94.679  40.766  46.883  1.00  0.00     0.028 NA
HETATM    6  N3  UNL     1      93.753  41.722  46.862  1.00  0.00    -0.278 N 
ATOM      7  H3  UNL     1      93.197  41.997  46.053  1.00  0.00     0.184 HD
BRANCH   3   8
HETATM    8  N1  UNL     1      94.836  41.803  50.083  1.00  0.00    -0.377 N 
ATOM      9  H12 UNL     1      95.500  42.496  50.430  1.00  0.00     0.158 HD
ATOM     10  H11 UNL     1      94.409  41.338  50.884  1.00  0.00     0.158 HD
ENDBRANCH   3   8
ENDBRANCH   1   2
BRANCH   1  11
HETATM   11  C4  UNL     1      91.506  42.878  49.139  1.00  0.00     0.068 C 
BRANCH  11  12
HETATM   12  C5  UNL     1      91.368  43.194  50.591  1.00  0.00     0.378 C 
BRANCH  12  13
HETATM   13  N4  UNL     1      91.447  42.061  51.458  1.00  0.00    -0.051 N 
ATOM     14  H43 UNL     1      91.991  41.318  51.021  1.00  0.00     0.276 HD
ATOM     15  H42 UNL     1      92.044  42.269  52.259  1.00  0.00     0.276 HD
ATOM     16  H41 UNL     1      90.545  41.702  51.773  1.00  0.00     0.276 HD
ENDBRANCH  12  13
BRANCH  12  17
HETATM   17  N5  UNL     1      92.385  44.209  50.891  1.00  0.00    -0.051 N 
ATOM     18  H53 UNL     1      92.559  44.325  51.889  1.00  0.00     0.276 HD
ATOM     19  H52 UNL     1      93.329  43.926  50.632  1.00  0.00     0.276 HD
ATOM     20  H51 UNL     1      92.080  45.067  50.432  1.00  0.00     0.276 HD
ENDBRANCH  12  17
ENDBRANCH  11  12
ENDBRANCH   1  11
TORSDOF 6
ENDMDL
MODEL 3
REMARK VINA RESULT: -4.989842957      1.004      1.272
REMARK  6 active torsions:
REMARK  status: ('A' for Active; 'I' for Inactive)
REMARK    1  A    between atoms: N1_1  and  C1_4 
REMARK    2  A    between atoms: C2_9  and  C3_10 
REMARK    3  A    between atoms: C3_10  and  C4_11 
REMARK    4  A    between atoms: C4_11  and  C5_12 
REMARK    5  A    between atoms: C5_12  and  N4_13 
REMARK    6  A    between atoms: C5_12  and  N5_17 
ROOT
HETATM    1  C3  UNL     1      93.015  43.722  49.231  1.00  0.00     0.066 C 
ENDROOT
BRANCH   1   2
HETATM    2  C2  UNL     1      93.894  42.560  49.024  1.00  0.00     0.076 A 
HETATM    3  C1  UNL     1      94.134  41.875  47.853  1.00  0.00     0.185 A 
HETATM    4  O1  UNL     1      94.991  40.895  48.109  1.00  0.00    -0.204 OA
HETATM    5  N2  UNL     1      95.291  40.940  49.373  1.00  0.00     0.028 NA
HETATM    6  N3  UNL     1      94.639  41.943  49.957  1.00  0.00    -0.278 N 
ATOM      7  H3  UNL     1      94.696  42.199  50.942  1.00  0.00     0.184 HD
BRANCH   3   8
HETATM    8  N1  UNL     1      93.603  42.160  46.727  1.00  0.00    -0.377 N 
ATOM      9  H12 UNL     1      93.785  43.016  46.203  1.00  0.00     0.158 HD
ATOM     10  H11 UNL     1      92.938  41.594  46.199  1.00  0.00     0.158 HD
ENDBRANCH   3   8
ENDBRANCH   1   2
BRANCH   1  11
HETATM   11  C4  UNL     1      92.433  43.806  50.608  1.00  0.00     0.068 C 
BRANCH  11  12
HETATM   12  C5  UNL     1      91.126  43.104  50.772  1.00  0.00     0.378 C 
BRANCH  12  13
HETATM   13  N4  UNL     1      90.502  42.710  49.548  1.00  0.00    -0.051 N 
ATOM     14  H43 UNL     1      90.013  43.501  49.130  1.00  0.00     0.276 HD
ATOM     15  H42 UNL     1      91.206  42.539  48.831  1.00  0.00     0.276 HD
ATOM     16  H41 UNL     1      89.876  41.909  49.628  1.00  0.00     0.276 HD
ENDBRANCH  12  13
BRANCH  12  17
HETATM   17  N5  UNL     1      91.374  41.972  51.672  1.00  0.00    -0.051 N 
ATOM     18  H53 UNL     1      92.340  41.646  51.655  1.00  0.00     0.276 HD
ATOM     19  H52 UNL     1      91.345  42.225  52.659  1.00  0.00     0.276 HD
ATOM     20  H51 UNL     1      90.699  41.250  51.420  1.00  0.00     0.276 HD
ENDBRANCH  12  17
ENDBRANCH  11  12
ENDBRANCH   1  11
TORSDOF 6
ENDMDL
MODEL 4
REMARK VINA RESULT: -4.885510734      1.606      2.332
REMARK  6 active torsions:
REMARK  status: ('A' for Active; 'I' for Inactive)
REMARK    1  A    between atoms: N1_1  and  C1_4 
REMARK    2  A    between atoms: C2_9  and  C3_10 
REMARK    3  A    between atoms: C3_10  and  C4_11 
REMARK    4  A    between atoms: C4_11  and  C5_12 
REMARK    5  A    between atoms: C5_12  and  N4_13 
REMARK    6  A    between atoms: C5_12  and  N5_17 
ROOT
HETATM    1  C3  UNL     1      93.140  43.533  49.074  1.00  0.00     0.066 C 
ENDROOT
BRANCH   1   2
HETATM    2  C2  UNL     1      92.805  42.931  47.774  1.00  0.00     0.076 A 
HETATM    3  C1  UNL     1      93.558  42.052  47.026  1.00  0.00     0.185 A 
HETATM    4  O1  UNL     1      92.884  41.757  45.922  1.00  0.00    -0.204 OA
HETATM    5  N2  UNL     1      91.759  42.407  45.950  1.00  0.00     0.028 NA
HETATM    6  N3  UNL     1      91.681  43.129  47.065  1.00  0.00    -0.278 N 
ATOM      7  H3  UNL     1      90.902  43.730  47.334  1.00  0.00     0.184 HD
BRANCH   3   8
HETATM    8  N1  UNL     1      94.709  41.615  47.367  1.00  0.00    -0.377 N 
ATOM      9  H12 UNL     1      95.398  41.236  46.717  1.00  0.00     0.158 HD
ATOM     10  H11 UNL     1      95.100  41.578  48.308  1.00  0.00     0.158 HD
ENDBRANCH   3   8
ENDBRANCH   1   2
BRANCH   1  11
HETATM   11  C4  UNL     1      92.840  42.653  50.247  1.00  0.00     0.068 C 
BRANCH  11  12
HETATM   12  C5  UNL     1      91.420  42.693  50.705  1.00  0.00     0.378 C 
BRANCH  12  13
HETATM   13  N4  UNL     1      91.101  41.766  51.745  1.00  0.00    -0.051 N 
ATOM     14  H43 UNL     1      91.885  41.675  52.390  1.00  0.00     0.276 HD
ATOM     15  H42 UNL     1      90.402  42.164  52.372  1.00  0.00     0.276 HD
ATOM     16  H41 UNL     1      90.802  40.847  51.419  1.00  0.00     0.276 HD
ENDBRANCH  12  13
BRANCH  12  17
HETATM   17  N5  UNL     1      91.146  44.085  51.083  1.00  0.00    -0.051 N 
ATOM     18  H53 UNL     1      91.195  44.248  52.089  1.00  0.00     0.276 HD
ATOM     19  H52 UNL     1      91.888  44.730  50.815  1.00  0.00     0.276 HD
ATOM     20  H51 UNL     1      90.240  44.320  50.679  1.00  0.00     0.276 HD
ENDBRANCH  12  17
ENDBRANCH  11  12
ENDBRANCH   1  11
TORSDOF 6
ENDMDL
MODEL 5
REMARK VINA RESULT: -4.812448334      2.597      5.488
REMARK  6 active torsions:
REMARK  status: ('A' for Active; 'I' for Inactive)
REMARK    1  A    between atoms: N1_1  and  C1_4 
REMARK    2  A    between atoms: C2_9  and  C3_10 
REMARK    3  A    between atoms: C3_10  and  C4_11 
REMARK    4  A    between atoms: C4_11  and  C5_12 
REMARK    5  A    between atoms: C5_12  and  N4_13 
REMARK    6  A    between atoms: C5_12  and  N5_17 
ROOT
HETATM    1  C3  UNL     1      94.788  40.672  47.174  1.00  0.00     0.066 C 
ENDROOT
BRANCH   1   2
HETATM    2  C2  UNL     1      94.256  41.849  47.879  1.00  0.00     0.076 A 
HETATM    3  C1  UNL     1      94.419  42.190  49.204  1.00  0.00     0.185 A 
HETATM    4  O1  UNL     1      93.776  43.329  49.425  1.00  0.00    -0.204 OA
HETATM    5  N2  UNL     1      93.227  43.707  48.309  1.00  0.00     0.028 NA
HETATM    6  N3  UNL     1      93.502  42.827  47.350  1.00  0.00    -0.278 N 
ATOM      7  H3  UNL     1      93.193  42.885  46.380  1.00  0.00     0.184 HD
BRANCH   3   8
HETATM    8  N1  UNL     1      95.083  41.502  50.052  1.00  0.00    -0.377 N 
ATOM      9  H12 UNL     1      94.968  40.500  50.198  1.00  0.00     0.158 HD
ATOM     10  H11 UNL     1      95.803  41.840  50.691  1.00  0.00     0.158 HD
ENDBRANCH   3   8
ENDBRANCH   1   2
BRANCH   1  11
HETATM   11  C4  UNL     1      95.017  40.892  45.711  1.00  0.00     0.068 C 
BRANCH  11  12
HETATM   12  C5  UNL     1      96.092  40.044  45.117  1.00  0.00     0.378 C 
BRANCH  12  13
HETATM   13  N4  UNL     1      95.850  39.629  43.771  1.00  0.00    -0.051 N 
ATOM     14  H43 UNL     1      95.020  39.037  43.727  1.00  0.00     0.276 HD
ATOM     15  H42 UNL     1      95.532  40.419  43.209  1.00  0.00     0.276 HD
ATOM     16  H41 UNL     1      96.638  39.167  43.319  1.00  0.00     0.276 HD
ENDBRANCH  12  13
BRANCH  12  17
HETATM   17  N5  UNL     1      97.343  40.799  45.261  1.00  0.00    -0.051 N 
ATOM     18  H53 UNL     1      97.327  41.464  46.033  1.00  0.00     0.276 HD
ATOM     19  H52 UNL     1      98.120  40.233  45.598  1.00  0.00     0.276 HD
ATOM     20  H51 UNL     1      97.522  41.234  44.356  1.00  0.00     0.276 HD
ENDBRANCH  12  17
ENDBRANCH  11  12
ENDBRANCH   1  11
TORSDOF 6
ENDMDL
