MODEL 1
REMARK VINA RESULT: -4.814938655      0.000      0.000
REMARK  5 active torsions:
REMARK  status: ('A' for Active; 'I' for Inactive)
REMARK    1  A    between atoms: N1_1  and  S1_4 
REMARK    2  A    between atoms: S1_4  and  C1_5 
REMARK    3  A    between atoms: C2_8  and  C3_9 
REMARK    4  A    between atoms: C3_9  and  N3_10 
REMARK    5  A    between atoms: C3_9  and  N4_14 
ROOT
HETATM    1  C1  UNL     1      93.665  42.404  49.292  1.00  0.00     0.180 A 
HETATM    2  N2  UNL     1      93.576  42.286  47.959  1.00  0.00    -0.320 N 
ATOM      3  H2  UNL     1      92.885  42.720  47.347  1.00  0.00     0.169 HD
HETATM    4  C2  UNL     1      94.581  41.479  47.599  1.00  0.00     0.156 A 
HETATM    5  N5  UNL     1      95.261  41.121  48.692  1.00  0.00    -0.284 N 
ATOM      6  H5  UNL     1      96.078  40.511  48.717  1.00  0.00     0.188 HD
HETATM    7  N6  UNL     1      94.691  41.695  49.733  1.00  0.00    -0.277 N 
ATOM      8  H6  UNL     1      94.989  41.608  50.705  1.00  0.00     0.189 HD
ENDROOT
BRANCH   4   9
HETATM    9  C3  UNL     1      94.854  41.079  46.195  1.00  0.00     0.446 C 
BRANCH   9  10
HETATM   10  N3  UNL     1      94.700  42.215  45.316  1.00  0.00    -0.043 N 
ATOM     11  H33 UNL     1      95.601  42.604  45.034  1.00  0.00     0.277 HD
ATOM     12  H32 UNL     1      94.360  41.940  44.394  1.00  0.00     0.277 HD
ATOM     13  H31 UNL     1      94.101  42.917  45.749  1.00  0.00     0.277 HD
ENDBRANCH   9  10
BRANCH   9  14
HETATM   14  N4  UNL     1      96.154  40.459  46.068  1.00  0.00    -0.043 N 
ATOM     15  H43 UNL     1      96.365  40.225  45.098  1.00  0.00     0.277 HD
ATOM     16  H42 UNL     1      96.906  41.128  46.235  1.00  0.00     0.277 HD
ATOM     17  H41 UNL     1      96.236  39.644  46.676  1.00  0.00     0.277 HD
ENDBRANCH   9  14
ENDBRANCH   4   9
BRANCH   1  18
HETATM   18  S1  UNL     1      92.526  43.396  50.259  1.00  0.00     0.017 SA
BRANCH  18  19
HETATM   19  N1  UNL     1      91.583  42.393  51.355  1.00  0.00    -0.367 N 
ATOM     20  H12 UNL     1      90.829  42.751  51.940  1.00  0.00     0.164 HD
ATOM     21  H11 UNL     1      91.891  41.421  51.321  1.00  0.00     0.164 HD
ENDBRANCH  18  19
ENDBRANCH   1  18
TORSDOF 5
ENDMDL
MODEL 2
REMARK VINA RESULT: -4.705094261      1.912      4.724
REMARK  5 active torsions:
REMARK  status: ('A' for Active; 'I' for Inactive)
REMARK    1  A    between atoms: N1_1  and  S1_4 
REMARK    2  A    between atoms: S1_4  and  C1_5 
REMARK    3  A    between atoms: C2_8  and  C3_9 
REMARK    4  A    between atoms: C3_9  and  N3_10 
REMARK    5  A    between atoms: C3_9  and  N4_14 
ROOT
HETATM    1  C1  UNL     1      94.082  41.980  47.886  1.00  0.00     0.180 A 
HETATM    2  N2  UNL     1      92.930  42.556  48.259  1.00  0.00    -0.320 N 
ATOM      3  H2  UNL     1      92.179  42.881  47.651  1.00  0.00     0.169 HD
HETATM    4  C2  UNL     1      92.973  42.615  49.595  1.00  0.00     0.156 A 
HETATM    5  N5  UNL     1      94.125  42.086  50.015  1.00  0.00    -0.284 N 
ATOM      6  H5  UNL     1      94.425  41.998  50.986  1.00  0.00     0.188 HD
HETATM    7  N6  UNL     1      94.805  41.695  48.957  1.00  0.00    -0.277 N 
ATOM      8  H6  UNL     1      95.724  41.253  48.962  1.00  0.00     0.189 HD
ENDROOT
BRANCH   4   9
HETATM    9  C3  UNL     1      91.884  43.188  50.428  1.00  0.00     0.446 C 
BRANCH   9  10
HETATM   10  N3  UNL     1      91.447  42.221  51.409  1.00  0.00    -0.043 N 
ATOM     11  H33 UNL     1      90.478  41.939  51.260  1.00  0.00     0.277 HD
ATOM     12  H32 UNL     1      91.891  41.313  51.273  1.00  0.00     0.277 HD
ATOM     13  H31 UNL     1      91.598  42.583  52.351  1.00  0.00     0.277 HD
ENDBRANCH   9  10
BRANCH   9  14
HETATM   14  N4  UNL     1      92.288  44.438  51.033  1.00  0.00    -0.043 N 
ATOM     15  H43 UNL     1      93.295  44.584  50.955  1.00  0.00     0.277 HD
ATOM     16  H42 UNL     1      91.971  45.238  50.485  1.00  0.00     0.277 HD
ATOM     17  H41 UNL     1      91.975  44.499  52.001  1.00  0.00     0.277 HD
ENDBRANCH   9  14
ENDBRANCH   4   9
BRANCH   1  18
HETATM   18  S1  UNL     1      94.506  41.674  46.169  1.00  0.00     0.017 SA
BRANCH  18  19
HETATM   19  N1  UNL     1      95.844  40.539  46.038  1.00  0.00    -0.367 N 
ATOM     20  H12 UNL     1      96.451  40.289  46.819  1.00  0.00     0.164 HD
ATOM     21  H11 UNL     1      95.924  40.174  45.089  1.00  0.00     0.164 HD
ENDBRANCH  18  19
ENDBRANCH   1  18
TORSDOF 5
ENDMDL
MODEL 3
REMARK VINA RESULT: -4.620124991      2.170      4.797
REMARK  5 active torsions:
REMARK  status: ('A' for Active; 'I' for Inactive)
REMARK    1  A    between atoms: N1_1  and  S1_4 
REMARK    2  A    between atoms: S1_4  and  C1_5 
REMARK    3  A    between atoms: C2_8  and  C3_9 
REMARK    4  A    between atoms: C3_9  and  N3_10 
REMARK    5  A    between atoms: C3_9  and  N4_14 
ROOT
HETATM    1  C1  UNL     1      93.449  42.286  47.038  1.00  0.00     0.180 A 
HETATM    2  N2  UNL     1      93.831  42.385  48.320  1.00  0.00    -0.320 N 
ATOM      3  H2  UNL     1      94.758  42.202  48.702  1.00  0.00     0.169 HD
HETATM    4  C2  UNL     1      92.741  42.773  48.992  1.00  0.00     0.156 A 
HETATM    5  N5  UNL     1      91.727  42.905  48.133  1.00  0.00    -0.284 N 
ATOM      6  H5  UNL     1      90.776  43.190  48.368  1.00  0.00     0.188 HD
HETATM    7  N6  UNL     1      92.169  42.604  46.930  1.00  0.00    -0.277 N 
ATOM      8  H6  UNL     1      91.623  42.614  46.068  1.00  0.00     0.189 HD
ENDROOT
BRANCH   4   9
HETATM    9  C3  UNL     1      92.719  43.006  50.459  1.00  0.00     0.446 C 
BRANCH   9  10
HETATM   10  N3  UNL     1      92.561  44.415  50.737  1.00  0.00    -0.043 N 
ATOM     11  H33 UNL     1      91.872  44.850  50.123  1.00  0.00     0.277 HD
ATOM     12  H32 UNL     1      92.091  44.577  51.628  1.00  0.00     0.277 HD
ATOM     13  H31 UNL     1      93.464  44.886  50.691  1.00  0.00     0.277 HD
ENDBRANCH   9  10
BRANCH   9  14
HETATM   14  N4  UNL     1      91.704  42.202  51.103  1.00  0.00    -0.043 N 
ATOM     15  H43 UNL     1      90.880  42.094  50.511  1.00  0.00     0.277 HD
ATOM     16  H42 UNL     1      91.983  41.223  51.163  1.00  0.00     0.277 HD
ATOM     17  H41 UNL     1      91.459  42.579  52.019  1.00  0.00     0.277 HD
ENDBRANCH   9  14
ENDBRANCH   4   9
BRANCH   1  18
HETATM   18  S1  UNL     1      94.567  41.791  45.725  1.00  0.00     0.017 SA
BRANCH  18  19
HETATM   19  N1  UNL     1      95.634  40.496  46.255  1.00  0.00    -0.367 N 
ATOM     20  H12 UNL     1      95.365  39.512  46.267  1.00  0.00     0.164 HD
ATOM     21  H11 UNL     1      96.543  40.862  46.540  1.00  0.00     0.164 HD
ENDBRANCH  18  19
ENDBRANCH   1  18
TORSDOF 5
ENDMDL
MODEL 4
REMARK VINA RESULT: -4.511672168      1.123      1.844
REMARK  5 active torsions:
REMARK  status: ('A' for Active; 'I' for Inactive)
REMARK    1  A    between atoms: N1_1  and  S1_4 
REMARK    2  A    between atoms: S1_4  and  C1_5 
REMARK    3  A    between atoms: C2_8  and  C3_9 
REMARK    4  A    between atoms: C3_9  and  N3_10 
REMARK    5  A    between atoms: C3_9  and  N4_14 
ROOT
HETATM    1  C1  UNL     1      92.780  42.865  48.583  1.00  0.00     0.180 A 
HETATM    2  N2  UNL     1      93.899  42.335  48.068  1.00  0.00    -0.320 N 
ATOM      3  H2  UNL     1      94.772  42.144  48.558  1.00  0.00     0.169 HD
HETATM    4  C2  UNL     1      93.630  42.109  46.776  1.00  0.00     0.156 A 
HETATM    5  N5  UNL     1      92.377  42.494  46.522  1.00  0.00    -0.284 N 
ATOM      6  H5  UNL     1      91.904  42.437  45.619  1.00  0.00     0.188 HD
HETATM    7  N6  UNL     1      91.857  42.959  47.639  1.00  0.00    -0.277 N 
ATOM      8  H6  UNL     1      90.912  43.326  47.756  1.00  0.00     0.189 HD
ENDROOT
BRANCH   4   9
HETATM    9  C3  UNL     1      94.606  41.520  45.824  1.00  0.00     0.446 C 
BRANCH   9  10
HETATM   10  N3  UNL     1      95.186  42.557  45.002  1.00  0.00    -0.043 N 
ATOM     11  H33 UNL     1      94.629  43.412  45.016  1.00  0.00     0.277 HD
ATOM     12  H32 UNL     1      96.045  42.929  45.407  1.00  0.00     0.277 HD
ATOM     13  H31 UNL     1      95.330  42.213  44.052  1.00  0.00     0.277 HD
ENDBRANCH   9  10
BRANCH   9  14
HETATM   14  N4  UNL     1      95.610  40.742  46.515  1.00  0.00    -0.043 N 
ATOM     15  H43 UNL     1      95.631  40.959  47.512  1.00  0.00     0.277 HD
ATOM     16  H42 UNL     1      95.347  39.759  46.574  1.00  0.00     0.277 HD
ATOM     17  H41 UNL     1      96.529  40.860  46.088  1.00  0.00     0.277 HD
ENDBRANCH   9  14
ENDBRANCH   4   9
BRANCH   1  18
HETATM   18  S1  UNL     1      92.635  43.347  50.305  1.00  0.00     0.017 SA
BRANCH  18  19
HETATM   19  N1  UNL     1      91.632  42.211  51.200  1.00  0.00    -0.367 N 
ATOM     20  H12 UNL     1      91.798  41.205  51.219  1.00  0.00     0.164 HD
ATOM     21  H11 UNL     1      90.877  42.693  51.687  1.00  0.00     0.164 HD
ENDBRANCH  18  19
ENDBRANCH   1  18
TORSDOF 5
ENDMDL
MODEL 5
REMARK VINA RESULT: -4.511333750      2.602      4.715
REMARK  5 active torsions:
REMARK  status: ('A' for Active; 'I' for Inactive)
REMARK    1  A    between atoms: N1_1  and  S1_4 
REMARK    2  A    between atoms: S1_4  and  C1_5 
REMARK    3  A    between atoms: C2_8  and  C3_9 
REMARK    4  A    between atoms: C3_9  and  N3_10 
REMARK    5  A    between atoms: C3_9  and  N4_14 
ROOT
HETATM    1  C1  UNL     1      94.877  41.483  45.595  1.00  0.00     0.180 A 
HETATM    2  N2  UNL     1      94.153  42.244  46.430  1.00  0.00    -0.320 N 
ATOM      3  H2  UNL     1      93.605  43.069  46.192  1.00  0.00     0.169 HD
HETATM    4  C2  UNL     1      94.302  41.692  47.640  1.00  0.00     0.156 A 
HETATM    5  N5  UNL     1      95.095  40.623  47.534  1.00  0.00    -0.284 N 
ATOM      6  H5  UNL     1      95.379  40.010  48.298  1.00  0.00     0.188 HD
HETATM    7  N6  UNL     1      95.447  40.499  46.270  1.00  0.00    -0.277 N 
ATOM      8  H6  UNL     1      96.051  39.774  45.883  1.00  0.00     0.189 HD
ENDROOT
BRANCH   4   9
HETATM    9  C3  UNL     1      93.661  42.223  48.871  1.00  0.00     0.446 C 
BRANCH   9  10
HETATM   10  N3  UNL     1      94.540  42.050  50.004  1.00  0.00    -0.043 N 
ATOM     11  H33 UNL     1      94.321  41.204  50.530  1.00  0.00     0.277 HD
ATOM     12  H32 UNL     1      95.488  41.808  49.717  1.00  0.00     0.277 HD
ATOM     13  H31 UNL     1      94.521  42.881  50.594  1.00  0.00     0.277 HD
ENDBRANCH   9  10
BRANCH   9  14
HETATM   14  N4  UNL     1      93.255  43.601  48.697  1.00  0.00    -0.043 N 
ATOM     15  H43 UNL     1      92.848  43.981  49.552  1.00  0.00     0.277 HD
ATOM     16  H42 UNL     1      94.060  44.221  48.616  1.00  0.00     0.277 HD
ATOM     17  H41 UNL     1      92.622  43.702  47.904  1.00  0.00     0.277 HD
ENDBRANCH   9  14
ENDBRANCH   4   9
BRANCH   1  18
HETATM   18  S1  UNL     1      95.000  41.816  43.836  1.00  0.00     0.017 SA
BRANCH  18  19
HETATM   19  N1  UNL     1      95.940  43.272  43.530  1.00  0.00    -0.367 N 
ATOM     20  H12 UNL     1      95.533  44.149  43.204  1.00  0.00     0.164 HD
ATOM     21  H11 UNL     1      96.930  43.118  43.723  1.00  0.00     0.164 HD
ENDBRANCH  18  19
ENDBRANCH   1  18
TORSDOF 5
ENDMDL
