MODEL 1
REMARK VINA RESULT: -7.472657883      0.000      0.000
REMARK  12 active torsions:
REMARK  status: ('A' for Active; 'I' for Inactive)
REMARK    1  A    between atoms: C2_2  and  C4_4 
REMARK       I    between atoms: C4_4  and  N1_6 
REMARK    2  A    between atoms: N1_6  and  C5_8 
REMARK    3  A    between atoms: C5_8  and  C6_9 
REMARK    4  A    between atoms: C6_9  and  N2_10 
REMARK    5  A    between atoms: C8_13  and  O3_15 
REMARK    6  A    between atoms: C10_17  and  C11_18 
REMARK    7  A    between atoms: C14_21  and  O4_22 
REMARK    8  A    between atoms: N5_34  and  C23_35 
REMARK    9  A    between atoms: C23_35  and  C24_36 
REMARK   10  A    between atoms: C24_36  and  N6_37 
REMARK   11  A    between atoms: N6_37  and  C25_38 
REMARK   12  A    between atoms: N6_37  and  C27_40 
ROOT
HETATM    1  N2  UNL     1      20.030  24.499  19.815  1.00  0.00    -0.307 N 
HETATM    2  C7  UNL     1      19.571  23.233  20.301  1.00  0.00     0.261 C 
HETATM    3  O2  UNL     1      20.200  22.878  21.358  1.00  0.00    -0.269 OA
HETATM    4  C8  UNL     1      18.561  22.216  19.913  1.00  0.00     0.159 C 
HETATM    5  C9  UNL     1      19.354  21.006  19.553  1.00  0.00     0.059 C 
HETATM    6  C10 UNL     1      17.604  22.731  18.912  1.00  0.00     0.162 C 
HETATM    7  N4  UNL     1      18.269  23.061  17.639  1.00  0.00    -0.370 N 
HETATM    8  C17 UNL     1      18.227  22.232  16.506  1.00  0.00     0.150 C 
HETATM    9  C18 UNL     1      19.081  24.210  17.438  1.00  0.00     0.071 A 
HETATM   10  C19 UNL     1      19.011  24.638  16.140  1.00  0.00    -0.011 A 
HETATM   11  C20 UNL     1      18.128  24.019  15.196  1.00  0.00     0.052 C 
HETATM   12  C21 UNL     1      19.838  25.750  15.860  1.00  0.00     0.019 A 
HETATM   13  C22 UNL     1      19.790  26.236  14.476  1.00  0.00     0.069 C 
HETATM   14  N5  UNL     1      20.620  26.342  16.769  1.00  0.00    -0.315 N 
HETATM   15  C29 UNL     1      20.658  25.884  18.060  1.00  0.00     0.277 A 
HETATM   16  O5  UNL     1      21.386  26.438  18.900  1.00  0.00    -0.265 OA
HETATM   17  C30 UNL     1      19.907  24.833  18.415  1.00  0.00     0.133 A 
ENDROOT
BRANCH   1  18
HETATM   18  C6  UNL     1      20.587  25.453  20.703  1.00  0.00     0.152 C 
BRANCH  18  19
HETATM   19  C5  UNL     1      21.756  24.984  21.536  1.00  0.00     0.143 C 
BRANCH  19  20
HETATM   20  N1  UNL     1      22.834  24.421  20.782  1.00  0.00    -0.356 N 
HETATM   21  C4  UNL     1      24.204  24.639  21.063  1.00  0.00     0.246 C 
HETATM   22  O1  UNL     1      24.470  25.382  22.043  1.00  0.00    -0.268 OA
ATOM     23  H1  UNL     1      22.599  23.822  19.990  1.00  0.00     0.162 HD
BRANCH  21  24
HETATM   24  C2  UNL     1      25.271  24.048  20.272  1.00  0.00    -0.004 C 
HETATM   25  C1  UNL     1      25.016  23.053  19.469  1.00  0.00     0.024 C 
HETATM   26  C3  UNL     1      26.657  24.580  20.378  1.00  0.00     0.053 C 
ENDBRANCH  21  24
ENDBRANCH  19  20
ENDBRANCH  18  19
ENDBRANCH   1  18
BRANCH   4  27
HETATM   27  O3  UNL     1      17.817  22.014  21.107  1.00  0.00    -0.378 OA
ATOM     28  H3  UNL     1      18.210  21.237  21.486  1.00  0.00     0.211 HD
ENDBRANCH   4  27
BRANCH   6  29
HETATM   29  C11 UNL     1      16.365  22.038  18.665  1.00  0.00    -0.016 A 
HETATM   30  C12 UNL     1      16.091  20.711  18.738  1.00  0.00     0.015 A 
HETATM   31  C13 UNL     1      14.846  20.171  18.497  1.00  0.00     0.057 A 
HETATM   32  C14 UNL     1      13.826  21.033  18.161  1.00  0.00     0.141 A 
HETATM   33  N3  UNL     1      14.074  22.329  18.084  1.00  0.00    -0.346 N 
HETATM   34  C16 UNL     1      15.267  22.843  18.317  1.00  0.00     0.099 A 
ATOM     35  H3  UNL     1      13.311  22.959  17.835  1.00  0.00     0.167 HD
BRANCH  32  36
HETATM   36  O4  UNL     1      12.549  20.504  17.910  1.00  0.00    -0.341 OA
HETATM   37  C15 UNL     1      12.251  19.248  18.481  1.00  0.00     0.211 C 
ENDBRANCH  32  36
ENDBRANCH   6  29
BRANCH  14  38
HETATM   38  C23 UNL     1      21.469  27.478  16.479  1.00  0.00     0.151 C 
BRANCH  38  39
HETATM   39  C24 UNL     1      22.776  27.055  15.847  1.00  0.00     0.137 C 
BRANCH  39  40
HETATM   40  N6  UNL     1      23.922  27.502  16.539  1.00  0.00    -0.412 N 
BRANCH  40  41
HETATM   41  C25 UNL     1      24.469  26.585  17.497  1.00  0.00     0.112 C 
HETATM   42  C26 UNL     1      25.658  25.831  16.990  1.00  0.00     0.026 C 
ENDBRANCH  40  41
BRANCH  40  43
HETATM   43  C27 UNL     1      24.886  28.203  15.768  1.00  0.00     0.112 C 
HETATM   44  C28 UNL     1      25.304  29.457  16.526  1.00  0.00     0.026 C 
ENDBRANCH  40  43
ENDBRANCH  39  40
ENDBRANCH  38  39
ENDBRANCH  14  38
TORSDOF 12
ENDMDL
MODEL 2
REMARK VINA RESULT: -7.394888066      1.443      1.891
REMARK  12 active torsions:
REMARK  status: ('A' for Active; 'I' for Inactive)
REMARK    1  A    between atoms: C2_2  and  C4_4 
REMARK       I    between atoms: C4_4  and  N1_6 
REMARK    2  A    between atoms: N1_6  and  C5_8 
REMARK    3  A    between atoms: C5_8  and  C6_9 
REMARK    4  A    between atoms: C6_9  and  N2_10 
REMARK    5  A    between atoms: C8_13  and  O3_15 
REMARK    6  A    between atoms: C10_17  and  C11_18 
REMARK    7  A    between atoms: C14_21  and  O4_22 
REMARK    8  A    between atoms: N5_34  and  C23_35 
REMARK    9  A    between atoms: C23_35  and  C24_36 
REMARK   10  A    between atoms: C24_36  and  N6_37 
REMARK   11  A    between atoms: N6_37  and  C25_38 
REMARK   12  A    between atoms: N6_37  and  C27_40 
ROOT
HETATM    1  N2  UNL     1      20.118  24.679  19.683  1.00  0.00    -0.307 N 
HETATM    2  C7  UNL     1      19.298  23.530  19.922  1.00  0.00     0.261 C 
HETATM    3  O2  UNL     1      19.548  23.001  21.061  1.00  0.00    -0.269 OA
HETATM    4  C8  UNL     1      18.231  22.783  19.209  1.00  0.00     0.159 C 
HETATM    5  C9  UNL     1      18.819  21.441  18.936  1.00  0.00     0.059 C 
HETATM    6  C10 UNL     1      17.688  23.541  18.061  1.00  0.00     0.162 C 
HETATM    7  N4  UNL     1      18.710  23.762  17.022  1.00  0.00    -0.370 N 
HETATM    8  C17 UNL     1      18.786  23.011  15.839  1.00  0.00     0.150 C 
HETATM    9  C18 UNL     1      19.766  24.706  17.131  1.00  0.00     0.071 A 
HETATM   10  C19 UNL     1      20.119  25.191  15.901  1.00  0.00    -0.011 A 
HETATM   11  C20 UNL     1      19.397  24.825  14.719  1.00  0.00     0.052 C 
HETATM   12  C21 UNL     1      21.203  26.098  15.934  1.00  0.00     0.019 A 
HETATM   13  C22 UNL     1      21.611  26.638  14.632  1.00  0.00     0.069 C 
HETATM   14  N5  UNL     1      21.833  26.462  17.056  1.00  0.00    -0.315 N 
HETATM   15  C29 UNL     1      21.445  25.956  18.270  1.00  0.00     0.277 A 
HETATM   16  O5  UNL     1      22.035  26.298  19.308  1.00  0.00    -0.265 OA
HETATM   17  C30 UNL     1      20.427  25.088  18.332  1.00  0.00     0.133 A 
ENDROOT
BRANCH   1  18
HETATM   18  C6  UNL     1      20.616  25.446  20.765  1.00  0.00     0.152 C 
BRANCH  18  19
HETATM   19  C5  UNL     1      21.614  24.759  21.665  1.00  0.00     0.143 C 
BRANCH  19  20
HETATM   20  N1  UNL     1      22.707  24.143  20.978  1.00  0.00    -0.356 N 
HETATM   21  C4  UNL     1      24.069  24.466  21.192  1.00  0.00     0.246 C 
HETATM   22  O1  UNL     1      24.312  25.358  22.046  1.00  0.00    -0.268 OA
ATOM     23  H1  UNL     1      22.491  23.423  20.288  1.00  0.00     0.162 HD
BRANCH  21  24
HETATM   24  C2  UNL     1      25.152  23.816  20.472  1.00  0.00    -0.004 C 
HETATM   25  C1  UNL     1      24.888  23.003  19.487  1.00  0.00     0.024 C 
HETATM   26  C3  UNL     1      26.565  24.079  20.859  1.00  0.00     0.053 C 
ENDBRANCH  21  24
ENDBRANCH  19  20
ENDBRANCH  18  19
ENDBRANCH   1  18
BRANCH   4  27
HETATM   27  O3  UNL     1      17.182  22.706  20.165  1.00  0.00    -0.378 OA
ATOM     28  H3  UNL     1      16.634  22.003  19.838  1.00  0.00     0.211 HD
ENDBRANCH   4  27
BRANCH   6  29
HETATM   29  C11 UNL     1      16.437  23.155  17.460  1.00  0.00    -0.016 A 
HETATM   30  C12 UNL     1      15.633  22.098  17.745  1.00  0.00     0.015 A 
HETATM   31  C13 UNL     1      14.439  21.850  17.106  1.00  0.00     0.057 A 
HETATM   32  C14 UNL     1      14.042  22.727  16.120  1.00  0.00     0.141 A 
HETATM   33  N3  UNL     1      14.813  23.761  15.828  1.00  0.00    -0.346 N 
HETATM   34  C16 UNL     1      15.957  23.997  16.444  1.00  0.00     0.099 A 
ATOM     35  H3  UNL     1      14.511  24.404  15.096  1.00  0.00     0.167 HD
BRANCH  32  36
HETATM   36  O4  UNL     1      12.828  22.493  15.454  1.00  0.00    -0.341 OA
HETATM   37  C15 UNL     1      12.872  22.432  14.044  1.00  0.00     0.211 C 
ENDBRANCH  32  36
ENDBRANCH   6  29
BRANCH  14  38
HETATM   38  C23 UNL     1      22.945  27.389  17.088  1.00  0.00     0.151 C 
BRANCH  38  39
HETATM   39  C24 UNL     1      24.275  26.670  17.066  1.00  0.00     0.137 C 
BRANCH  39  40
HETATM   40  N6  UNL     1      25.153  27.113  16.054  1.00  0.00    -0.412 N 
BRANCH  40  41
HETATM   41  C25 UNL     1      25.306  28.535  15.941  1.00  0.00     0.112 C 
HETATM   42  C26 UNL     1      26.424  28.945  15.033  1.00  0.00     0.026 C 
ENDBRANCH  40  41
BRANCH  40  43
HETATM   43  C27 UNL     1      26.353  26.371  15.896  1.00  0.00     0.112 C 
HETATM   44  C28 UNL     1      26.531  25.462  17.106  1.00  0.00     0.026 C 
ENDBRANCH  40  43
ENDBRANCH  39  40
ENDBRANCH  38  39
ENDBRANCH  14  38
TORSDOF 12
ENDMDL
MODEL 3
REMARK VINA RESULT: -7.187973491      1.780      2.058
REMARK  12 active torsions:
REMARK  status: ('A' for Active; 'I' for Inactive)
REMARK    1  A    between atoms: C2_2  and  C4_4 
REMARK       I    between atoms: C4_4  and  N1_6 
REMARK    2  A    between atoms: N1_6  and  C5_8 
REMARK    3  A    between atoms: C5_8  and  C6_9 
REMARK    4  A    between atoms: C6_9  and  N2_10 
REMARK    5  A    between atoms: C8_13  and  O3_15 
REMARK    6  A    between atoms: C10_17  and  C11_18 
REMARK    7  A    between atoms: C14_21  and  O4_22 
REMARK    8  A    between atoms: N5_34  and  C23_35 
REMARK    9  A    between atoms: C23_35  and  C24_36 
REMARK   10  A    between atoms: C24_36  and  N6_37 
REMARK   11  A    between atoms: N6_37  and  C25_38 
REMARK   12  A    between atoms: N6_37  and  C27_40 
ROOT
HETATM    1  N2  UNL     1      19.382  24.115  18.624  1.00  0.00    -0.307 N 
HETATM    2  C7  UNL     1      18.750  22.840  18.459  1.00  0.00     0.261 C 
HETATM    3  O2  UNL     1      19.194  21.982  19.299  1.00  0.00    -0.269 OA
HETATM    4  C8  UNL     1      17.716  22.241  17.577  1.00  0.00     0.159 C 
HETATM    5  C9  UNL     1      18.440  21.205  16.788  1.00  0.00     0.059 C 
HETATM    6  C10 UNL     1      16.955  23.265  16.831  1.00  0.00     0.162 C 
HETATM    7  N4  UNL     1      17.816  24.012  15.896  1.00  0.00    -0.370 N 
HETATM    8  C17 UNL     1      17.856  23.764  14.515  1.00  0.00     0.150 C 
HETATM    9  C18 UNL     1      18.745  25.009  16.294  1.00  0.00     0.071 A 
HETATM   10  C19 UNL     1      18.893  25.958  15.318  1.00  0.00    -0.011 A 
HETATM   11  C20 UNL     1      18.096  25.934  14.128  1.00  0.00     0.052 C 
HETATM   12  C21 UNL     1      19.846  26.955  15.630  1.00  0.00     0.019 A 
HETATM   13  C22 UNL     1      20.032  27.989  14.606  1.00  0.00     0.069 C 
HETATM   14  N5  UNL     1      20.545  26.984  16.770  1.00  0.00    -0.315 N 
HETATM   15  C29 UNL     1      20.365  26.015  17.723  1.00  0.00     0.277 A 
HETATM   16  O5  UNL     1      21.017  26.048  18.779  1.00  0.00    -0.265 OA
HETATM   17  C30 UNL     1      19.482  25.031  17.511  1.00  0.00     0.133 A 
ENDROOT
BRANCH   1  18
HETATM   18  C6  UNL     1      19.894  24.507  19.886  1.00  0.00     0.152 C 
BRANCH  18  19
HETATM   19  C5  UNL     1      20.771  23.500  20.590  1.00  0.00     0.143 C 
BRANCH  19  20
HETATM   20  N1  UNL     1      22.129  23.479  20.141  1.00  0.00    -0.356 N 
HETATM   21  C4  UNL     1      23.177  24.227  20.730  1.00  0.00     0.246 C 
HETATM   22  O1  UNL     1      22.873  24.953  21.711  1.00  0.00    -0.268 OA
ATOM     23  H1  UNL     1      22.358  22.885  19.343  1.00  0.00     0.162 HD
BRANCH  21  24
HETATM   24  C2  UNL     1      24.546  24.178  20.243  1.00  0.00    -0.004 C 
HETATM   25  C1  UNL     1      24.929  23.205  19.462  1.00  0.00     0.024 C 
HETATM   26  C3  UNL     1      25.513  25.239  20.634  1.00  0.00     0.053 C 
ENDBRANCH  21  24
ENDBRANCH  19  20
ENDBRANCH  18  19
ENDBRANCH   1  18
BRANCH   4  27
HETATM   27  O3  UNL     1      16.800  21.653  18.491  1.00  0.00    -0.378 OA
ATOM     28  H3  UNL     1      15.961  21.750  18.058  1.00  0.00     0.211 HD
ENDBRANCH   4  27
BRANCH   6  29
HETATM   29  C11 UNL     1      15.705  22.926  16.200  1.00  0.00    -0.016 A 
HETATM   30  C12 UNL     1      15.445  21.990  15.250  1.00  0.00     0.015 A 
HETATM   31  C13 UNL     1      14.189  21.746  14.739  1.00  0.00     0.057 A 
HETATM   32  C14 UNL     1      13.141  22.498  15.222  1.00  0.00     0.141 A 
HETATM   33  N3  UNL     1      13.375  23.415  16.146  1.00  0.00    -0.346 N 
HETATM   34  C16 UNL     1      14.580  23.645  16.634  1.00  0.00     0.099 A 
ATOM     35  H3  UNL     1      12.592  23.966  16.496  1.00  0.00     0.167 HD
BRANCH  32  36
HETATM   36  O4  UNL     1      11.852  22.267  14.714  1.00  0.00    -0.341 OA
HETATM   37  C15 UNL     1      11.375  20.939  14.755  1.00  0.00     0.211 C 
ENDBRANCH  32  36
ENDBRANCH   6  29
BRANCH  14  38
HETATM   38  C23 UNL     1      21.523  28.003  17.086  1.00  0.00     0.151 C 
BRANCH  38  39
HETATM   39  C24 UNL     1      22.690  27.977  16.124  1.00  0.00     0.137 C 
BRANCH  39  40
HETATM   40  N6  UNL     1      23.949  27.854  16.750  1.00  0.00    -0.412 N 
BRANCH  40  41
HETATM   41  C25 UNL     1      24.203  26.600  17.400  1.00  0.00     0.112 C 
HETATM   42  C26 UNL     1      25.479  25.950  16.966  1.00  0.00     0.026 C 
ENDBRANCH  40  41
BRANCH  40  43
HETATM   43  C27 UNL     1      25.056  28.392  16.042  1.00  0.00     0.112 C 
HETATM   44  C28 UNL     1      25.370  29.776  16.598  1.00  0.00     0.026 C 
ENDBRANCH  40  43
ENDBRANCH  39  40
ENDBRANCH  38  39
ENDBRANCH  14  38
TORSDOF 12
ENDMDL
MODEL 4
REMARK VINA RESULT: -7.020352800      2.006      2.853
REMARK  12 active torsions:
REMARK  status: ('A' for Active; 'I' for Inactive)
REMARK    1  A    between atoms: C2_2  and  C4_4 
REMARK       I    between atoms: C4_4  and  N1_6 
REMARK    2  A    between atoms: N1_6  and  C5_8 
REMARK    3  A    between atoms: C5_8  and  C6_9 
REMARK    4  A    between atoms: C6_9  and  N2_10 
REMARK    5  A    between atoms: C8_13  and  O3_15 
REMARK    6  A    between atoms: C10_17  and  C11_18 
REMARK    7  A    between atoms: C14_21  and  O4_22 
REMARK    8  A    between atoms: N5_34  and  C23_35 
REMARK    9  A    between atoms: C23_35  and  C24_36 
REMARK   10  A    between atoms: C24_36  and  N6_37 
REMARK   11  A    between atoms: N6_37  and  C25_38 
REMARK   12  A    between atoms: N6_37  and  C27_40 
ROOT
HETATM    1  N2  UNL     1      17.782  23.340  19.040  1.00  0.00    -0.307 N 
HETATM    2  C7  UNL     1      17.173  22.044  19.051  1.00  0.00     0.261 C 
HETATM    3  O2  UNL     1      17.534  21.362  20.074  1.00  0.00    -0.269 OA
HETATM    4  C8  UNL     1      16.234  21.272  18.198  1.00  0.00     0.159 C 
HETATM    5  C9  UNL     1      17.036  20.125  17.687  1.00  0.00     0.059 C 
HETATM    6  C10 UNL     1      15.548  22.126  17.206  1.00  0.00     0.162 C 
HETATM    7  N4  UNL     1      16.495  22.708  16.239  1.00  0.00    -0.370 N 
HETATM    8  C17 UNL     1      16.673  22.214  14.937  1.00  0.00     0.150 C 
HETATM    9  C18 UNL     1      17.378  23.781  16.535  1.00  0.00     0.071 A 
HETATM   10  C19 UNL     1      17.619  24.539  15.421  1.00  0.00    -0.011 A 
HETATM   11  C20 UNL     1      16.945  24.281  14.183  1.00  0.00     0.052 C 
HETATM   12  C21 UNL     1      18.534  25.596  15.636  1.00  0.00     0.019 A 
HETATM   13  C22 UNL     1      18.817  26.430  14.462  1.00  0.00     0.069 C 
HETATM   14  N5  UNL     1      19.115  25.846  16.814  1.00  0.00    -0.315 N 
HETATM   15  C29 UNL     1      18.844  25.065  17.906  1.00  0.00     0.277 A 
HETATM   16  O5  UNL     1      19.388  25.303  18.997  1.00  0.00    -0.265 OA
HETATM   17  C30 UNL     1      17.989  24.040  17.794  1.00  0.00     0.133 A 
ENDROOT
BRANCH   1  18
HETATM   18  C6  UNL     1      18.164  23.966  20.253  1.00  0.00     0.152 C 
BRANCH  18  19
HETATM   19  C5  UNL     1      19.149  23.210  21.111  1.00  0.00     0.143 C 
BRANCH  19  20
HETATM   20  N1  UNL     1      20.515  23.340  20.703  1.00  0.00    -0.356 N 
HETATM   21  C4  UNL     1      21.369  24.397  21.099  1.00  0.00     0.246 C 
HETATM   22  O1  UNL     1      20.876  25.270  21.858  1.00  0.00    -0.268 OA
ATOM     23  H1  UNL     1      20.897  22.623  20.086  1.00  0.00     0.162 HD
BRANCH  21  24
HETATM   24  C2  UNL     1      22.752  24.493  20.662  1.00  0.00    -0.004 C 
HETATM   25  C1  UNL     1      23.028  24.765  19.416  1.00  0.00     0.024 C 
HETATM   26  C3  UNL     1      23.857  24.282  21.636  1.00  0.00     0.053 C 
ENDBRANCH  21  24
ENDBRANCH  19  20
ENDBRANCH  18  19
ENDBRANCH   1  18
BRANCH   4  27
HETATM   27  O3  UNL     1      15.233  20.841  19.111  1.00  0.00    -0.378 OA
ATOM     28  H3  UNL     1      15.587  20.033  19.464  1.00  0.00     0.211 HD
ENDBRANCH   4  27
BRANCH   6  29
HETATM   29  C11 UNL     1      14.369  21.651  16.529  1.00  0.00    -0.016 A 
HETATM   30  C12 UNL     1      13.510  22.323  15.719  1.00  0.00     0.015 A 
HETATM   31  C13 UNL     1      12.421  21.742  15.108  1.00  0.00     0.057 A 
HETATM   32  C14 UNL     1      12.193  20.403  15.336  1.00  0.00     0.141 A 
HETATM   33  N3  UNL     1      13.018  19.732  16.122  1.00  0.00    -0.346 N 
HETATM   34  C16 UNL     1      14.062  20.291  16.705  1.00  0.00     0.099 A 
ATOM     35  H3  UNL     1      12.841  18.741  16.284  1.00  0.00     0.167 HD
BRANCH  32  36
HETATM   36  O4  UNL     1      11.087  19.791  14.724  1.00  0.00    -0.341 OA
HETATM   37  C15 UNL     1      11.358  18.794  13.761  1.00  0.00     0.211 C 
ENDBRANCH  32  36
ENDBRANCH   6  29
BRANCH  14  38
HETATM   38  C23 UNL     1      20.054  26.927  17.031  1.00  0.00     0.151 C 
BRANCH  38  39
HETATM   39  C24 UNL     1      21.484  26.434  17.041  1.00  0.00     0.137 C 
BRANCH  39  40
HETATM   40  N6  UNL     1      22.382  27.256  16.329  1.00  0.00    -0.412 N 
BRANCH  40  41
HETATM   41  C25 UNL     1      23.491  26.583  15.716  1.00  0.00     0.112 C 
HETATM   42  C26 UNL     1      24.797  26.837  16.402  1.00  0.00     0.026 C 
ENDBRANCH  40  41
BRANCH  40  43
HETATM   43  C27 UNL     1      21.801  28.284  15.541  1.00  0.00     0.112 C 
HETATM   44  C28 UNL     1      21.849  27.867  14.076  1.00  0.00     0.026 C 
ENDBRANCH  40  43
ENDBRANCH  39  40
ENDBRANCH  38  39
ENDBRANCH  14  38
TORSDOF 12
ENDMDL
MODEL 5
REMARK VINA RESULT: -6.744672997      4.433     12.437
REMARK  12 active torsions:
REMARK  status: ('A' for Active; 'I' for Inactive)
REMARK    1  A    between atoms: C2_2  and  C4_4 
REMARK       I    between atoms: C4_4  and  N1_6 
REMARK    2  A    between atoms: N1_6  and  C5_8 
REMARK    3  A    between atoms: C5_8  and  C6_9 
REMARK    4  A    between atoms: C6_9  and  N2_10 
REMARK    5  A    between atoms: C8_13  and  O3_15 
REMARK    6  A    between atoms: C10_17  and  C11_18 
REMARK    7  A    between atoms: C14_21  and  O4_22 
REMARK    8  A    between atoms: N5_34  and  C23_35 
REMARK    9  A    between atoms: C23_35  and  C24_36 
REMARK   10  A    between atoms: C24_36  and  N6_37 
REMARK   11  A    between atoms: N6_37  and  C25_38 
REMARK   12  A    between atoms: N6_37  and  C27_40 
ROOT
HETATM    1  N2  UNL     1      12.610  20.569  16.054  1.00  0.00    -0.307 N 
HETATM    2  C7  UNL     1      13.803  21.272  15.685  1.00  0.00     0.261 C 
HETATM    3  O2  UNL     1      13.808  21.571  14.441  1.00  0.00    -0.269 OA
HETATM    4  C8  UNL     1      15.038  21.751  16.356  1.00  0.00     0.159 C 
HETATM    5  C9  UNL     1      16.141  20.967  15.732  1.00  0.00     0.059 C 
HETATM    6  C10 UNL     1      14.922  21.722  17.829  1.00  0.00     0.162 C 
HETATM    7  N4  UNL     1      14.765  20.347  18.337  1.00  0.00    -0.370 N 
HETATM    8  C17 UNL     1      15.812  19.609  18.911  1.00  0.00     0.150 C 
HETATM    9  C18 UNL     1      13.564  19.595  18.239  1.00  0.00     0.071 A 
HETATM   10  C19 UNL     1      13.443  18.725  19.290  1.00  0.00    -0.011 A 
HETATM   11  C20 UNL     1      14.393  18.714  20.362  1.00  0.00     0.052 C 
HETATM   12  C21 UNL     1      12.292  17.907  19.225  1.00  0.00     0.019 A 
HETATM   13  C22 UNL     1      12.130  16.960  20.335  1.00  0.00     0.069 C 
HETATM   14  N5  UNL     1      11.393  17.967  18.237  1.00  0.00    -0.315 N 
HETATM   15  C29 UNL     1      11.549  18.855  17.204  1.00  0.00     0.277 A 
HETATM   16  O5  UNL     1      10.709  18.905  16.290  1.00  0.00    -0.265 OA
HETATM   17  C30 UNL     1      12.612  19.669  17.184  1.00  0.00     0.133 A 
ENDROOT
BRANCH   1  18
HETATM   18  C6  UNL     1      11.407  20.765  15.331  1.00  0.00     0.152 C 
BRANCH  18  19
HETATM   19  C5  UNL     1      11.410  20.305  13.894  1.00  0.00     0.143 C 
BRANCH  19  20
HETATM   20  N1  UNL     1      11.919  18.982  13.695  1.00  0.00    -0.356 N 
HETATM   21  C4  UNL     1      11.223  17.953  13.015  1.00  0.00     0.246 C 
HETATM   22  O1  UNL     1      10.084  18.241  12.565  1.00  0.00    -0.268 OA
ATOM     23  H1  UNL     1      12.844  18.767  14.067  1.00  0.00     0.162 HD
BRANCH  21  24
HETATM   24  C2  UNL     1      11.775  16.620  12.834  1.00  0.00    -0.004 C 
HETATM   25  C1  UNL     1      11.372  15.637  13.591  1.00  0.00     0.024 C 
HETATM   26  C3  UNL     1      12.799  16.376  11.782  1.00  0.00     0.053 C 
ENDBRANCH  21  24
ENDBRANCH  19  20
ENDBRANCH  18  19
ENDBRANCH   1  18
BRANCH   4  27
HETATM   27  O3  UNL     1      15.104  23.123  15.991  1.00  0.00    -0.378 OA
ATOM     28  H3  UNL     1      16.024  23.336  16.091  1.00  0.00     0.211 HD
ENDBRANCH   4  27
BRANCH   6  29
HETATM   29  C11 UNL     1      15.855  22.454  18.648  1.00  0.00    -0.016 A 
HETATM   30  C12 UNL     1      16.753  21.991  19.555  1.00  0.00     0.015 A 
HETATM   31  C13 UNL     1      17.613  22.802  20.263  1.00  0.00     0.057 A 
HETATM   32  C14 UNL     1      17.554  24.159  20.034  1.00  0.00     0.141 A 
HETATM   33  N3  UNL     1      16.686  24.628  19.154  1.00  0.00    -0.346 N 
HETATM   34  C16 UNL     1      15.863  23.848  18.476  1.00  0.00     0.099 A 
ATOM     35  H3  UNL     1      16.649  25.634  18.991  1.00  0.00     0.167 HD
BRANCH  32  36
HETATM   36  O4  UNL     1      18.421  25.004  20.745  1.00  0.00    -0.341 OA
HETATM   37  C15 UNL     1      19.779  24.623  20.809  1.00  0.00     0.211 C 
ENDBRANCH  32  36
ENDBRANCH   6  29
BRANCH  14  38
HETATM   38  C23 UNL     1      10.216  17.126  18.171  1.00  0.00     0.151 C 
BRANCH  38  39
HETATM   39  C24 UNL     1      10.535  15.760  17.607  1.00  0.00     0.137 C 
BRANCH  39  40
HETATM   40  N6  UNL     1       9.399  15.017  17.218  1.00  0.00    -0.412 N 
BRANCH  40  41
HETATM   41  C25 UNL     1       8.693  15.513  16.072  1.00  0.00     0.112 C 
HETATM   42  C26 UNL     1       7.256  15.097  16.030  1.00  0.00     0.026 C 
ENDBRANCH  40  41
BRANCH  40  43
HETATM   43  C27 UNL     1       9.525  13.604  17.275  1.00  0.00     0.112 C 
HETATM   44  C28 UNL     1      10.341  13.135  16.076  1.00  0.00     0.026 C 
ENDBRANCH  40  43
ENDBRANCH  39  40
ENDBRANCH  38  39
ENDBRANCH  14  38
TORSDOF 12
ENDMDL
