MODEL 1
REMARK VINA RESULT: -9.023188773      0.000      0.000
REMARK  11 active torsions:
REMARK  status: ('A' for Active; 'I' for Inactive)
REMARK       I    between atoms: N2_3  and  C2_5 
REMARK       I    between atoms: C2_5  and  N6_22 
REMARK    1  A    between atoms: N3_6  and  C3_8 
REMARK    2  A    between atoms: C3_8  and  C4_9 
REMARK    3  A    between atoms: C4_9  and  C5_10 
REMARK    4  A    between atoms: C7_14  and  N5_15 
REMARK    5  A    between atoms: N6_22  and  C13_24 
REMARK    6  A    between atoms: C14_25  and  C15_26 
REMARK    7  A    between atoms: C15_26  and  O1_27 
REMARK    8  A    between atoms: C16_30  and  C17_31 
REMARK    9  A    between atoms: C17_31  and  N7_32 
REMARK   10  A    between atoms: C18_36  and  O3_37 
REMARK   11  A    between atoms: C19_39  and  O4_40 
ROOT
HETATM    1  N1  UNL     1      12.124   0.669  15.584  1.00  0.00    -0.171 NA
HETATM    2  C1  UNL     1      11.174   1.150  15.080  1.00  0.00     0.196 C 
HETATM    3  N2  UNL     1      10.043   1.722  14.506  1.00  0.00    -0.126 N 
ATOM      4  H2  UNL     1      10.174   2.562  13.944  1.00  0.00     0.197 HD
HETATM    5  C2  UNL     1       8.736   1.230  14.643  1.00  0.00     0.683 C 
HETATM    6  N3  UNL     1       8.361   0.368  13.722  1.00  0.00    -0.225 N 
ATOM      7  H3  UNL     1       7.419  -0.020  13.773  1.00  0.00     0.177 HD
HETATM    8  N6  UNL     1       7.807   1.532  15.648  1.00  0.00    -0.216 N 
ATOM      9  H6  UNL     1       7.278   0.735  15.999  1.00  0.00     0.178 HD
ENDROOT
BRANCH   6  10
HETATM   10  C3  UNL     1       9.225  -0.057  12.638  1.00  0.00     0.143 C 
BRANCH  10  11
HETATM   11  C4  UNL     1       8.448  -0.663  11.504  1.00  0.00     0.068 C 
BRANCH  11  12
HETATM   12  C5  UNL     1       8.274   0.375  10.445  1.00  0.00     0.003 A 
HETATM   13  C6  UNL     1       9.252   0.918   9.649  1.00  0.00     0.105 A 
HETATM   14  N4  UNL     1       8.909   1.803   8.776  1.00  0.00    -0.346 N 
HETATM   15  C7  UNL     1       7.635   2.166   8.666  1.00  0.00     0.146 A 
ATOM     16  H4  UNL     1       9.613   2.223   8.170  1.00  0.00     0.167 HD
HETATM   17  S1  UNL     1       6.882   1.204   9.866  1.00  0.00    -0.057 SA
BRANCH  15  18
HETATM   18  N5  UNL     1       7.067   3.119   7.738  1.00  0.00    -0.361 N 
HETATM   19  C8  UNL     1       7.292   4.520   8.011  1.00  0.00     0.125 C 
HETATM   20  C9  UNL     1       7.744   5.238   6.748  1.00  0.00     0.020 C 
HETATM   21  C10 UNL     1       6.892   4.902   5.559  1.00  0.00     0.003 C 
HETATM   22  C11 UNL     1       5.778   3.936   5.888  1.00  0.00     0.020 C 
HETATM   23  C12 UNL     1       6.314   2.707   6.588  1.00  0.00     0.125 C 
ENDBRANCH  15  18
ENDBRANCH  11  12
ENDBRANCH  10  11
ENDBRANCH   6  10
BRANCH   8  24
HETATM   24  C13 UNL     1       7.489   2.775  16.251  1.00  0.00     0.161 C 
HETATM   25  C14 UNL     1       8.003   2.969  17.661  1.00  0.00     0.171 C 
HETATM   26  O2  UNL     1       7.648   4.213  18.151  1.00  0.00    -0.372 OA
HETATM   27  C16 UNL     1       7.181   5.103  17.223  1.00  0.00     0.178 C 
HETATM   28  C18 UNL     1       5.993   4.676  16.433  1.00  0.00     0.179 C 
HETATM   29  C19 UNL     1       6.040   3.170  16.242  1.00  0.00     0.175 C 
BRANCH  25  30
HETATM   30  C15 UNL     1       9.519   2.914  17.710  1.00  0.00     0.198 C 
BRANCH  30  31
HETATM   31  O1  UNL     1      10.036   3.766  18.689  1.00  0.00    -0.398 OA
ATOM     32  H1  UNL     1       9.936   4.680  18.450  1.00  0.00     0.209 HD
ENDBRANCH  30  31
ENDBRANCH  25  30
BRANCH  27  33
HETATM   33  C17 UNL     1       6.875   6.403  17.993  1.00  0.00     0.264 C 
BRANCH  33  34
HETATM   34  N7  UNL     1       7.955   6.758  18.891  1.00  0.00    -0.077 N 
ATOM     35  H73 UNL     1       7.599   7.085  19.790  1.00  0.00     0.274 HD
ATOM     36  H72 UNL     1       8.460   5.931  19.212  1.00  0.00     0.274 HD
ATOM     37  H71 UNL     1       8.587   7.439  18.471  1.00  0.00     0.274 HD
ENDBRANCH  33  34
ENDBRANCH  27  33
BRANCH  28  38
HETATM   38  O3  UNL     1       4.780   5.076  16.989  1.00  0.00    -0.390 OA
ATOM     39  H3  UNL     1       4.221   4.351  17.243  1.00  0.00     0.210 HD
ENDBRANCH  28  38
BRANCH  29  40
HETATM   40  O4  UNL     1       5.278   2.619  17.242  1.00  0.00    -0.391 OA
ATOM     41  H4  UNL     1       4.482   2.188  16.953  1.00  0.00     0.210 HD
ENDBRANCH  29  40
ENDBRANCH   8  24
TORSDOF 11
ENDMDL
MODEL 2
REMARK VINA RESULT: -8.934629573      4.281      5.200
REMARK  11 active torsions:
REMARK  status: ('A' for Active; 'I' for Inactive)
REMARK       I    between atoms: N2_3  and  C2_5 
REMARK       I    between atoms: C2_5  and  N6_22 
REMARK    1  A    between atoms: N3_6  and  C3_8 
REMARK    2  A    between atoms: C3_8  and  C4_9 
REMARK    3  A    between atoms: C4_9  and  C5_10 
REMARK    4  A    between atoms: C7_14  and  N5_15 
REMARK    5  A    between atoms: N6_22  and  C13_24 
REMARK    6  A    between atoms: C14_25  and  C15_26 
REMARK    7  A    between atoms: C15_26  and  O1_27 
REMARK    8  A    between atoms: C16_30  and  C17_31 
REMARK    9  A    between atoms: C17_31  and  N7_32 
REMARK   10  A    between atoms: C18_36  and  O3_37 
REMARK   11  A    between atoms: C19_39  and  O4_40 
ROOT
HETATM    1  N1  UNL     1       5.217   0.272  13.236  1.00  0.00    -0.171 NA
HETATM    2  C1  UNL     1       6.083   0.501  14.002  1.00  0.00     0.196 C 
HETATM    3  N2  UNL     1       7.098   0.795  14.906  1.00  0.00    -0.126 N 
ATOM      4  H2  UNL     1       7.055   0.351  15.823  1.00  0.00     0.197 HD
HETATM    5  C2  UNL     1       8.178   1.655  14.652  1.00  0.00     0.683 C 
HETATM    6  N3  UNL     1       9.247   1.080  14.145  1.00  0.00    -0.225 N 
ATOM      7  H3  UNL     1      10.062   1.660  13.943  1.00  0.00     0.177 HD
HETATM    8  N6  UNL     1       8.235   3.041  14.854  1.00  0.00    -0.216 N 
ATOM      9  H6  UNL     1       8.689   3.566  14.107  1.00  0.00     0.178 HD
ENDROOT
BRANCH   6  10
HETATM   10  C3  UNL     1       9.322  -0.339  13.861  1.00  0.00     0.143 C 
BRANCH  10  11
HETATM   11  C4  UNL     1      10.622  -0.938  14.318  1.00  0.00     0.068 C 
BRANCH  11  12
HETATM   12  C5  UNL     1      11.512  -1.093  13.130  1.00  0.00     0.003 A 
HETATM   13  C6  UNL     1      11.564  -2.161  12.268  1.00  0.00     0.105 A 
HETATM   14  N4  UNL     1      12.396  -2.112  11.285  1.00  0.00    -0.346 N 
HETATM   15  C7  UNL     1      13.175  -1.047  11.127  1.00  0.00     0.146 A 
ATOM     16  H4  UNL     1      12.457  -2.891  10.628  1.00  0.00     0.167 HD
HETATM   17  S1  UNL     1      12.705  -0.060  12.445  1.00  0.00    -0.057 SA
BRANCH  15  18
HETATM   18  N5  UNL     1      14.144  -0.811  10.079  1.00  0.00    -0.361 N 
HETATM   19  C8  UNL     1      13.983  -1.555   8.851  1.00  0.00     0.125 C 
HETATM   20  C9  UNL     1      14.112  -0.629   7.651  1.00  0.00     0.020 C 
HETATM   21  C10 UNL     1      15.304   0.278   7.749  1.00  0.00     0.003 C 
HETATM   22  C11 UNL     1      16.108   0.058   9.010  1.00  0.00     0.020 C 
HETATM   23  C12 UNL     1      15.223   0.122  10.236  1.00  0.00     0.125 C 
ENDBRANCH  15  18
ENDBRANCH  11  12
ENDBRANCH  10  11
ENDBRANCH   6  10
BRANCH   8  24
HETATM   24  C13 UNL     1       7.759   3.825  15.935  1.00  0.00     0.161 C 
HETATM   25  C14 UNL     1       8.165   3.354  17.314  1.00  0.00     0.171 C 
HETATM   26  O2  UNL     1       7.660   4.191  18.293  1.00  0.00    -0.372 OA
HETATM   27  C16 UNL     1       7.163   5.386  17.849  1.00  0.00     0.178 C 
HETATM   28  C18 UNL     1       6.073   5.317  16.837  1.00  0.00     0.179 C 
HETATM   29  C19 UNL     1       6.281   4.090  15.967  1.00  0.00     0.175 C 
BRANCH  25  30
HETATM   30  C15 UNL     1       9.674   3.373  17.483  1.00  0.00     0.198 C 
BRANCH  30  31
HETATM   31  O1  UNL     1      10.045   3.735  18.781  1.00  0.00    -0.398 OA
ATOM     32  H1  UNL     1      10.870   4.205  18.793  1.00  0.00     0.209 HD
ENDBRANCH  30  31
ENDBRANCH  25  30
BRANCH  27  33
HETATM   33  C17 UNL     1       6.684   6.142  19.105  1.00  0.00     0.264 C 
BRANCH  33  34
HETATM   34  N7  UNL     1       7.678   7.084  19.573  1.00  0.00    -0.077 N 
ATOM     35  H73 UNL     1       8.302   7.373  18.819  1.00  0.00     0.274 HD
ATOM     36  H72 UNL     1       7.261   7.990  19.790  1.00  0.00     0.274 HD
ATOM     37  H71 UNL     1       8.201   6.717  20.368  1.00  0.00     0.274 HD
ENDBRANCH  33  34
ENDBRANCH  27  33
BRANCH  28  38
HETATM   38  O3  UNL     1       4.795   5.331  17.392  1.00  0.00    -0.390 OA
ATOM     39  H3  UNL     1       4.188   4.740  16.962  1.00  0.00     0.210 HD
ENDBRANCH  28  38
BRANCH  29  40
HETATM   40  O4  UNL     1       5.519   3.085  16.510  1.00  0.00    -0.391 OA
ATOM     41  H4  UNL     1       4.580   3.208  16.441  1.00  0.00     0.210 HD
ENDBRANCH  29  40
ENDBRANCH   8  24
TORSDOF 11
ENDMDL
MODEL 3
REMARK VINA RESULT: -8.758893631      3.538      4.750
REMARK  11 active torsions:
REMARK  status: ('A' for Active; 'I' for Inactive)
REMARK       I    between atoms: N2_3  and  C2_5 
REMARK       I    between atoms: C2_5  and  N6_22 
REMARK    1  A    between atoms: N3_6  and  C3_8 
REMARK    2  A    between atoms: C3_8  and  C4_9 
REMARK    3  A    between atoms: C4_9  and  C5_10 
REMARK    4  A    between atoms: C7_14  and  N5_15 
REMARK    5  A    between atoms: N6_22  and  C13_24 
REMARK    6  A    between atoms: C14_25  and  C15_26 
REMARK    7  A    between atoms: C15_26  and  O1_27 
REMARK    8  A    between atoms: C16_30  and  C17_31 
REMARK    9  A    between atoms: C17_31  and  N7_32 
REMARK   10  A    between atoms: C18_36  and  O3_37 
REMARK   11  A    between atoms: C19_39  and  O4_40 
ROOT
HETATM    1  N1  UNL     1      11.703   0.648  14.774  1.00  0.00    -0.171 NA
HETATM    2  C1  UNL     1      10.708   1.168  14.416  1.00  0.00     0.196 C 
HETATM    3  N2  UNL     1       9.527   1.784  14.017  1.00  0.00    -0.126 N 
ATOM      4  H2  UNL     1       9.604   2.647  13.478  1.00  0.00     0.197 HD
HETATM    5  C2  UNL     1       8.236   1.310  14.300  1.00  0.00     0.683 C 
HETATM    6  N3  UNL     1       7.727   0.497  13.400  1.00  0.00    -0.225 N 
ATOM      7  H3  UNL     1       6.791   0.124  13.556  1.00  0.00     0.177 HD
HETATM    8  N6  UNL     1       7.451   1.584  15.428  1.00  0.00    -0.216 N 
ATOM      9  H6  UNL     1       6.952   0.781  15.811  1.00  0.00     0.178 HD
ENDROOT
BRANCH   6  10
HETATM   10  C3  UNL     1       8.435   0.105  12.197  1.00  0.00     0.143 C 
BRANCH  10  11
HETATM   11  C4  UNL     1       8.922  -1.315  12.266  1.00  0.00     0.068 C 
BRANCH  11  12
HETATM   12  C5  UNL     1      10.322  -1.358  11.752  1.00  0.00     0.003 A 
HETATM   13  C6  UNL     1      11.268  -2.319  12.006  1.00  0.00     0.105 A 
HETATM   14  N4  UNL     1      12.430  -2.192  11.460  1.00  0.00    -0.346 N 
HETATM   15  C7  UNL     1      12.684  -1.150  10.675  1.00  0.00     0.146 A 
ATOM     16  H4  UNL     1      13.154  -2.891  11.631  1.00  0.00     0.167 HD
HETATM   17  S1  UNL     1      11.197  -0.302  10.713  1.00  0.00    -0.057 SA
BRANCH  15  18
HETATM   18  N5  UNL     1      13.912  -0.857   9.969  1.00  0.00    -0.361 N 
HETATM   19  C8  UNL     1      14.065  -1.424   8.649  1.00  0.00     0.125 C 
HETATM   20  C9  UNL     1      14.555  -0.364   7.672  1.00  0.00     0.020 C 
HETATM   21  C10 UNL     1      15.708   0.428   8.214  1.00  0.00     0.003 C 
HETATM   22  C11 UNL     1      16.126  -0.012   9.598  1.00  0.00     0.020 C 
HETATM   23  C12 UNL     1      14.942  -0.037  10.540  1.00  0.00     0.125 C 
ENDBRANCH  15  18
ENDBRANCH  11  12
ENDBRANCH  10  11
ENDBRANCH   6  10
BRANCH   8  24
HETATM   24  C13 UNL     1       7.241   2.805  16.118  1.00  0.00     0.161 C 
HETATM   25  C14 UNL     1       7.863   2.892  17.495  1.00  0.00     0.171 C 
HETATM   26  O2  UNL     1       7.609   4.123  18.076  1.00  0.00    -0.372 OA
HETATM   27  C16 UNL     1       7.124   5.085  17.233  1.00  0.00     0.178 C 
HETATM   28  C18 UNL     1       5.862   4.761  16.511  1.00  0.00     0.179 C 
HETATM   29  C19 UNL     1       5.818   3.268  16.237  1.00  0.00     0.175 C 
BRANCH  25  30
HETATM   30  C15 UNL     1       9.374   2.762  17.429  1.00  0.00     0.198 C 
BRANCH  30  31
HETATM   31  O1  UNL     1       9.988   3.281  18.572  1.00  0.00    -0.398 OA
ATOM     32  H1  UNL     1      10.466   4.080  18.383  1.00  0.00     0.209 HD
ENDBRANCH  30  31
ENDBRANCH  25  30
BRANCH  27  33
HETATM   33  C17 UNL     1       6.942   6.352  18.092  1.00  0.00     0.264 C 
BRANCH  33  34
HETATM   34  N7  UNL     1       8.107   6.614  18.912  1.00  0.00    -0.077 N 
ATOM     35  H73 UNL     1       8.930   6.125  18.556  1.00  0.00     0.274 HD
ATOM     36  H72 UNL     1       8.433   7.574  18.801  1.00  0.00     0.274 HD
ATOM     37  H71 UNL     1       7.936   6.390  19.892  1.00  0.00     0.274 HD
ENDBRANCH  33  34
ENDBRANCH  27  33
BRANCH  28  38
HETATM   38  O3  UNL     1       4.714   5.187  17.176  1.00  0.00    -0.390 OA
ATOM     39  H3  UNL     1       4.602   6.130  17.175  1.00  0.00     0.210 HD
ENDBRANCH  28  38
BRANCH  29  40
HETATM   40  O4  UNL     1       5.101   2.698  17.260  1.00  0.00    -0.391 OA
ATOM     41  H4  UNL     1       4.789   1.817  17.092  1.00  0.00     0.210 HD
ENDBRANCH  29  40
ENDBRANCH   8  24
TORSDOF 11
ENDMDL
MODEL 4
REMARK VINA RESULT: -8.719490815      3.421      4.638
REMARK  11 active torsions:
REMARK  status: ('A' for Active; 'I' for Inactive)
REMARK       I    between atoms: N2_3  and  C2_5 
REMARK       I    between atoms: C2_5  and  N6_22 
REMARK    1  A    between atoms: N3_6  and  C3_8 
REMARK    2  A    between atoms: C3_8  and  C4_9 
REMARK    3  A    between atoms: C4_9  and  C5_10 
REMARK    4  A    between atoms: C7_14  and  N5_15 
REMARK    5  A    between atoms: N6_22  and  C13_24 
REMARK    6  A    between atoms: C14_25  and  C15_26 
REMARK    7  A    between atoms: C15_26  and  O1_27 
REMARK    8  A    between atoms: C16_30  and  C17_31 
REMARK    9  A    between atoms: C17_31  and  N7_32 
REMARK   10  A    between atoms: C18_36  and  O3_37 
REMARK   11  A    between atoms: C19_39  and  O4_40 
ROOT
HETATM    1  N1  UNL     1      11.205   1.225  12.931  1.00  0.00    -0.171 NA
HETATM    2  C1  UNL     1      10.065   1.522  12.952  1.00  0.00     0.196 C 
HETATM    3  N2  UNL     1       8.721   1.875  13.000  1.00  0.00    -0.126 N 
ATOM      4  H2  UNL     1       8.431   2.700  12.476  1.00  0.00     0.197 HD
HETATM    5  C2  UNL     1       7.732   1.182  13.716  1.00  0.00     0.683 C 
HETATM    6  N3  UNL     1       7.117   0.231  13.045  1.00  0.00    -0.225 N 
ATOM      7  H3  UNL     1       6.388  -0.304  13.518  1.00  0.00     0.177 HD
HETATM    8  N6  UNL     1       7.348   1.370  15.050  1.00  0.00    -0.216 N 
ATOM      9  H6  UNL     1       7.186   0.513  15.577  1.00  0.00     0.178 HD
ENDROOT
BRANCH   6  10
HETATM   10  C3  UNL     1       7.427  -0.093  11.667  1.00  0.00     0.143 C 
BRANCH  10  11
HETATM   11  C4  UNL     1       7.955  -1.492  11.522  1.00  0.00     0.068 C 
BRANCH  11  12
HETATM   12  C5  UNL     1       9.402  -1.414  11.166  1.00  0.00     0.003 A 
HETATM   13  C6  UNL     1      10.456  -1.958  11.858  1.00  0.00     0.105 A 
HETATM   14  N4  UNL     1      11.646  -1.794  11.388  1.00  0.00    -0.346 N 
HETATM   15  C7  UNL     1      11.825  -1.112  10.261  1.00  0.00     0.146 A 
ATOM     16  H4  UNL     1      12.448  -2.188  11.880  1.00  0.00     0.167 HD
HETATM   17  S1  UNL     1      10.222  -0.677   9.845  1.00  0.00    -0.057 SA
BRANCH  15  18
HETATM   18  N5  UNL     1      13.074  -0.848   9.581  1.00  0.00    -0.361 N 
HETATM   19  C8  UNL     1      14.254  -0.698  10.402  1.00  0.00     0.125 C 
HETATM   20  C9  UNL     1      15.401  -1.522   9.833  1.00  0.00     0.020 C 
HETATM   21  C10 UNL     1      15.568  -1.332   8.354  1.00  0.00     0.003 C 
HETATM   22  C11 UNL     1      14.569  -0.361   7.769  1.00  0.00     0.020 C 
HETATM   23  C12 UNL     1      13.155  -0.741   8.152  1.00  0.00     0.125 C 
ENDBRANCH  15  18
ENDBRANCH  11  12
ENDBRANCH  10  11
ENDBRANCH   6  10
BRANCH   8  24
HETATM   24  C13 UNL     1       7.150   2.569  15.781  1.00  0.00     0.161 C 
HETATM   25  C14 UNL     1       7.951   2.696  17.058  1.00  0.00     0.171 C 
HETATM   26  O2  UNL     1       7.694   3.902  17.687  1.00  0.00    -0.372 OA
HETATM   27  C16 UNL     1       7.028   4.831  16.934  1.00  0.00     0.178 C 
HETATM   28  C18 UNL     1       5.703   4.418  16.391  1.00  0.00     0.179 C 
HETATM   29  C19 UNL     1       5.728   2.927  16.104  1.00  0.00     0.175 C 
BRANCH  25  30
HETATM   30  C15 UNL     1       9.444   2.678  16.780  1.00  0.00     0.198 C 
BRANCH  30  31
HETATM   31  O1  UNL     1       9.899   1.392  16.479  1.00  0.00    -0.398 OA
ATOM     32  H1  UNL     1      10.633   1.141  17.027  1.00  0.00     0.209 HD
ENDBRANCH  30  31
ENDBRANCH  25  30
BRANCH  27  33
HETATM   33  C17 UNL     1       6.877   6.077  17.828  1.00  0.00     0.264 C 
BRANCH  33  34
HETATM   34  N7  UNL     1       7.836   6.074  18.914  1.00  0.00    -0.077 N 
ATOM     35  H73 UNL     1       7.624   6.799  19.600  1.00  0.00     0.274 HD
ATOM     36  H72 UNL     1       7.722   5.253  19.509  1.00  0.00     0.274 HD
ATOM     37  H71 UNL     1       8.793   6.155  18.572  1.00  0.00     0.274 HD
ENDBRANCH  33  34
ENDBRANCH  27  33
BRANCH  28  38
HETATM   38  O3  UNL     1       4.633   4.755  17.216  1.00  0.00    -0.390 OA
ATOM     39  H3  UNL     1       3.848   4.999  16.739  1.00  0.00     0.210 HD
ENDBRANCH  28  38
BRANCH  29  40
HETATM   40  O4  UNL     1       5.205   2.302  17.209  1.00  0.00    -0.391 OA
ATOM     41  H4  UNL     1       4.555   1.634  17.025  1.00  0.00     0.210 HD
ENDBRANCH  29  40
ENDBRANCH   8  24
TORSDOF 11
ENDMDL
MODEL 5
REMARK VINA RESULT: -8.718150503      1.250      2.248
REMARK  11 active torsions:
REMARK  status: ('A' for Active; 'I' for Inactive)
REMARK       I    between atoms: N2_3  and  C2_5 
REMARK       I    between atoms: C2_5  and  N6_22 
REMARK    1  A    between atoms: N3_6  and  C3_8 
REMARK    2  A    between atoms: C3_8  and  C4_9 
REMARK    3  A    between atoms: C4_9  and  C5_10 
REMARK    4  A    between atoms: C7_14  and  N5_15 
REMARK    5  A    between atoms: N6_22  and  C13_24 
REMARK    6  A    between atoms: C14_25  and  C15_26 
REMARK    7  A    between atoms: C15_26  and  O1_27 
REMARK    8  A    between atoms: C16_30  and  C17_31 
REMARK    9  A    between atoms: C17_31  and  N7_32 
REMARK   10  A    between atoms: C18_36  and  O3_37 
REMARK   11  A    between atoms: C19_39  and  O4_40 
ROOT
HETATM    1  N1  UNL     1      11.547   0.997  15.980  1.00  0.00    -0.171 NA
HETATM    2  C1  UNL     1      10.569   1.490  15.543  1.00  0.00     0.196 C 
HETATM    3  N2  UNL     1       9.409   2.077  15.051  1.00  0.00    -0.126 N 
ATOM      4  H2  UNL     1       9.512   2.900  14.457  1.00  0.00     0.197 HD
HETATM    5  C2  UNL     1       8.106   1.623  15.307  1.00  0.00     0.683 C 
HETATM    6  N3  UNL     1       7.636   0.749  14.443  1.00  0.00    -0.225 N 
ATOM      7  H3  UNL     1       6.692   0.387  14.582  1.00  0.00     0.177 HD
HETATM    8  N6  UNL     1       7.271   1.973  16.377  1.00  0.00    -0.216 N 
ATOM      9  H6  UNL     1       6.754   1.198  16.791  1.00  0.00     0.178 HD
ENDROOT
BRANCH   6  10
HETATM   10  C3  UNL     1       8.396   0.276  13.303  1.00  0.00     0.143 C 
BRANCH  10  11
HETATM   11  C4  UNL     1       7.505  -0.203  12.192  1.00  0.00     0.068 C 
BRANCH  11  12
HETATM   12  C5  UNL     1       7.527   0.815  11.100  1.00  0.00     0.003 A 
HETATM   13  C6  UNL     1       8.502   1.752  10.861  1.00  0.00     0.105 A 
HETATM   14  N4  UNL     1       8.352   2.547   9.856  1.00  0.00    -0.346 N 
HETATM   15  C7  UNL     1       7.274   2.445   9.085  1.00  0.00     0.146 A 
ATOM     16  H4  UNL     1       9.060   3.253   9.654  1.00  0.00     0.167 HD
HETATM   17  S1  UNL     1       6.425   1.154   9.823  1.00  0.00    -0.057 SA
BRANCH  15  18
HETATM   18  N5  UNL     1       6.951   3.230   7.914  1.00  0.00    -0.361 N 
HETATM   19  C8  UNL     1       7.160   4.657   7.998  1.00  0.00     0.125 C 
HETATM   20  C9  UNL     1       7.896   5.157   6.764  1.00  0.00     0.020 C 
HETATM   21  C10 UNL     1       7.308   4.627   5.489  1.00  0.00     0.003 C 
HETATM   22  C11 UNL     1       6.117   3.726   5.720  1.00  0.00     0.020 C 
HETATM   23  C12 UNL     1       6.448   2.631   6.710  1.00  0.00     0.125 C 
ENDBRANCH  15  18
ENDBRANCH  11  12
ENDBRANCH  10  11
ENDBRANCH   6  10
BRANCH   8  24
HETATM   24  C13 UNL     1       7.034   3.238  16.972  1.00  0.00     0.161 C 
HETATM   25  C14 UNL     1       6.226   4.210  16.141  1.00  0.00     0.171 C 
HETATM   26  O2  UNL     1       6.044   5.405  16.815  1.00  0.00    -0.372 OA
HETATM   27  C16 UNL     1       6.355   5.386  18.148  1.00  0.00     0.178 C 
HETATM   28  C18 UNL     1       7.745   4.983  18.499  1.00  0.00     0.179 C 
HETATM   29  C19 UNL     1       8.241   3.973  17.479  1.00  0.00     0.175 C 
BRANCH  25  30
HETATM   30  C15 UNL     1       4.835   3.672  15.857  1.00  0.00     0.198 C 
BRANCH  30  31
HETATM   31  O1  UNL     1       4.857   2.671  14.882  1.00  0.00    -0.398 OA
ATOM     32  H1  UNL     1       4.143   2.768  14.262  1.00  0.00     0.209 HD
ENDBRANCH  30  31
ENDBRANCH  25  30
BRANCH  27  33
HETATM   33  C17 UNL     1       6.055   6.802  18.677  1.00  0.00     0.264 C 
BRANCH  33  34
HETATM   34  N7  UNL     1       6.026   6.837  20.124  1.00  0.00    -0.077 N 
ATOM     35  H73 UNL     1       5.074   6.941  20.475  1.00  0.00     0.274 HD
ATOM     36  H72 UNL     1       6.244   5.923  20.523  1.00  0.00     0.274 HD
ATOM     37  H71 UNL     1       6.641   7.561  20.496  1.00  0.00     0.274 HD
ENDBRANCH  33  34
ENDBRANCH  27  33
BRANCH  28  38
HETATM   38  O3  UNL     1       8.625   6.058  18.613  1.00  0.00    -0.390 OA
ATOM     39  H3  UNL     1       8.590   6.488  19.459  1.00  0.00     0.210 HD
ENDBRANCH  28  38
BRANCH  29  40
HETATM   40  O4  UNL     1       8.937   4.678  16.528  1.00  0.00    -0.391 OA
ATOM     41  H4  UNL     1       8.717   4.469  15.628  1.00  0.00     0.210 HD
ENDBRANCH  29  40
ENDBRANCH   8  24
TORSDOF 11
ENDMDL
