MODEL 1
REMARK VINA RESULT: -4.834973170      0.000      0.000
REMARK  1 active torsions:
REMARK  status: ('A' for Active; 'I' for Inactive)
REMARK    1  A    between atoms: O1_1  and  C1_3 
ROOT
HETATM    1  C1  UNL     1      12.774   1.305  26.334  1.00  0.00     0.118 C 
HETATM    2  C2  UNL     1      14.097   0.887  26.974  1.00  0.00     0.032 C 
HETATM    3  C3  UNL     1      15.199   1.757  26.460  1.00  0.00     0.002 C 
HETATM    4  C4  UNL     1      16.189   1.032  25.591  1.00  0.00     0.000 C 
HETATM    5  C5  UNL     1      15.678   0.828  24.177  1.00  0.00     0.000 C 
HETATM    6  C6  UNL     1      15.377  -0.615  23.925  1.00  0.00     0.000 C 
HETATM    7  C7  UNL     1      14.176  -0.855  23.069  1.00  0.00     0.000 C 
HETATM    8  C8  UNL     1      12.941  -1.216  23.860  1.00  0.00     0.000 C 
HETATM    9  C9  UNL     1      12.147  -0.001  24.281  1.00  0.00     0.002 C 
HETATM   10  C10 UNL     1      12.032   0.123  25.776  1.00  0.00     0.032 C 
ENDROOT
BRANCH   1  11
HETATM   11  O1  UNL     1      11.994   1.935  27.323  1.00  0.00    -0.396 OA
ATOM     12  H1  UNL     1      11.239   2.323  26.896  1.00  0.00     0.210 HD
ENDBRANCH   1  11
TORSDOF 1
ENDMDL
MODEL 2
REMARK VINA RESULT: -4.827845029      1.249      3.247
REMARK  1 active torsions:
REMARK  status: ('A' for Active; 'I' for Inactive)
REMARK    1  A    between atoms: O1_1  and  C1_3 
ROOT
HETATM    1  C1  UNL     1      12.909   1.067  26.853  1.00  0.00     0.118 C 
HETATM    2  C2  UNL     1      12.508   0.933  25.385  1.00  0.00     0.032 C 
HETATM    3  C3  UNL     1      11.777  -0.355  25.180  1.00  0.00     0.002 C 
HETATM    4  C4  UNL     1      12.529  -1.355  24.347  1.00  0.00     0.000 C 
HETATM    5  C5  UNL     1      13.602  -2.079  25.139  1.00  0.00     0.000 C 
HETATM    6  C6  UNL     1      14.966  -1.651  24.698  1.00  0.00     0.000 C 
HETATM    7  C7  UNL     1      15.967  -1.547  25.803  1.00  0.00     0.000 C 
HETATM    8  C8  UNL     1      16.186  -0.131  26.279  1.00  0.00     0.000 C 
HETATM    9  C9  UNL     1      15.231   0.264  27.382  1.00  0.00     0.002 C 
HETATM   10  C10 UNL     1      14.360   1.430  26.999  1.00  0.00     0.032 C 
ENDROOT
BRANCH   1  11
HETATM   11  O1  UNL     1      12.105   2.068  27.432  1.00  0.00    -0.396 OA
ATOM     12  H1  UNL     1      11.196   1.822  27.305  1.00  0.00     0.210 HD
ENDBRANCH   1  11
TORSDOF 1
ENDMDL
MODEL 3
REMARK VINA RESULT: -4.699569721      1.711      3.400
REMARK  1 active torsions:
REMARK  status: ('A' for Active; 'I' for Inactive)
REMARK    1  A    between atoms: O1_1  and  C1_3 
ROOT
HETATM    1  C1  UNL     1      13.158  -1.082  24.946  1.00  0.00     0.118 C 
HETATM    2  C2  UNL     1      13.388  -0.639  23.502  1.00  0.00     0.032 C 
HETATM    3  C3  UNL     1      14.729  -1.111  23.039  1.00  0.00     0.002 C 
HETATM    4  C4  UNL     1      15.716  -0.002  22.805  1.00  0.00     0.000 C 
HETATM    5  C5  UNL     1      16.330   0.509  24.096  1.00  0.00     0.000 C 
HETATM    6  C6  UNL     1      15.836   1.885  24.411  1.00  0.00     0.000 C 
HETATM    7  C7  UNL     1      15.615   2.144  25.865  1.00  0.00     0.000 C 
HETATM    8  C8  UNL     1      14.166   2.034  26.278  1.00  0.00     0.000 C 
HETATM    9  C9  UNL     1      13.783   0.628  26.677  1.00  0.00     0.002 C 
HETATM   10  C10 UNL     1      12.695   0.058  25.807  1.00  0.00     0.032 C 
ENDROOT
BRANCH   1  11
HETATM   11  O1  UNL     1      12.186  -2.100  24.936  1.00  0.00    -0.396 OA
ATOM     12  H1  UNL     1      12.627  -2.928  25.088  1.00  0.00     0.210 HD
ENDBRANCH   1  11
TORSDOF 1
ENDMDL
MODEL 4
REMARK VINA RESULT: -4.663517903      2.251      3.574
REMARK  1 active torsions:
REMARK  status: ('A' for Active; 'I' for Inactive)
REMARK    1  A    between atoms: O1_1  and  C1_3 
ROOT
HETATM    1  C1  UNL     1      14.785  -0.886  23.314  1.00  0.00     0.118 C 
HETATM    2  C2  UNL     1      15.402   0.511  23.290  1.00  0.00     0.032 C 
HETATM    3  C3  UNL     1      16.367   0.653  24.422  1.00  0.00     0.002 C 
HETATM    4  C4  UNL     1      15.922   1.624  25.481  1.00  0.00     0.000 C 
HETATM    5  C5  UNL     1      14.892   1.024  26.421  1.00  0.00     0.000 C 
HETATM    6  C6  UNL     1      13.549   1.643  26.201  1.00  0.00     0.000 C 
HETATM    7  C7  UNL     1      12.403   0.694  26.332  1.00  0.00     0.000 C 
HETATM    8  C8  UNL     1      11.877   0.204  25.004  1.00  0.00     0.000 C 
HETATM    9  C9  UNL     1      12.588  -1.040  24.524  1.00  0.00     0.002 C 
HETATM   10  C10 UNL     1      13.287  -0.832  23.208  1.00  0.00     0.032 C 
ENDROOT
BRANCH   1  11
HETATM   11  O1  UNL     1      15.315  -1.612  22.230  1.00  0.00    -0.396 OA
ATOM     12  H1  UNL     1      15.749  -0.997  21.650  1.00  0.00     0.210 HD
ENDBRANCH   1  11
TORSDOF 1
ENDMDL
MODEL 5
REMARK VINA RESULT: -4.600667873      1.449      1.983
REMARK  1 active torsions:
REMARK  status: ('A' for Active; 'I' for Inactive)
REMARK    1  A    between atoms: O1_1  and  C1_3 
ROOT
HETATM    1  C1  UNL     1      12.148   0.728  25.270  1.00  0.00     0.118 C 
HETATM    2  C2  UNL     1      12.577   1.059  26.698  1.00  0.00     0.032 C 
HETATM    3  C3  UNL     1      13.693   2.053  26.668  1.00  0.00     0.002 C 
HETATM    4  C4  UNL     1      15.010   1.502  27.141  1.00  0.00     0.000 C 
HETATM    5  C5  UNL     1      15.706   0.674  26.076  1.00  0.00     0.000 C 
HETATM    6  C6  UNL     1      15.700  -0.776  26.444  1.00  0.00     0.000 C 
HETATM    7  C7  UNL     1      15.519  -1.705  25.289  1.00  0.00     0.000 C 
HETATM    8  C8  UNL     1      14.105  -2.215  25.148  1.00  0.00     0.000 C 
HETATM    9  C9  UNL     1      13.246  -1.311  24.294  1.00  0.00     0.002 C 
HETATM   10  C10 UNL     1      12.067  -0.756  25.047  1.00  0.00     0.032 C 
ENDROOT
BRANCH   1  11
HETATM   11  O1  UNL     1      10.886   1.313  25.049  1.00  0.00    -0.396 OA
ATOM     12  H1  UNL     1      10.974   2.252  25.173  1.00  0.00     0.210 HD
ENDBRANCH   1  11
TORSDOF 1
ENDMDL
