MODEL 1
REMARK VINA RESULT: -7.623317535      0.000      0.000
REMARK  6 active torsions:
REMARK  status: ('A' for Active; 'I' for Inactive)
REMARK    1  A    between atoms: C2_2  and  C3_3 
REMARK    2  A    between atoms: C4_4  and  N1_5 
REMARK    3  A    between atoms: C9_13  and  O1_14 
REMARK    4  A    between atoms: O1_14  and  O2_15 
REMARK    5  A    between atoms: C10_18  and  C11_19 
REMARK    6  A    between atoms: C13_22  and  O5_23 
ROOT
HETATM    1  C3  UNL     1      44.282  32.767  57.522  1.00  0.00     0.043 C 
HETATM    2  C4  UNL     1      44.010  32.679  56.043  1.00  0.00     0.191 C 
HETATM    3  C5  UNL     1      44.568  31.397  55.468  1.00  0.00     0.034 C 
HETATM    4  C6  UNL     1      44.245  30.181  56.254  1.00  0.00     0.017 C 
HETATM    5  C7  UNL     1      44.472  30.300  57.743  1.00  0.00     0.013 C 
HETATM    6  C8  UNL     1      45.964  30.429  57.962  1.00  0.00     0.020 C 
HETATM    7  C9  UNL     1      43.943  29.103  58.459  1.00  0.00     0.305 C 
HETATM    8  O3  UNL     1      43.039  29.316  59.445  1.00  0.00    -0.348 OA
HETATM    9  C10 UNL     1      42.141  30.304  59.368  1.00  0.00     0.160 C 
HETATM   10  C15 UNL     1      42.361  31.278  58.218  1.00  0.00     0.043 C 
HETATM   11  C16 UNL     1      43.842  31.584  58.276  1.00  0.00     0.011 C 
ENDROOT
BRANCH   9  12
HETATM   12  C11 UNL     1      40.761  29.754  59.275  1.00  0.00    -0.002 A 
HETATM   13  C12 UNL     1      40.078  28.974  60.205  1.00  0.00     0.154 A 
HETATM   14  O4  UNL     1      38.872  28.692  59.741  1.00  0.00    -0.300 OA
HETATM   15  C13 UNL     1      38.695  29.229  58.564  1.00  0.00     0.183 A 
HETATM   16  C14 UNL     1      39.861  29.907  58.234  1.00  0.00     0.075 A 
BRANCH  15  17
HETATM   17  O5  UNL     1      37.553  29.145  57.778  1.00  0.00    -0.341 OA
ATOM     18  H5  UNL     1      37.296  29.742  57.085  1.00  0.00     0.220 HD
ENDBRANCH  15  17
ENDBRANCH   9  12
BRANCH   7  19
HETATM   19  O1  UNL     1      45.010  28.377  59.014  1.00  0.00    -0.209 OA
BRANCH  19  20
HETATM   20  O2  UNL     1      45.009  27.120  58.671  1.00  0.00    -0.248 OA
ATOM     21  H2  UNL     1      44.150  26.718  58.723  1.00  0.00     0.253 HD
ENDBRANCH  19  20
ENDBRANCH   7  19
BRANCH   1  22
HETATM   22  C2  UNL     1      43.850  34.039  58.096  1.00  0.00    -0.030 C 
HETATM   23  C1  UNL     1      44.519  35.176  58.091  1.00  0.00     0.007 C 
ENDBRANCH   1  22
BRANCH   2  24
HETATM   24  N1  UNL     1      42.620  32.771  55.701  1.00  0.00    -0.074 N 
ATOM     25  H13 UNL     1      42.111  33.303  56.407  1.00  0.00     0.274 HD
ATOM     26  H12 UNL     1      42.487  33.383  54.897  1.00  0.00     0.274 HD
ATOM     27  H11 UNL     1      42.173  31.869  55.542  1.00  0.00     0.274 HD
ENDBRANCH   2  24
TORSDOF 6
ENDMDL
MODEL 2
REMARK VINA RESULT: -7.046034465      2.424      3.962
REMARK  6 active torsions:
REMARK  status: ('A' for Active; 'I' for Inactive)
REMARK    1  A    between atoms: C2_2  and  C3_3 
REMARK    2  A    between atoms: C4_4  and  N1_5 
REMARK    3  A    between atoms: C9_13  and  O1_14 
REMARK    4  A    between atoms: O1_14  and  O2_15 
REMARK    5  A    between atoms: C10_18  and  C11_19 
REMARK    6  A    between atoms: C13_22  and  O5_23 
ROOT
HETATM    1  C3  UNL     1      45.149  30.770  56.325  1.00  0.00     0.043 C 
HETATM    2  C4  UNL     1      46.196  31.165  57.332  1.00  0.00     0.191 C 
HETATM    3  C5  UNL     1      45.973  32.581  57.815  1.00  0.00     0.034 C 
HETATM    4  C6  UNL     1      44.571  32.885  58.192  1.00  0.00     0.017 C 
HETATM    5  C7  UNL     1      43.526  32.436  57.199  1.00  0.00     0.013 C 
HETATM    6  C8  UNL     1      43.704  33.273  55.950  1.00  0.00     0.020 C 
HETATM    7  C9  UNL     1      42.153  32.615  57.752  1.00  0.00     0.305 C 
HETATM    8  O3  UNL     1      41.350  31.525  57.793  1.00  0.00    -0.348 OA
HETATM    9  C10 UNL     1      41.841  30.304  58.030  1.00  0.00     0.160 C 
HETATM   10  C15 UNL     1      43.362  30.217  58.026  1.00  0.00     0.043 C 
HETATM   11  C16 UNL     1      43.770  30.987  56.789  1.00  0.00     0.011 C 
ENDROOT
BRANCH   9  12
HETATM   12  C11 UNL     1      41.332  29.774  59.323  1.00  0.00    -0.002 A 
HETATM   13  C12 UNL     1      41.946  29.812  60.573  1.00  0.00     0.154 A 
HETATM   14  O4  UNL     1      41.161  29.231  61.466  1.00  0.00    -0.300 OA
HETATM   15  C13 UNL     1      40.061  28.807  60.905  1.00  0.00     0.183 A 
HETATM   16  C14 UNL     1      40.129  29.130  59.556  1.00  0.00     0.075 A 
BRANCH  15  17
HETATM   17  O5  UNL     1      39.010  28.153  61.533  1.00  0.00    -0.341 OA
ATOM     18  H5  UNL     1      39.026  27.278  61.903  1.00  0.00     0.220 HD
ENDBRANCH  15  17
ENDBRANCH   9  12
BRANCH   7  19
HETATM   19  O1  UNL     1      41.478  33.610  57.025  1.00  0.00    -0.209 OA
BRANCH  19  20
HETATM   20  O2  UNL     1      40.307  33.229  56.599  1.00  0.00    -0.248 OA
ATOM     21  H2  UNL     1      39.604  33.431  57.206  1.00  0.00     0.253 HD
ENDBRANCH  19  20
ENDBRANCH   7  19
BRANCH   1  22
HETATM   22  C2  UNL     1      45.389  29.447  55.756  1.00  0.00    -0.030 C 
HETATM   23  C1  UNL     1      45.667  29.166  54.497  1.00  0.00     0.007 C 
ENDBRANCH   1  22
BRANCH   2  24
HETATM   24  N1  UNL     1      46.265  30.295  58.471  1.00  0.00    -0.074 N 
ATOM     25  H13 UNL     1      45.342  30.177  58.888  1.00  0.00     0.274 HD
ATOM     26  H12 UNL     1      46.445  29.335  58.178  1.00  0.00     0.274 HD
ATOM     27  H11 UNL     1      46.942  30.588  59.175  1.00  0.00     0.274 HD
ENDBRANCH   2  24
TORSDOF 6
ENDMDL
MODEL 3
REMARK VINA RESULT: -6.991822889      1.208      1.456
REMARK  6 active torsions:
REMARK  status: ('A' for Active; 'I' for Inactive)
REMARK    1  A    between atoms: C2_2  and  C3_3 
REMARK    2  A    between atoms: C4_4  and  N1_5 
REMARK    3  A    between atoms: C9_13  and  O1_14 
REMARK    4  A    between atoms: O1_14  and  O2_15 
REMARK    5  A    between atoms: C10_18  and  C11_19 
REMARK    6  A    between atoms: C13_22  and  O5_23 
ROOT
HETATM    1  C3  UNL     1      44.830  33.563  57.179  1.00  0.00     0.043 C 
HETATM    2  C4  UNL     1      44.119  34.049  55.944  1.00  0.00     0.191 C 
HETATM    3  C5  UNL     1      44.334  33.097  54.788  1.00  0.00     0.034 C 
HETATM    4  C6  UNL     1      44.131  31.667  55.127  1.00  0.00     0.017 C 
HETATM    5  C7  UNL     1      44.806  31.205  56.396  1.00  0.00     0.013 C 
HETATM    6  C8  UNL     1      46.300  31.264  56.158  1.00  0.00     0.020 C 
HETATM    7  C9  UNL     1      44.390  29.817  56.746  1.00  0.00     0.305 C 
HETATM    8  O3  UNL     1      43.852  29.617  57.973  1.00  0.00    -0.348 OA
HETATM    9  C10 UNL     1      43.086  30.544  58.560  1.00  0.00     0.160 C 
HETATM   10  C15 UNL     1      43.056  31.890  57.848  1.00  0.00     0.043 C 
HETATM   11  C16 UNL     1      44.510  32.173  57.538  1.00  0.00     0.011 C 
ENDROOT
BRANCH   9  12
HETATM   12  C11 UNL     1      41.691  30.051  58.715  1.00  0.00    -0.002 A 
HETATM   13  C12 UNL     1      41.117  29.418  59.816  1.00  0.00     0.154 A 
HETATM   14  O4  UNL     1      39.851  29.139  59.550  1.00  0.00    -0.300 OA
HETATM   15  C13 UNL     1      39.533  29.541  58.350  1.00  0.00     0.183 A 
HETATM   16  C14 UNL     1      40.664  30.122  57.790  1.00  0.00     0.075 A 
BRANCH  15  17
HETATM   17  O5  UNL     1      38.294  29.418  57.735  1.00  0.00    -0.341 OA
ATOM     18  H5  UNL     1      37.479  29.817  58.017  1.00  0.00     0.220 HD
ENDBRANCH  15  17
ENDBRANCH   9  12
BRANCH   7  19
HETATM   19  O1  UNL     1      45.488  28.949  56.620  1.00  0.00    -0.209 OA
BRANCH  19  20
HETATM   20  O2  UNL     1      45.633  28.154  57.641  1.00  0.00    -0.248 OA
ATOM     21  H2  UNL     1      45.156  27.337  57.551  1.00  0.00     0.253 HD
ENDBRANCH  19  20
ENDBRANCH   7  19
BRANCH   1  22
HETATM   22  C2  UNL     1      44.733  34.507  58.289  1.00  0.00    -0.030 C 
HETATM   23  C1  UNL     1      45.344  35.672  58.392  1.00  0.00     0.007 C 
ENDBRANCH   1  22
BRANCH   2  24
HETATM   24  N1  UNL     1      42.709  34.244  56.124  1.00  0.00    -0.074 N 
ATOM     25  H13 UNL     1      42.224  34.206  55.227  1.00  0.00     0.274 HD
ATOM     26  H12 UNL     1      42.290  33.434  56.580  1.00  0.00     0.274 HD
ATOM     27  H11 UNL     1      42.471  35.100  56.624  1.00  0.00     0.274 HD
ENDBRANCH   2  24
TORSDOF 6
ENDMDL
MODEL 4
REMARK VINA RESULT: -6.886099359      3.546      6.367
REMARK  6 active torsions:
REMARK  status: ('A' for Active; 'I' for Inactive)
REMARK    1  A    between atoms: C2_2  and  C3_3 
REMARK    2  A    between atoms: C4_4  and  N1_5 
REMARK    3  A    between atoms: C9_13  and  O1_14 
REMARK    4  A    between atoms: O1_14  and  O2_15 
REMARK    5  A    between atoms: C10_18  and  C11_19 
REMARK    6  A    between atoms: C13_22  and  O5_23 
ROOT
HETATM    1  C3  UNL     1      44.764  29.871  56.543  1.00  0.00     0.043 C 
HETATM    2  C4  UNL     1      45.049  30.006  55.071  1.00  0.00     0.191 C 
HETATM    3  C5  UNL     1      43.864  30.602  54.345  1.00  0.00     0.034 C 
HETATM    4  C6  UNL     1      43.283  31.799  55.000  1.00  0.00     0.017 C 
HETATM    5  C7  UNL     1      43.052  31.670  56.487  1.00  0.00     0.013 C 
HETATM    6  C8  UNL     1      41.958  30.642  56.684  1.00  0.00     0.020 C 
HETATM    7  C9  UNL     1      42.649  32.978  57.079  1.00  0.00     0.305 C 
HETATM    8  O3  UNL     1      43.395  33.455  58.103  1.00  0.00    -0.348 OA
HETATM    9  C10 UNL     1      44.717  33.255  58.157  1.00  0.00     0.160 C 
HETATM   10  C15 UNL     1      45.258  32.283  57.116  1.00  0.00     0.043 C 
HETATM   11  C16 UNL     1      44.297  31.115  57.173  1.00  0.00     0.011 C 
ENDROOT
BRANCH   9  12
HETATM   12  C11 UNL     1      45.449  34.545  58.036  1.00  0.00    -0.002 A 
HETATM   13  C12 UNL     1      46.381  35.094  58.913  1.00  0.00     0.154 A 
HETATM   14  O4  UNL     1      46.797  36.258  58.440  1.00  0.00    -0.300 OA
HETATM   15  C13 UNL     1      46.212  36.529  57.305  1.00  0.00     0.183 A 
HETATM   16  C14 UNL     1      45.355  35.475  57.015  1.00  0.00     0.075 A 
BRANCH  15  17
HETATM   17  O5  UNL     1      46.404  37.660  56.523  1.00  0.00    -0.341 OA
ATOM     18  H5  UNL     1      46.046  37.819  55.657  1.00  0.00     0.220 HD
ENDBRANCH  15  17
ENDBRANCH   9  12
BRANCH   7  19
HETATM   19  O1  UNL     1      41.319  32.903  57.526  1.00  0.00    -0.209 OA
BRANCH  19  20
HETATM   20  O2  UNL     1      40.463  33.400  56.678  1.00  0.00    -0.248 OA
ATOM     21  H2  UNL     1      39.595  33.515  57.046  1.00  0.00     0.253 HD
ENDBRANCH  19  20
ENDBRANCH   7  19
BRANCH   1  22
HETATM   22  C2  UNL     1      45.845  29.203  57.264  1.00  0.00    -0.030 C 
HETATM   23  C1  UNL     1      46.337  28.004  57.017  1.00  0.00     0.007 C 
ENDBRANCH   1  22
BRANCH   2  24
HETATM   24  N1  UNL     1      46.214  30.790  54.774  1.00  0.00    -0.074 N 
ATOM     25  H13 UNL     1      46.912  30.226  54.289  1.00  0.00     0.274 HD
ATOM     26  H12 UNL     1      46.010  31.474  54.046  1.00  0.00     0.274 HD
ATOM     27  H11 UNL     1      46.624  31.246  55.588  1.00  0.00     0.274 HD
ENDBRANCH   2  24
TORSDOF 6
ENDMDL
MODEL 5
REMARK VINA RESULT: -6.814965064      2.850      3.837
REMARK  6 active torsions:
REMARK  status: ('A' for Active; 'I' for Inactive)
REMARK    1  A    between atoms: C2_2  and  C3_3 
REMARK    2  A    between atoms: C4_4  and  N1_5 
REMARK    3  A    between atoms: C9_13  and  O1_14 
REMARK    4  A    between atoms: O1_14  and  O2_15 
REMARK    5  A    between atoms: C10_18  and  C11_19 
REMARK    6  A    between atoms: C13_22  and  O5_23 
ROOT
HETATM    1  C3  UNL     1      45.759  34.392  57.288  1.00  0.00     0.043 C 
HETATM    2  C4  UNL     1      44.933  35.648  57.374  1.00  0.00     0.191 C 
HETATM    3  C5  UNL     1      44.245  35.933  56.058  1.00  0.00     0.034 C 
HETATM    4  C6  UNL     1      43.569  34.760  55.454  1.00  0.00     0.017 C 
HETATM    5  C7  UNL     1      44.389  33.492  55.421  1.00  0.00     0.013 C 
HETATM    6  C8  UNL     1      45.536  33.723  54.461  1.00  0.00     0.020 C 
HETATM    7  C9  UNL     1      43.561  32.334  54.973  1.00  0.00     0.305 C 
HETATM    8  O3  UNL     1      43.500  31.258  55.793  1.00  0.00    -0.348 OA
HETATM    9  C10 UNL     1      43.515  31.391  57.124  1.00  0.00     0.160 C 
HETATM   10  C15 UNL     1      43.824  32.798  57.620  1.00  0.00     0.043 C 
HETATM   11  C16 UNL     1      45.013  33.227  56.788  1.00  0.00     0.011 C 
ENDROOT
BRANCH   9  12
HETATM   12  C11 UNL     1      42.222  30.947  57.711  1.00  0.00    -0.002 A 
HETATM   13  C12 UNL     1      41.841  30.935  59.051  1.00  0.00     0.154 A 
HETATM   14  O4  UNL     1      40.609  30.465  59.153  1.00  0.00    -0.300 OA
HETATM   15  C13 UNL     1      40.133  30.163  57.976  1.00  0.00     0.183 A 
HETATM   16  C14 UNL     1      41.117  30.451  57.040  1.00  0.00     0.075 A 
BRANCH  15  17
HETATM   17  O5  UNL     1      38.874  29.646  57.698  1.00  0.00    -0.341 OA
ATOM     18  H5  UNL     1      38.082  30.143  57.530  1.00  0.00     0.220 HD
ENDBRANCH  15  17
ENDBRANCH   9  12
BRANCH   7  19
HETATM   19  O1  UNL     1      44.016  31.886  53.722  1.00  0.00    -0.209 OA
BRANCH  19  20
HETATM   20  O2  UNL     1      43.122  31.998  52.781  1.00  0.00    -0.248 OA
ATOM     21  H2  UNL     1      42.234  32.062  53.113  1.00  0.00     0.253 HD
ENDBRANCH  19  20
ENDBRANCH   7  19
BRANCH   1  22
HETATM   22  C2  UNL     1      46.521  34.137  58.507  1.00  0.00    -0.030 C 
HETATM   23  C1  UNL     1      47.335  34.976  59.120  1.00  0.00     0.007 C 
ENDBRANCH   1  22
BRANCH   2  24
HETATM   24  N1  UNL     1      43.945  35.624  58.415  1.00  0.00    -0.074 N 
ATOM     25  H13 UNL     1      44.233  34.999  59.168  1.00  0.00     0.274 HD
ATOM     26  H12 UNL     1      43.934  36.509  58.920  1.00  0.00     0.274 HD
ATOM     27  H11 UNL     1      43.009  35.385  58.089  1.00  0.00     0.274 HD
ENDBRANCH   2  24
TORSDOF 6
ENDMDL
