MODEL 1
REMARK VINA RESULT: -8.121737998      0.000      0.000
REMARK  11 active torsions:
REMARK  status: ('A' for Active; 'I' for Inactive)
REMARK    1  A    between atoms: C2_2  and  C3_3 
REMARK    2  A    between atoms: N2_9  and  C6_10 
REMARK    3  A    between atoms: C6_10  and  C7_11 
REMARK    4  A    between atoms: C7_11  and  C8_12 
REMARK    5  A    between atoms: C8_12  and  C9_13 
REMARK    6  A    between atoms: C9_13  and  N3_14 
REMARK    7  A    between atoms: C12_17  and  C13_18 
REMARK    8  A    between atoms: C13_18  and  C14_19 
REMARK    9  A    between atoms: C15_20  and  C16_21 
REMARK   10  A    between atoms: C16_21  and  C19_24 
REMARK   11  A    between atoms: C19_24  and  O2_25 
ROOT
HETATM    1  C7  UNL     1      15.262 -14.083  20.367  1.00  0.00     0.024 C 
ENDROOT
BRANCH   1   2
HETATM    2  C6  UNL     1      14.705 -12.985  19.492  1.00  0.00     0.156 C 
BRANCH   2   3
HETATM    3  N2  UNL     1      14.123 -11.987  20.375  1.00  0.00    -0.225 N 
HETATM    4  C5  UNL     1      14.735 -10.772  20.407  1.00  0.00     0.344 A 
HETATM    5  N1  UNL     1      14.276  -9.793  21.184  1.00  0.00    -0.291 N 
HETATM    6  O1  UNL     1      15.768 -10.565  19.680  1.00  0.00    -0.245 OA
HETATM    7  C4  UNL     1      13.166 -10.004  21.970  1.00  0.00     0.146 A 
ATOM      8  H1  UNL     1      14.747  -8.888  21.197  1.00  0.00     0.172 HD
HETATM    9  C3  UNL     1      12.748  -9.024  22.717  1.00  0.00     0.025 C 
HETATM   10  N5  UNL     1      12.606 -11.207  21.901  1.00  0.00    -0.170 N 
HETATM   11  N4  UNL     1      13.070 -12.204  21.113  1.00  0.00    -0.210 N 
HETATM   12  N6  UNL     1      11.593 -11.484  22.577  1.00  0.00    -0.321 N 
HETATM   13  C22 UNL     1      12.403 -13.474  21.131  1.00  0.00     0.202 C 
ATOM     14  H62 UNL     1      11.243 -10.732  23.171  1.00  0.00     0.179 HD
ATOM     15  H61 UNL     1      11.162 -12.407  22.525  1.00  0.00     0.179 HD
BRANCH   9  16
HETATM   16  C2  UNL     1      11.610  -8.971  23.635  1.00  0.00     0.026 C 
HETATM   17  C1  UNL     1      11.717  -7.736  24.520  1.00  0.00     0.009 C 
ENDBRANCH   9  16
ENDBRANCH   2   3
ENDBRANCH   1   2
BRANCH   1  18
HETATM   18  C8  UNL     1      16.369 -13.590  21.265  1.00  0.00     0.022 C 
BRANCH  18  19
HETATM   19  C9  UNL     1      17.730 -14.057  20.819  1.00  0.00     0.128 C 
BRANCH  19  20
HETATM   20  N3  UNL     1      18.640 -13.830  21.938  1.00  0.00    -0.366 N 
HETATM   21  C10 UNL     1      18.211 -13.927  23.209  1.00  0.00     0.091 A 
HETATM   22  C11 UNL     1      19.038 -13.721  24.291  1.00  0.00     0.025 A 
HETATM   23  C12 UNL     1      20.367 -13.399  24.102  1.00  0.00    -0.044 A 
HETATM   24  C20 UNL     1      20.807 -13.299  22.795  1.00  0.00     0.025 A 
HETATM   25  C21 UNL     1      19.934 -13.517  21.744  1.00  0.00     0.091 A 
BRANCH  23  26
HETATM   26  C13 UNL     1      21.269 -13.174  25.260  1.00  0.00     0.132 C 
BRANCH  26  27
HETATM   27  C14 UNL     1      21.723 -14.484  25.724  1.00  0.00    -0.101 C 
HETATM   28  C15 UNL     1      22.095 -15.568  26.085  1.00  0.00    -0.095 C 
BRANCH  28  29
HETATM   29  C16 UNL     1      22.540 -16.893  26.500  1.00  0.00     0.037 C 
HETATM   30  C17 UNL     1      23.205 -16.773  27.858  1.00  0.00     0.031 C 
HETATM   31  C18 UNL     1      21.347 -17.804  26.537  1.00  0.00     0.031 C 
BRANCH  29  32
HETATM   32  C19 UNL     1      23.579 -17.355  25.503  1.00  0.00     0.185 C 
BRANCH  32  33
HETATM   33  O2  UNL     1      24.786 -16.711  25.630  1.00  0.00    -0.399 OA
ATOM     34  H2  UNL     1      24.795 -15.843  25.244  1.00  0.00     0.209 HD
ENDBRANCH  32  33
ENDBRANCH  29  32
ENDBRANCH  28  29
ENDBRANCH  26  27
ENDBRANCH  23  26
ENDBRANCH  19  20
ENDBRANCH  18  19
ENDBRANCH   1  18
TORSDOF 11
ENDMDL
MODEL 2
REMARK VINA RESULT: -8.066758088      1.183      1.430
REMARK  11 active torsions:
REMARK  status: ('A' for Active; 'I' for Inactive)
REMARK    1  A    between atoms: C2_2  and  C3_3 
REMARK    2  A    between atoms: N2_9  and  C6_10 
REMARK    3  A    between atoms: C6_10  and  C7_11 
REMARK    4  A    between atoms: C7_11  and  C8_12 
REMARK    5  A    between atoms: C8_12  and  C9_13 
REMARK    6  A    between atoms: C9_13  and  N3_14 
REMARK    7  A    between atoms: C12_17  and  C13_18 
REMARK    8  A    between atoms: C13_18  and  C14_19 
REMARK    9  A    between atoms: C15_20  and  C16_21 
REMARK   10  A    between atoms: C16_21  and  C19_24 
REMARK   11  A    between atoms: C19_24  and  O2_25 
ROOT
HETATM    1  C7  UNL     1      15.535 -14.282  19.791  1.00  0.00     0.024 C 
ENDROOT
BRANCH   1   2
HETATM    2  C6  UNL     1      15.063 -13.090  18.991  1.00  0.00     0.156 C 
BRANCH   2   3
HETATM    3  N2  UNL     1      14.414 -12.180  19.921  1.00  0.00    -0.225 N 
HETATM    4  C5  UNL     1      15.019 -10.978  20.117  1.00  0.00     0.344 A 
HETATM    5  N1  UNL     1      14.501 -10.076  20.949  1.00  0.00    -0.291 N 
HETATM    6  O1  UNL     1      16.104 -10.706  19.494  1.00  0.00    -0.245 OA
HETATM    7  C4  UNL     1      13.335 -10.356  21.624  1.00  0.00     0.146 A 
ATOM      8  H1  UNL     1      14.967  -9.179  21.085  1.00  0.00     0.172 HD
HETATM    9  C3  UNL     1      12.860  -9.451  22.429  1.00  0.00     0.025 C 
HETATM   10  N5  UNL     1      12.784 -11.544  21.396  1.00  0.00    -0.170 N 
HETATM   11  N4  UNL     1      13.308 -12.462  20.553  1.00  0.00    -0.210 N 
HETATM   12  N6  UNL     1      11.723 -11.880  21.963  1.00  0.00    -0.321 N 
HETATM   13  C22 UNL     1      12.645 -13.724  20.396  1.00  0.00     0.202 C 
ATOM     14  H62 UNL     1      11.327 -11.187  22.599  1.00  0.00     0.179 HD
ATOM     15  H61 UNL     1      11.299 -12.791  21.789  1.00  0.00     0.179 HD
BRANCH   9  16
HETATM   16  C2  UNL     1      11.655  -9.482  23.259  1.00  0.00     0.026 C 
HETATM   17  C1  UNL     1      11.688  -8.333  24.259  1.00  0.00     0.009 C 
ENDBRANCH   9  16
ENDBRANCH   2   3
ENDBRANCH   1   2
BRANCH   1  18
HETATM   18  C8  UNL     1      16.782 -13.977  20.585  1.00  0.00     0.022 C 
BRANCH  18  19
HETATM   19  C9  UNL     1      16.572 -14.114  22.071  1.00  0.00     0.128 C 
BRANCH  19  20
HETATM   20  N3  UNL     1      17.866 -13.878  22.702  1.00  0.00    -0.366 N 
HETATM   21  C10 UNL     1      18.028 -14.038  24.027  1.00  0.00     0.091 A 
HETATM   22  C11 UNL     1      19.234 -13.825  24.661  1.00  0.00     0.025 A 
HETATM   23  C12 UNL     1      20.341 -13.430  23.938  1.00  0.00    -0.044 A 
HETATM   24  C20 UNL     1      20.173 -13.265  22.576  1.00  0.00     0.025 A 
HETATM   25  C21 UNL     1      18.941 -13.493  21.989  1.00  0.00     0.091 A 
BRANCH  23  26
HETATM   26  C13 UNL     1      21.646 -13.197  24.608  1.00  0.00     0.132 C 
BRANCH  26  27
HETATM   27  C14 UNL     1      22.434 -14.421  24.472  1.00  0.00    -0.101 C 
HETATM   28  C15 UNL     1      23.093 -15.420  24.377  1.00  0.00    -0.095 C 
BRANCH  28  29
HETATM   29  C16 UNL     1      23.912 -16.623  24.275  1.00  0.00     0.037 C 
HETATM   30  C17 UNL     1      23.995 -17.265  25.647  1.00  0.00     0.031 C 
HETATM   31  C18 UNL     1      23.287 -17.538  23.263  1.00  0.00     0.031 C 
BRANCH  29  32
HETATM   32  C19 UNL     1      25.304 -16.190  23.870  1.00  0.00     0.185 C 
BRANCH  32  33
HETATM   33  O2  UNL     1      25.393 -14.856  23.553  1.00  0.00    -0.399 OA
ATOM     34  H2  UNL     1      24.779 -14.584  22.881  1.00  0.00     0.209 HD
ENDBRANCH  32  33
ENDBRANCH  29  32
ENDBRANCH  28  29
ENDBRANCH  26  27
ENDBRANCH  23  26
ENDBRANCH  19  20
ENDBRANCH  18  19
ENDBRANCH   1  18
TORSDOF 11
ENDMDL
MODEL 3
REMARK VINA RESULT: -8.024203916      0.569      1.306
REMARK  11 active torsions:
REMARK  status: ('A' for Active; 'I' for Inactive)
REMARK    1  A    between atoms: C2_2  and  C3_3 
REMARK    2  A    between atoms: N2_9  and  C6_10 
REMARK    3  A    between atoms: C6_10  and  C7_11 
REMARK    4  A    between atoms: C7_11  and  C8_12 
REMARK    5  A    between atoms: C8_12  and  C9_13 
REMARK    6  A    between atoms: C9_13  and  N3_14 
REMARK    7  A    between atoms: C12_17  and  C13_18 
REMARK    8  A    between atoms: C13_18  and  C14_19 
REMARK    9  A    between atoms: C15_20  and  C16_21 
REMARK   10  A    between atoms: C16_21  and  C19_24 
REMARK   11  A    between atoms: C19_24  and  O2_25 
ROOT
HETATM    1  C7  UNL     1      15.247 -14.060  20.422  1.00  0.00     0.024 C 
ENDROOT
BRANCH   1   2
HETATM    2  C6  UNL     1      14.654 -12.982  19.544  1.00  0.00     0.156 C 
BRANCH   2   3
HETATM    3  N2  UNL     1      14.082 -11.977  20.426  1.00  0.00    -0.225 N 
HETATM    4  C5  UNL     1      14.690 -10.761  20.438  1.00  0.00     0.344 A 
HETATM    5  N1  UNL     1      14.239  -9.776  21.213  1.00  0.00    -0.291 N 
HETATM    6  O1  UNL     1      15.713 -10.558  19.695  1.00  0.00    -0.245 OA
HETATM    7  C4  UNL     1      13.140  -9.983  22.015  1.00  0.00     0.146 A 
ATOM      8  H1  UNL     1      14.707  -8.869  21.210  1.00  0.00     0.172 HD
HETATM    9  C3  UNL     1      12.730  -8.997  22.759  1.00  0.00     0.025 C 
HETATM   10  N5  UNL     1      12.583 -11.188  21.966  1.00  0.00    -0.170 N 
HETATM   11  N4  UNL     1      13.040 -12.191  21.181  1.00  0.00    -0.210 N 
HETATM   12  N6  UNL     1      11.580 -11.462  22.658  1.00  0.00    -0.321 N 
HETATM   13  C22 UNL     1      12.378 -13.463  21.220  1.00  0.00     0.202 C 
ATOM     14  H62 UNL     1      11.236 -10.706  23.250  1.00  0.00     0.179 HD
ATOM     15  H61 UNL     1      11.152 -12.387  22.620  1.00  0.00     0.179 HD
BRANCH   9  16
HETATM   16  C2  UNL     1      11.605  -8.940  23.692  1.00  0.00     0.026 C 
HETATM   17  C1  UNL     1      11.686  -7.665  24.522  1.00  0.00     0.009 C 
ENDBRANCH   9  16
ENDBRANCH   2   3
ENDBRANCH   1   2
BRANCH   1  18
HETATM   18  C8  UNL     1      16.369 -13.538  21.285  1.00  0.00     0.022 C 
BRANCH  18  19
HETATM   19  C9  UNL     1      17.715 -14.078  20.876  1.00  0.00     0.128 C 
BRANCH  19  20
HETATM   20  N3  UNL     1      18.614 -13.869  22.007  1.00  0.00    -0.366 N 
HETATM   21  C10 UNL     1      19.899 -13.525  21.814  1.00  0.00     0.091 A 
HETATM   22  C11 UNL     1      20.779 -13.319  22.854  1.00  0.00     0.025 A 
HETATM   23  C12 UNL     1      20.359 -13.464  24.161  1.00  0.00    -0.044 A 
HETATM   24  C20 UNL     1      19.037 -13.818  24.358  1.00  0.00     0.025 A 
HETATM   25  C21 UNL     1      18.195 -14.012  23.278  1.00  0.00     0.091 A 
BRANCH  23  26
HETATM   26  C13 UNL     1      21.297 -13.245  25.292  1.00  0.00     0.132 C 
BRANCH  26  27
HETATM   27  C14 UNL     1      21.746 -14.560  25.750  1.00  0.00    -0.101 C 
HETATM   28  C15 UNL     1      22.127 -15.641  26.108  1.00  0.00    -0.095 C 
BRANCH  28  29
HETATM   29  C16 UNL     1      22.598 -16.958  26.519  1.00  0.00     0.037 C 
HETATM   30  C17 UNL     1      21.440 -17.934  26.425  1.00  0.00     0.031 C 
HETATM   31  C18 UNL     1      23.740 -17.353  25.628  1.00  0.00     0.031 C 
BRANCH  29  32
HETATM   32  C19 UNL     1      23.016 -16.857  27.970  1.00  0.00     0.185 C 
BRANCH  32  33
HETATM   33  O2  UNL     1      23.635 -15.671  28.281  1.00  0.00    -0.399 OA
ATOM     34  H2  UNL     1      23.151 -15.141  28.903  1.00  0.00     0.209 HD
ENDBRANCH  32  33
ENDBRANCH  29  32
ENDBRANCH  28  29
ENDBRANCH  26  27
ENDBRANCH  23  26
ENDBRANCH  19  20
ENDBRANCH  18  19
ENDBRANCH   1  18
TORSDOF 11
ENDMDL
MODEL 4
REMARK VINA RESULT: -7.910085218      0.942      1.340
REMARK  11 active torsions:
REMARK  status: ('A' for Active; 'I' for Inactive)
REMARK    1  A    between atoms: C2_2  and  C3_3 
REMARK    2  A    between atoms: N2_9  and  C6_10 
REMARK    3  A    between atoms: C6_10  and  C7_11 
REMARK    4  A    between atoms: C7_11  and  C8_12 
REMARK    5  A    between atoms: C8_12  and  C9_13 
REMARK    6  A    between atoms: C9_13  and  N3_14 
REMARK    7  A    between atoms: C12_17  and  C13_18 
REMARK    8  A    between atoms: C13_18  and  C14_19 
REMARK    9  A    between atoms: C15_20  and  C16_21 
REMARK   10  A    between atoms: C16_21  and  C19_24 
REMARK   11  A    between atoms: C19_24  and  O2_25 
ROOT
HETATM    1  C7  UNL     1      15.420 -14.206  19.823  1.00  0.00     0.024 C 
ENDROOT
BRANCH   1   2
HETATM    2  C6  UNL     1      14.844 -13.048  19.042  1.00  0.00     0.156 C 
BRANCH   2   3
HETATM    3  N2  UNL     1      14.246 -12.137  20.005  1.00  0.00    -0.225 N 
HETATM    4  C5  UNL     1      14.861 -10.936  20.169  1.00  0.00     0.344 A 
HETATM    5  N1  UNL     1      14.388 -10.034  21.027  1.00  0.00    -0.291 N 
HETATM    6  O1  UNL     1      15.912 -10.665  19.489  1.00  0.00    -0.245 OA
HETATM    7  C4  UNL     1      13.260 -10.314  21.763  1.00  0.00     0.146 A 
ATOM      8  H1  UNL     1      14.862  -9.137  21.139  1.00  0.00     0.172 HD
HETATM    9  C3  UNL     1      12.829  -9.408  22.592  1.00  0.00     0.025 C 
HETATM   10  N5  UNL     1      12.697 -11.501  21.565  1.00  0.00    -0.170 N 
HETATM   11  N4  UNL     1      13.175 -12.419  20.695  1.00  0.00    -0.210 N 
HETATM   12  N6  UNL     1      11.667 -11.836  22.188  1.00  0.00    -0.321 N 
HETATM   13  C22 UNL     1      12.503 -13.681  20.574  1.00  0.00     0.202 C 
ATOM     14  H62 UNL     1      11.307 -11.143  22.844  1.00  0.00     0.179 HD
ATOM     15  H61 UNL     1      11.234 -12.747  22.036  1.00  0.00     0.179 HD
BRANCH   9  16
HETATM   16  C2  UNL     1      11.670  -9.439  23.486  1.00  0.00     0.026 C 
HETATM   17  C1  UNL     1      11.623  -8.160  24.313  1.00  0.00     0.009 C 
ENDBRANCH   9  16
ENDBRANCH   2   3
ENDBRANCH   1   2
BRANCH   1  18
HETATM   18  C8  UNL     1      16.778 -13.886  20.398  1.00  0.00     0.022 C 
BRANCH  18  19
HETATM   19  C9  UNL     1      16.753 -13.732  21.896  1.00  0.00     0.128 C 
BRANCH  19  20
HETATM   20  N3  UNL     1      18.142 -13.664  22.335  1.00  0.00    -0.366 N 
HETATM   21  C10 UNL     1      18.455 -13.678  23.643  1.00  0.00     0.091 A 
HETATM   22  C11 UNL     1      19.755 -13.616  24.098  1.00  0.00     0.025 A 
HETATM   23  C12 UNL     1      20.803 -13.533  23.205  1.00  0.00    -0.044 A 
HETATM   24  C20 UNL     1      20.480 -13.518  21.861  1.00  0.00     0.025 A 
HETATM   25  C21 UNL     1      19.159 -13.584  21.457  1.00  0.00     0.091 A 
BRANCH  23  26
HETATM   26  C13 UNL     1      22.208 -13.465  23.682  1.00  0.00     0.132 C 
BRANCH  26  27
HETATM   27  C14 UNL     1      22.520 -14.748  24.311  1.00  0.00    -0.101 C 
HETATM   28  C15 UNL     1      22.757 -15.800  24.839  1.00  0.00    -0.095 C 
BRANCH  28  29
HETATM   29  C16 UNL     1      23.028 -17.073  25.497  1.00  0.00     0.037 C 
HETATM   30  C17 UNL     1      22.222 -18.154  24.803  1.00  0.00     0.031 C 
HETATM   31  C18 UNL     1      24.504 -17.339  25.426  1.00  0.00     0.031 C 
BRANCH  29  32
HETATM   32  C19 UNL     1      22.538 -16.958  26.924  1.00  0.00     0.185 C 
BRANCH  32  33
HETATM   33  O2  UNL     1      23.113 -15.923  27.620  1.00  0.00    -0.399 OA
ATOM     34  H2  UNL     1      22.481 -15.338  28.020  1.00  0.00     0.209 HD
ENDBRANCH  32  33
ENDBRANCH  29  32
ENDBRANCH  28  29
ENDBRANCH  26  27
ENDBRANCH  23  26
ENDBRANCH  19  20
ENDBRANCH  18  19
ENDBRANCH   1  18
TORSDOF 11
ENDMDL
MODEL 5
REMARK VINA RESULT: -7.729269717      1.912      2.313
REMARK  11 active torsions:
REMARK  status: ('A' for Active; 'I' for Inactive)
REMARK    1  A    between atoms: C2_2  and  C3_3 
REMARK    2  A    between atoms: N2_9  and  C6_10 
REMARK    3  A    between atoms: C6_10  and  C7_11 
REMARK    4  A    between atoms: C7_11  and  C8_12 
REMARK    5  A    between atoms: C8_12  and  C9_13 
REMARK    6  A    between atoms: C9_13  and  N3_14 
REMARK    7  A    between atoms: C12_17  and  C13_18 
REMARK    8  A    between atoms: C13_18  and  C14_19 
REMARK    9  A    between atoms: C15_20  and  C16_21 
REMARK   10  A    between atoms: C16_21  and  C19_24 
REMARK   11  A    between atoms: C19_24  and  O2_25 
ROOT
HETATM    1  C7  UNL     1      15.416 -13.729  19.899  1.00  0.00     0.024 C 
ENDROOT
BRANCH   1   2
HETATM    2  C6  UNL     1      14.122 -13.254  19.279  1.00  0.00     0.156 C 
BRANCH   2   3
HETATM    3  N2  UNL     1      13.524 -12.308  20.207  1.00  0.00    -0.225 N 
HETATM    4  C5  UNL     1      13.687 -10.989  19.920  1.00  0.00     0.344 A 
HETATM    5  N1  UNL     1      13.176 -10.046  20.709  1.00  0.00    -0.291 N 
HETATM    6  O1  UNL     1      14.344 -10.645  18.875  1.00  0.00    -0.245 OA
HETATM    7  C4  UNL     1      12.469 -10.404  21.834  1.00  0.00     0.146 A 
ATOM      8  H1  UNL     1      13.308  -9.061  20.480  1.00  0.00     0.172 HD
HETATM    9  C3  UNL     1      11.985  -9.455  22.582  1.00  0.00     0.025 C 
HETATM   10  N5  UNL     1      12.338 -11.705  22.069  1.00  0.00    -0.170 N 
HETATM   11  N4  UNL     1      12.857 -12.665  21.269  1.00  0.00    -0.210 N 
HETATM   12  N6  UNL     1      11.708 -12.119  23.065  1.00  0.00    -0.321 N 
HETATM   13  C22 UNL     1      12.677 -14.042  21.627  1.00  0.00     0.202 C 
ATOM     14  H62 UNL     1      11.316 -11.395  23.668  1.00  0.00     0.179 HD
ATOM     15  H61 UNL     1      11.607 -13.118  23.246  1.00  0.00     0.179 HD
BRANCH   9  16
HETATM   16  C2  UNL     1      11.205  -9.547  23.816  1.00  0.00     0.026 C 
HETATM   17  C1  UNL     1      11.277  -8.226  24.572  1.00  0.00     0.009 C 
ENDBRANCH   9  16
ENDBRANCH   2   3
ENDBRANCH   1   2
BRANCH   1  18
HETATM   18  C8  UNL     1      16.626 -13.141  19.215  1.00  0.00     0.022 C 
BRANCH  18  19
HETATM   19  C9  UNL     1      17.211 -11.977  19.971  1.00  0.00     0.128 C 
BRANCH  19  20
HETATM   20  N3  UNL     1      18.293 -12.511  20.792  1.00  0.00    -0.366 N 
HETATM   21  C10 UNL     1      18.090 -12.822  22.085  1.00  0.00     0.091 A 
HETATM   22  C11 UNL     1      19.085 -13.328  22.893  1.00  0.00     0.025 A 
HETATM   23  C12 UNL     1      20.354 -13.534  22.392  1.00  0.00    -0.044 A 
HETATM   24  C20 UNL     1      20.561 -13.213  21.063  1.00  0.00     0.025 A 
HETATM   25  C21 UNL     1      19.527 -12.709  20.294  1.00  0.00     0.091 A 
BRANCH  23  26
HETATM   26  C13 UNL     1      21.435 -14.078  23.252  1.00  0.00     0.132 C 
BRANCH  26  27
HETATM   27  C14 UNL     1      20.931 -15.306  23.867  1.00  0.00    -0.101 C 
HETATM   28  C15 UNL     1      20.522 -16.306  24.392  1.00  0.00    -0.095 C 
BRANCH  28  29
HETATM   29  C16 UNL     1      20.039 -17.514  25.049  1.00  0.00     0.037 C 
HETATM   30  C17 UNL     1      20.067 -18.651  24.046  1.00  0.00     0.031 C 
HETATM   31  C18 UNL     1      20.915 -17.790  26.237  1.00  0.00     0.031 C 
BRANCH  29  32
HETATM   32  C19 UNL     1      18.600 -17.269  25.447  1.00  0.00     0.185 C 
BRANCH  32  33
HETATM   33  O2  UNL     1      18.223 -17.940  26.584  1.00  0.00    -0.399 OA
ATOM     34  H2  UNL     1      18.664 -18.774  26.696  1.00  0.00     0.209 HD
ENDBRANCH  32  33
ENDBRANCH  29  32
ENDBRANCH  28  29
ENDBRANCH  26  27
ENDBRANCH  23  26
ENDBRANCH  19  20
ENDBRANCH  18  19
ENDBRANCH   1  18
TORSDOF 11
ENDMDL
