MODEL 1
REMARK VINA RESULT: -7.735008390      0.000      0.000
REMARK  9 active torsions:
REMARK  status: ('A' for Active; 'I' for Inactive)
REMARK    1  A    between atoms: C4_4  and  C5_5 
REMARK    2  A    between atoms: C6_6  and  C7_7 
REMARK    3  A    between atoms: C7_7  and  C8_8 
REMARK    4  A    between atoms: C8_8  and  C9_9 
REMARK    5  A    between atoms: C10_10  and  N1_11 
REMARK    6  A    between atoms: N1_11  and  C11_12 
REMARK    7  A    between atoms: C11_12  and  C12_13 
REMARK    8  A    between atoms: C12_13  and  C13_14 
REMARK    9  A    between atoms: C14_17  and  C15_18 
ROOT
HETATM    1  C1  UNL     1      22.405 -16.229  26.496  1.00  0.00     0.027 C 
HETATM    2  C2  UNL     1      22.077 -15.586  25.520  1.00  0.00    -0.025 C 
HETATM    3  C3  UNL     1      21.695 -14.844  24.368  1.00  0.00    -0.002 C 
HETATM    4  C4  UNL     1      21.361 -14.227  23.383  1.00  0.00    -0.001 C 
ENDROOT
BRANCH   4   5
HETATM    5  C5  UNL     1      20.977 -13.517  22.212  1.00  0.00    -0.014 C 
HETATM    6  C6  UNL     1      20.636 -12.905  21.222  1.00  0.00    -0.092 C 
BRANCH   6   7
HETATM    7  C7  UNL     1      20.209 -12.148  20.039  1.00  0.00     0.098 C 
BRANCH   7   8
HETATM    8  C8  UNL     1      18.671 -12.037  20.164  1.00  0.00     0.040 C 
BRANCH   8   9
HETATM    9  C9  UNL     1      18.183 -13.411  20.400  1.00  0.00    -0.001 C 
HETATM   10  C10 UNL     1      16.842 -13.701  20.863  1.00  0.00     0.205 C 
BRANCH  10  11
HETATM   11  N1  UNL     1      15.623 -13.389  20.163  1.00  0.00     0.024 N 
HETATM   12  C14 UNL     1      14.746 -12.506  20.824  1.00  0.00     0.326 C 
HETATM   13  C16 UNL     1      13.316 -12.950  20.365  1.00  0.00     0.287 C 
HETATM   14  N3  UNL     1      13.467 -14.365  20.438  1.00  0.00    -0.017 N 
HETATM   15  C17 UNL     1      12.677 -15.065  19.421  1.00  0.00     0.277 C 
HETATM   16  C18 UNL     1      12.736 -14.768  21.657  1.00  0.00     0.277 C 
HETATM   17  C19 UNL     1      14.827 -14.673  20.453  1.00  0.00     0.393 C 
HETATM   18  C20 UNL     1      15.277 -15.797  19.614  1.00  0.00     0.219 C 
HETATM   19  N5  UNL     1      15.120 -15.140  21.788  1.00  0.00    -0.284 N 
HETATM   20  N4  UNL     1      15.381 -16.960  20.461  1.00  0.00    -0.337 N 
HETATM   21  C21 UNL     1      15.177 -16.568  21.780  1.00  0.00     0.319 C 
ATOM     22  H4  UNL     1      15.573 -17.910  20.146  1.00  0.00     0.164 HD
HETATM   23  O4  UNL     1      15.064 -17.308  22.783  1.00  0.00    -0.247 OA
ATOM     24  H5  UNL     1      15.263 -14.546  22.605  1.00  0.00     0.168 HD
BRANCH  11  25
HETATM   25  C11 UNL     1      15.868 -13.279  18.811  1.00  0.00     0.258 C 
BRANCH  25  26
HETATM   26  C12 UNL     1      15.013 -12.796  17.740  1.00  0.00     0.128 C 
BRANCH  26  27
HETATM   27  C13 UNL     1      15.664 -11.567  17.084  1.00  0.00     0.232 C 
HETATM   28  N2  UNL     1      14.907 -10.873  16.118  1.00  0.00    -0.062 NA
HETATM   29  O1  UNL     1      16.803 -11.193  17.383  1.00  0.00    -0.277 OA
ENDBRANCH  26  27
ENDBRANCH  25  26
ENDBRANCH  11  25
BRANCH  12  30
HETATM   30  C15 UNL     1      14.707 -11.089  20.768  1.00  0.00     0.207 C 
HETATM   31  O2  UNL     1      15.289 -10.185  20.169  1.00  0.00    -0.646 OA
HETATM   32  O3  UNL     1      13.737 -10.469  21.629  1.00  0.00    -0.646 OA
ENDBRANCH  12  30
ENDBRANCH  10  11
ENDBRANCH   8   9
ENDBRANCH   7   8
ENDBRANCH   6   7
ENDBRANCH   4   5
TORSDOF 9
ENDMDL
MODEL 2
REMARK VINA RESULT: -7.278915352      2.183      3.914
REMARK  9 active torsions:
REMARK  status: ('A' for Active; 'I' for Inactive)
REMARK    1  A    between atoms: C4_4  and  C5_5 
REMARK    2  A    between atoms: C6_6  and  C7_7 
REMARK    3  A    between atoms: C7_7  and  C8_8 
REMARK    4  A    between atoms: C8_8  and  C9_9 
REMARK    5  A    between atoms: C10_10  and  N1_11 
REMARK    6  A    between atoms: N1_11  and  C11_12 
REMARK    7  A    between atoms: C11_12  and  C12_13 
REMARK    8  A    between atoms: C12_13  and  C13_14 
REMARK    9  A    between atoms: C14_17  and  C15_18 
ROOT
HETATM    1  C1  UNL     1      22.081 -13.918  23.863  1.00  0.00     0.027 C 
HETATM    2  C2  UNL     1      21.331 -13.612  22.959  1.00  0.00    -0.025 C 
HETATM    3  C3  UNL     1      20.449 -13.242  21.907  1.00  0.00    -0.002 C 
HETATM    4  C4  UNL     1      19.704 -12.910  21.013  1.00  0.00    -0.001 C 
ENDROOT
BRANCH   4   5
HETATM    5  C5  UNL     1      18.816 -12.507  19.978  1.00  0.00    -0.014 C 
HETATM    6  C6  UNL     1      18.045 -12.174  19.103  1.00  0.00    -0.092 C 
BRANCH   6   7
HETATM    7  C7  UNL     1      17.093 -11.776  18.058  1.00  0.00     0.098 C 
BRANCH   7   8
HETATM    8  C8  UNL     1      15.718 -11.726  18.764  1.00  0.00     0.040 C 
BRANCH   8   9
HETATM    9  C9  UNL     1      14.874 -12.729  18.082  1.00  0.00    -0.001 C 
HETATM   10  C10 UNL     1      14.804 -14.113  18.499  1.00  0.00     0.205 C 
BRANCH  10  11
HETATM   11  N1  UNL     1      14.332 -14.586  19.775  1.00  0.00     0.024 N 
HETATM   12  C14 UNL     1      15.330 -14.934  20.707  1.00  0.00     0.326 C 
HETATM   13  C16 UNL     1      14.697 -16.088  21.554  1.00  0.00     0.287 C 
HETATM   14  N3  UNL     1      14.070 -16.835  20.515  1.00  0.00    -0.017 N 
HETATM   15  C17 UNL     1      12.831 -17.482  20.959  1.00  0.00     0.277 C 
HETATM   16  C18 UNL     1      14.928 -18.023  20.323  1.00  0.00     0.277 C 
HETATM   17  C19 UNL     1      13.948 -16.024  19.388  1.00  0.00     0.393 C 
HETATM   18  C20 UNL     1      12.672 -16.071  18.653  1.00  0.00     0.219 C 
HETATM   19  N5  UNL     1      14.888 -16.537  18.418  1.00  0.00    -0.284 N 
HETATM   20  N4  UNL     1      12.844 -16.967  17.535  1.00  0.00    -0.337 N 
HETATM   21  C21 UNL     1      14.183 -17.334  17.462  1.00  0.00     0.319 C 
ATOM     22  H4  UNL     1      12.106 -17.279  16.905  1.00  0.00     0.164 HD
HETATM   23  O4  UNL     1      14.695 -18.193  16.710  1.00  0.00    -0.247 OA
ATOM     24  H5  UNL     1      15.892 -16.361  18.416  1.00  0.00     0.168 HD
BRANCH  11  25
HETATM   25  C11 UNL     1      13.210 -13.882  20.155  1.00  0.00     0.258 C 
BRANCH  25  26
HETATM   26  C12 UNL     1      12.736 -13.519  21.480  1.00  0.00     0.128 C 
BRANCH  26  27
HETATM   27  C13 UNL     1      12.606 -11.990  21.572  1.00  0.00     0.232 C 
HETATM   28  N2  UNL     1      12.230 -11.447  22.817  1.00  0.00    -0.062 NA
HETATM   29  O1  UNL     1      12.818 -11.256  20.601  1.00  0.00    -0.277 OA
ENDBRANCH  26  27
ENDBRANCH  25  26
ENDBRANCH  11  25
BRANCH  12  30
HETATM   30  C15 UNL     1      15.974 -14.109  21.665  1.00  0.00     0.207 C 
HETATM   31  O2  UNL     1      15.913 -12.942  22.048  1.00  0.00    -0.646 OA
HETATM   32  O3  UNL     1      16.997 -14.756  22.441  1.00  0.00    -0.646 OA
ENDBRANCH  12  30
ENDBRANCH  10  11
ENDBRANCH   8   9
ENDBRANCH   7   8
ENDBRANCH   6   7
ENDBRANCH   4   5
TORSDOF 9
ENDMDL
MODEL 3
REMARK VINA RESULT: -7.103882262      1.659      1.925
REMARK  9 active torsions:
REMARK  status: ('A' for Active; 'I' for Inactive)
REMARK    1  A    between atoms: C4_4  and  C5_5 
REMARK    2  A    between atoms: C6_6  and  C7_7 
REMARK    3  A    between atoms: C7_7  and  C8_8 
REMARK    4  A    between atoms: C8_8  and  C9_9 
REMARK    5  A    between atoms: C10_10  and  N1_11 
REMARK    6  A    between atoms: N1_11  and  C11_12 
REMARK    7  A    between atoms: C11_12  and  C12_13 
REMARK    8  A    between atoms: C12_13  and  C13_14 
REMARK    9  A    between atoms: C14_17  and  C15_18 
ROOT
HETATM    1  C1  UNL     1      22.791 -16.577  27.146  1.00  0.00     0.027 C 
HETATM    2  C2  UNL     1      22.146 -15.965  26.321  1.00  0.00    -0.025 C 
HETATM    3  C3  UNL     1      21.400 -15.239  25.350  1.00  0.00    -0.002 C 
HETATM    4  C4  UNL     1      20.780 -14.625  24.513  1.00  0.00    -0.001 C 
ENDROOT
BRANCH   4   5
HETATM    5  C5  UNL     1      20.068 -13.886  23.529  1.00  0.00    -0.014 C 
HETATM    6  C6  UNL     1      19.449 -13.271  22.686  1.00  0.00    -0.092 C 
BRANCH   6   7
HETATM    7  C7  UNL     1      18.683 -12.543  21.667  1.00  0.00     0.098 C 
BRANCH   7   8
HETATM    8  C8  UNL     1      17.228 -13.048  21.820  1.00  0.00     0.040 C 
BRANCH   8   9
HETATM    9  C9  UNL     1      17.192 -14.379  21.178  1.00  0.00    -0.001 C 
HETATM   10  C10 UNL     1      15.971 -15.138  21.012  1.00  0.00     0.205 C 
BRANCH  10  11
HETATM   11  N1  UNL     1      14.825 -14.735  20.238  1.00  0.00     0.024 N 
HETATM   12  C14 UNL     1      13.732 -14.238  20.975  1.00  0.00     0.326 C 
HETATM   13  C16 UNL     1      12.472 -14.645  20.139  1.00  0.00     0.287 C 
HETATM   14  N3  UNL     1      12.843 -15.970  19.772  1.00  0.00    -0.017 N 
HETATM   15  C17 UNL     1      12.327 -16.352  18.454  1.00  0.00     0.277 C 
HETATM   16  C18 UNL     1      12.027 -16.850  20.634  1.00  0.00     0.277 C 
HETATM   17  C19 UNL     1      14.220 -16.116  19.939  1.00  0.00     0.393 C 
HETATM   18  C20 UNL     1      14.961 -16.821  18.879  1.00  0.00     0.219 C 
HETATM   19  N5  UNL     1      14.398 -16.986  21.078  1.00  0.00    -0.284 N 
HETATM   20  N4  UNL     1      15.137 -18.188  19.303  1.00  0.00    -0.337 N 
HETATM   21  C21 UNL     1      14.691 -18.307  20.615  1.00  0.00     0.319 C 
ATOM     22  H4  UNL     1      15.524 -18.942  18.736  1.00  0.00     0.164 HD
HETATM   23  O4  UNL     1      14.563 -19.358  21.282  1.00  0.00    -0.247 OA
ATOM     24  H5  UNL     1      14.327 -16.703  22.056  1.00  0.00     0.168 HD
BRANCH  11  25
HETATM   25  C11 UNL     1      15.234 -14.133  19.067  1.00  0.00     0.258 C 
BRANCH  25  26
HETATM   26  C12 UNL     1      14.886 -12.837  18.509  1.00  0.00     0.128 C 
BRANCH  26  27
HETATM   27  C13 UNL     1      16.047 -11.855  18.742  1.00  0.00     0.232 C 
HETATM   28  N2  UNL     1      15.770 -10.693  19.491  1.00  0.00    -0.062 NA
HETATM   29  O1  UNL     1      17.179 -12.064  18.295  1.00  0.00    -0.277 OA
ENDBRANCH  26  27
ENDBRANCH  25  26
ENDBRANCH  11  25
BRANCH  12  30
HETATM   30  C15 UNL     1      13.469 -12.904  21.378  1.00  0.00     0.207 C 
HETATM   31  O2  UNL     1      14.029 -12.021  22.028  1.00  0.00    -0.646 OA
HETATM   32  O3  UNL     1      12.208 -12.369  20.939  1.00  0.00    -0.646 OA
ENDBRANCH  12  30
ENDBRANCH  10  11
ENDBRANCH   8   9
ENDBRANCH   7   8
ENDBRANCH   6   7
ENDBRANCH   4   5
TORSDOF 9
ENDMDL
MODEL 4
REMARK VINA RESULT: -6.902432156      3.489      5.616
REMARK  9 active torsions:
REMARK  status: ('A' for Active; 'I' for Inactive)
REMARK    1  A    between atoms: C4_4  and  C5_5 
REMARK    2  A    between atoms: C6_6  and  C7_7 
REMARK    3  A    between atoms: C7_7  and  C8_8 
REMARK    4  A    between atoms: C8_8  and  C9_9 
REMARK    5  A    between atoms: C10_10  and  N1_11 
REMARK    6  A    between atoms: N1_11  and  C11_12 
REMARK    7  A    between atoms: C11_12  and  C12_13 
REMARK    8  A    between atoms: C12_13  and  C13_14 
REMARK    9  A    between atoms: C14_17  and  C15_18 
ROOT
HETATM    1  C1  UNL     1      20.632 -11.594  17.218  1.00  0.00     0.027 C 
HETATM    2  C2  UNL     1      20.562 -11.981  18.366  1.00  0.00    -0.025 C 
HETATM    3  C3  UNL     1      20.467 -12.432  19.712  1.00  0.00    -0.002 C 
HETATM    4  C4  UNL     1      20.369 -12.823  20.853  1.00  0.00    -0.001 C 
ENDROOT
BRANCH   4   5
HETATM    5  C5  UNL     1      20.236 -13.270  22.196  1.00  0.00    -0.014 C 
HETATM    6  C6  UNL     1      20.104 -13.651  23.340  1.00  0.00    -0.092 C 
BRANCH   6   7
HETATM    7  C7  UNL     1      19.920 -14.119  24.719  1.00  0.00     0.098 C 
BRANCH   7   8
HETATM    8  C8  UNL     1      18.388 -14.162  24.930  1.00  0.00     0.040 C 
BRANCH   8   9
HETATM    9  C9  UNL     1      18.052 -15.580  25.173  1.00  0.00    -0.001 C 
HETATM   10  C10 UNL     1      17.108 -16.315  24.358  1.00  0.00     0.205 C 
BRANCH  10  11
HETATM   11  N1  UNL     1      17.244 -16.590  22.951  1.00  0.00     0.024 N 
HETATM   12  C14 UNL     1      16.478 -15.777  22.092  1.00  0.00     0.326 C 
HETATM   13  C16 UNL     1      16.142 -16.698  20.870  1.00  0.00     0.287 C 
HETATM   14  N3  UNL     1      15.831 -17.907  21.557  1.00  0.00    -0.017 N 
HETATM   15  C17 UNL     1      16.208 -19.099  20.790  1.00  0.00     0.277 C 
HETATM   16  C18 UNL     1      14.359 -18.015  21.498  1.00  0.00     0.277 C 
HETATM   17  C19 UNL     1      16.353 -17.839  22.848  1.00  0.00     0.393 C 
HETATM   18  C20 UNL     1      17.031 -19.039  23.370  1.00  0.00     0.219 C 
HETATM   19  N5  UNL     1      15.221 -17.708  23.734  1.00  0.00    -0.284 N 
HETATM   20  N4  UNL     1      16.083 -19.755  24.188  1.00  0.00    -0.337 N 
HETATM   21  C21 UNL     1      14.935 -18.981  24.318  1.00  0.00     0.319 C 
ATOM     22  H4  UNL     1      16.231 -20.676  24.601  1.00  0.00     0.164 HD
HETATM   23  O4  UNL     1      13.849 -19.316  24.843  1.00  0.00    -0.247 OA
ATOM     24  H5  UNL     1      14.707 -16.845  23.915  1.00  0.00     0.168 HD
BRANCH  11  25
HETATM   25  C11 UNL     1      18.551 -16.913  22.656  1.00  0.00     0.258 C 
BRANCH  25  26
HETATM   26  C12 UNL     1      19.265 -16.866  21.391  1.00  0.00     0.128 C 
BRANCH  26  27
HETATM   27  C13 UNL     1      20.768 -17.064  21.649  1.00  0.00     0.232 C 
HETATM   28  N2  UNL     1      21.549 -17.548  20.579  1.00  0.00    -0.062 NA
HETATM   29  O1  UNL     1      21.282 -16.814  22.744  1.00  0.00    -0.277 OA
ENDBRANCH  26  27
ENDBRANCH  25  26
ENDBRANCH  11  25
BRANCH  12  30
HETATM   30  C15 UNL     1      16.825 -14.532  21.507  1.00  0.00     0.207 C 
HETATM   31  O2  UNL     1      17.274 -14.122  20.438  1.00  0.00    -0.646 OA
HETATM   32  O3  UNL     1      16.619 -13.383  22.348  1.00  0.00    -0.646 OA
ENDBRANCH  12  30
ENDBRANCH  10  11
ENDBRANCH   8   9
ENDBRANCH   7   8
ENDBRANCH   6   7
ENDBRANCH   4   5
TORSDOF 9
ENDMDL
MODEL 5
REMARK VINA RESULT: -6.882713398      3.640      7.359
REMARK  9 active torsions:
REMARK  status: ('A' for Active; 'I' for Inactive)
REMARK    1  A    between atoms: C4_4  and  C5_5 
REMARK    2  A    between atoms: C6_6  and  C7_7 
REMARK    3  A    between atoms: C7_7  and  C8_8 
REMARK    4  A    between atoms: C8_8  and  C9_9 
REMARK    5  A    between atoms: C10_10  and  N1_11 
REMARK    6  A    between atoms: N1_11  and  C11_12 
REMARK    7  A    between atoms: C11_12  and  C12_13 
REMARK    8  A    between atoms: C12_13  and  C13_14 
REMARK    9  A    between atoms: C14_17  and  C15_18 
ROOT
HETATM    1  C1  UNL     1      12.538 -10.454  21.617  1.00  0.00     0.027 C 
HETATM    2  C2  UNL     1      13.668 -10.737  21.276  1.00  0.00    -0.025 C 
HETATM    3  C3  UNL     1      14.995 -11.057  20.876  1.00  0.00    -0.002 C 
HETATM    4  C4  UNL     1      16.130 -11.317  20.550  1.00  0.00    -0.001 C 
ENDROOT
BRANCH   4   5
HETATM    5  C5  UNL     1      17.468 -11.600  20.159  1.00  0.00    -0.014 C 
HETATM    6  C6  UNL     1      18.612 -11.824  19.825  1.00  0.00    -0.092 C 
BRANCH   6   7
HETATM    7  C7  UNL     1      20.004 -12.071  19.427  1.00  0.00     0.098 C 
BRANCH   7   8
HETATM    8  C8  UNL     1      20.600 -12.936  20.563  1.00  0.00     0.040 C 
BRANCH   8   9
HETATM    9  C9  UNL     1      19.756 -14.147  20.636  1.00  0.00    -0.001 C 
HETATM   10  C10 UNL     1      20.045 -15.255  21.521  1.00  0.00     0.205 C 
BRANCH  10  11
HETATM   11  N1  UNL     1      20.083 -15.197  22.960  1.00  0.00     0.024 N 
HETATM   12  C14 UNL     1      20.531 -16.365  23.608  1.00  0.00     0.326 C 
HETATM   13  C16 UNL     1      19.756 -16.385  24.969  1.00  0.00     0.287 C 
HETATM   14  N3  UNL     1      18.464 -15.989  24.517  1.00  0.00    -0.017 N 
HETATM   15  C17 UNL     1      17.738 -15.200  25.517  1.00  0.00     0.277 C 
HETATM   16  C18 UNL     1      17.657 -17.227  24.527  1.00  0.00     0.277 C 
HETATM   17  C19 UNL     1      18.588 -15.393  23.263  1.00  0.00     0.393 C 
HETATM   18  C20 UNL     1      17.814 -14.164  23.016  1.00  0.00     0.219 C 
HETATM   19  N5  UNL     1      18.014 -16.320  22.316  1.00  0.00    -0.284 N 
HETATM   20  N4  UNL     1      16.613 -14.538  22.310  1.00  0.00    -0.337 N 
HETATM   21  C21 UNL     1      16.694 -15.886  21.979  1.00  0.00     0.319 C 
ATOM     22  H4  UNL     1      15.834 -13.917  22.091  1.00  0.00     0.164 HD
HETATM   23  O4  UNL     1      15.797 -16.601  21.480  1.00  0.00    -0.247 OA
ATOM     24  H5  UNL     1      18.476 -17.152  21.948  1.00  0.00     0.168 HD
BRANCH  11  25
HETATM   25  C11 UNL     1      20.491 -13.946  23.372  1.00  0.00     0.258 C 
BRANCH  25  26
HETATM   26  C12 UNL     1      21.741 -13.521  23.977  1.00  0.00     0.128 C 
BRANCH  26  27
HETATM   27  C13 UNL     1      21.510 -13.231  25.470  1.00  0.00     0.232 C 
HETATM   28  N2  UNL     1      20.776 -12.072  25.797  1.00  0.00    -0.062 NA
HETATM   29  O1  UNL     1      21.946 -13.974  26.355  1.00  0.00    -0.277 OA
ENDBRANCH  26  27
ENDBRANCH  25  26
ENDBRANCH  11  25
BRANCH  12  30
HETATM   30  C15 UNL     1      21.857 -16.733  23.955  1.00  0.00     0.207 C 
HETATM   31  O2  UNL     1      22.499 -16.964  24.978  1.00  0.00    -0.646 OA
HETATM   32  O3  UNL     1      22.756 -16.897  22.844  1.00  0.00    -0.646 OA
ENDBRANCH  12  30
ENDBRANCH  10  11
ENDBRANCH   8   9
ENDBRANCH   7   8
ENDBRANCH   6   7
ENDBRANCH   4   5
TORSDOF 9
ENDMDL
