MODEL 1
REMARK VINA RESULT: -5.911530733      0.000      0.000
REMARK  9 active torsions:
REMARK  status: ('A' for Active; 'I' for Inactive)
REMARK    1  A    between atoms: C3_3  and  N1_4 
REMARK    2  A    between atoms: N1_4  and  C6_7 
REMARK    3  A    between atoms: C6_7  and  C7_8 
REMARK    4  A    between atoms: C7_8  and  C8_9 
REMARK    5  A    between atoms: C8_9  and  C10_11 
REMARK    6  A    between atoms: C14_16  and  C15_17 
REMARK    7  A    between atoms: C15_17  and  C16_18 
REMARK    8  A    between atoms: C16_18  and  O1_19 
REMARK    9  A    between atoms: N4_24  and  O2_25 
ROOT
HETATM    1  C1  UNL     1     -20.692   1.414  17.400  1.00  0.00     0.013 C 
HETATM    2  C2  UNL     1     -21.407   2.007  16.618  1.00  0.00    -0.089 C 
HETATM    3  C3  UNL     1     -22.265   2.693  15.677  1.00  0.00     0.328 C 
ENDROOT
BRANCH   3   4
HETATM    4  N1  UNL     1     -23.116   1.717  14.930  1.00  0.00    -0.065 N 
HETATM    5  C4  UNL     1     -23.347   2.359  13.659  1.00  0.00     0.273 C 
HETATM    6  C5  UNL     1     -22.294   0.535  14.791  1.00  0.00     0.273 C 
BRANCH   4   7
HETATM    7  C6  UNL     1     -24.263   1.533  15.747  1.00  0.00     0.238 C 
BRANCH   7   8
HETATM    8  C7  UNL     1     -25.593   1.490  15.118  1.00  0.00     0.040 C 
BRANCH   8   9
HETATM    9  C8  UNL     1     -26.664   2.388  15.704  1.00  0.00     0.051 C 
HETATM   10  C9  UNL     1     -27.797   2.374  14.665  1.00  0.00     0.018 C 
BRANCH   9  11
HETATM   11  C10 UNL     1     -27.159   1.883  17.011  1.00  0.00     0.089 A 
HETATM   12  N2  UNL     1     -26.993   2.524  18.102  1.00  0.00    -0.324 N 
HETATM   13  C11 UNL     1     -26.312   3.792  18.130  1.00  0.00     0.159 C 
HETATM   14  C12 UNL     1     -27.533   1.970  19.325  1.00  0.00     0.151 A 
HETATM   15  C13 UNL     1     -28.233   0.766  19.368  1.00  0.00     0.043 A 
HETATM   16  N4  UNL     1     -27.330   2.656  20.452  1.00  0.00    -0.193 N 
HETATM   17  C14 UNL     1     -28.741   0.239  20.558  1.00  0.00    -0.037 A 
HETATM   18  C19 UNL     1     -28.429   0.035  18.140  1.00  0.00     0.038 A 
HETATM   19  C17 UNL     1     -28.486   1.020  21.692  1.00  0.00     0.056 A 
HETATM   20  C18 UNL     1     -27.799   2.192  21.622  1.00  0.00     0.146 A 
HETATM   21  N3  UNL     1     -27.565   2.945  22.791  1.00  0.00    -0.080 NA
HETATM   22  C20 UNL     1     -29.057  -1.076  18.031  1.00  0.00     0.044 C 
HETATM   23  N5  UNL     1     -27.857   0.654  16.961  1.00  0.00    -0.345 N 
ATOM     24  H5  UNL     1     -27.961   0.185  16.062  1.00  0.00     0.167 HD
BRANCH  17  25
HETATM   25  C15 UNL     1     -29.480  -1.014  20.667  1.00  0.00     0.066 C 
BRANCH  25  26
HETATM   26  C16 UNL     1     -30.899  -0.633  21.171  1.00  0.00     0.168 C 
BRANCH  26  27
HETATM   27  O1  UNL     1     -31.331  -1.761  21.919  1.00  0.00    -0.401 OA
ATOM     28  H1  UNL     1     -32.225  -1.911  21.636  1.00  0.00     0.209 HD
ENDBRANCH  26  27
ENDBRANCH  25  26
ENDBRANCH  17  25
BRANCH  16  29
HETATM   29  O2  UNL     1     -26.614   3.858  20.470  1.00  0.00    -0.280 OA
ATOM     30  H2  UNL     1     -26.840   4.588  19.905  1.00  0.00     0.245 HD
ENDBRANCH  16  29
ENDBRANCH   9  11
ENDBRANCH   8   9
ENDBRANCH   7   8
ENDBRANCH   4   7
ENDBRANCH   3   4
TORSDOF 9
ENDMDL
MODEL 2
REMARK VINA RESULT: -5.820958944      2.519      3.587
REMARK  9 active torsions:
REMARK  status: ('A' for Active; 'I' for Inactive)
REMARK    1  A    between atoms: C3_3  and  N1_4 
REMARK    2  A    between atoms: N1_4  and  C6_7 
REMARK    3  A    between atoms: C6_7  and  C7_8 
REMARK    4  A    between atoms: C7_8  and  C8_9 
REMARK    5  A    between atoms: C8_9  and  C10_11 
REMARK    6  A    between atoms: C14_16  and  C15_17 
REMARK    7  A    between atoms: C15_17  and  C16_18 
REMARK    8  A    between atoms: C16_18  and  O1_19 
REMARK    9  A    between atoms: N4_24  and  O2_25 
ROOT
HETATM    1  C1  UNL     1     -29.864   0.470  13.614  1.00  0.00     0.013 C 
HETATM    2  C2  UNL     1     -28.655   0.573  13.665  1.00  0.00    -0.089 C 
HETATM    3  C3  UNL     1     -27.218   0.718  13.717  1.00  0.00     0.328 C 
ENDROOT
BRANCH   3   4
HETATM    4  N1  UNL     1     -26.820   2.139  13.473  1.00  0.00    -0.065 N 
HETATM    5  C4  UNL     1     -25.393   2.142  13.682  1.00  0.00     0.273 C 
HETATM    6  C5  UNL     1     -27.159   2.388  12.090  1.00  0.00     0.273 C 
BRANCH   4   7
HETATM    7  C6  UNL     1     -27.583   2.895  14.403  1.00  0.00     0.238 C 
BRANCH   7   8
HETATM    8  C7  UNL     1     -27.062   3.091  15.766  1.00  0.00     0.040 C 
BRANCH   8   9
HETATM    9  C8  UNL     1     -28.053   3.526  16.827  1.00  0.00     0.051 C 
HETATM   10  C9  UNL     1     -29.307   3.947  16.042  1.00  0.00     0.018 C 
BRANCH   9  11
HETATM   11  C10 UNL     1     -28.382   2.423  17.767  1.00  0.00     0.089 A 
HETATM   12  N2  UNL     1     -27.982   2.413  18.979  1.00  0.00    -0.324 N 
HETATM   13  C11 UNL     1     -27.184   3.484  19.514  1.00  0.00     0.159 C 
HETATM   14  C12 UNL     1     -28.372   1.311  19.831  1.00  0.00     0.151 A 
HETATM   15  C13 UNL     1     -29.172   0.257  19.392  1.00  0.00     0.043 A 
HETATM   16  N4  UNL     1     -27.927   1.319  21.090  1.00  0.00    -0.193 N 
HETATM   17  C14 UNL     1     -29.534  -0.805  20.224  1.00  0.00    -0.037 A 
HETATM   18  C19 UNL     1     -29.632   0.262  18.025  1.00  0.00     0.038 A 
HETATM   19  C17 UNL     1     -29.026  -0.718  21.527  1.00  0.00     0.056 A 
HETATM   20  C18 UNL     1     -28.247   0.322  21.930  1.00  0.00     0.146 A 
HETATM   21  N3  UNL     1     -27.758   0.367  23.252  1.00  0.00    -0.080 NA
HETATM   22  C20 UNL     1     -30.375  -0.634  17.491  1.00  0.00     0.044 C 
HETATM   23  N5  UNL     1     -29.195   1.396  17.236  1.00  0.00    -0.345 N 
ATOM     24  H5  UNL     1     -29.487   1.456  16.260  1.00  0.00     0.167 HD
BRANCH  17  25
HETATM   25  C15 UNL     1     -30.365  -1.933  19.823  1.00  0.00     0.066 C 
BRANCH  25  26
HETATM   26  C16 UNL     1     -29.577  -3.211  20.221  1.00  0.00     0.168 C 
BRANCH  26  27
HETATM   27  O1  UNL     1     -29.170  -3.784  18.987  1.00  0.00    -0.401 OA
ATOM     28  H1  UNL     1     -29.720  -4.552  18.884  1.00  0.00     0.209 HD
ENDBRANCH  26  27
ENDBRANCH  25  26
ENDBRANCH  17  25
BRANCH  16  29
HETATM   29  O2  UNL     1     -27.102   2.340  21.578  1.00  0.00    -0.280 OA
ATOM     30  H2  UNL     1     -26.199   2.435  21.298  1.00  0.00     0.245 HD
ENDBRANCH  16  29
ENDBRANCH   9  11
ENDBRANCH   8   9
ENDBRANCH   7   8
ENDBRANCH   4   7
ENDBRANCH   3   4
TORSDOF 9
ENDMDL
MODEL 3
REMARK VINA RESULT: -5.655392361      3.174      4.708
REMARK  9 active torsions:
REMARK  status: ('A' for Active; 'I' for Inactive)
REMARK    1  A    between atoms: C3_3  and  N1_4 
REMARK    2  A    between atoms: N1_4  and  C6_7 
REMARK    3  A    between atoms: C6_7  and  C7_8 
REMARK    4  A    between atoms: C7_8  and  C8_9 
REMARK    5  A    between atoms: C8_9  and  C10_11 
REMARK    6  A    between atoms: C14_16  and  C15_17 
REMARK    7  A    between atoms: C15_17  and  C16_18 
REMARK    8  A    between atoms: C16_18  and  O1_19 
REMARK    9  A    between atoms: N4_24  and  O2_25 
ROOT
HETATM    1  C1  UNL     1     -20.426   1.409  17.655  1.00  0.00     0.013 C 
HETATM    2  C2  UNL     1     -21.021   1.945  16.741  1.00  0.00    -0.089 C 
HETATM    3  C3  UNL     1     -21.737   2.562  15.647  1.00  0.00     0.328 C 
ENDROOT
BRANCH   3   4
HETATM    4  N1  UNL     1     -22.728   1.608  15.059  1.00  0.00    -0.065 N 
HETATM    5  C4  UNL     1     -23.139   2.247  13.833  1.00  0.00     0.273 C 
HETATM    6  C5  UNL     1     -21.976   0.399  14.808  1.00  0.00     0.273 C 
BRANCH   4   7
HETATM    7  C6  UNL     1     -23.734   1.471  16.052  1.00  0.00     0.238 C 
BRANCH   7   8
HETATM    8  C7  UNL     1     -25.124   1.819  15.718  1.00  0.00     0.040 C 
BRANCH   8   9
HETATM    9  C8  UNL     1     -26.143   1.746  16.837  1.00  0.00     0.051 C 
HETATM   10  C9  UNL     1     -26.230   3.181  17.382  1.00  0.00     0.018 C 
BRANCH   9  11
HETATM   11  C10 UNL     1     -27.474   1.300  16.350  1.00  0.00     0.089 A 
HETATM   12  N2  UNL     1     -28.393   0.897  17.138  1.00  0.00    -0.324 N 
HETATM   13  C11 UNL     1     -28.194   0.855  18.563  1.00  0.00     0.159 C 
HETATM   14  C12 UNL     1     -29.669   0.507  16.578  1.00  0.00     0.151 A 
HETATM   15  C13 UNL     1     -29.946   0.555  15.213  1.00  0.00     0.043 A 
HETATM   16  N4  UNL     1     -30.606   0.075  17.426  1.00  0.00    -0.193 N 
HETATM   17  C14 UNL     1     -31.179   0.167  14.686  1.00  0.00    -0.037 A 
HETATM   18  C19 UNL     1     -28.914   1.012  14.315  1.00  0.00     0.038 A 
HETATM   19  C17 UNL     1     -32.105  -0.272  15.642  1.00  0.00     0.056 A 
HETATM   20  C18 UNL     1     -31.809  -0.309  16.969  1.00  0.00     0.146 A 
HETATM   21  N3  UNL     1     -32.773  -0.758  17.895  1.00  0.00    -0.080 NA
HETATM   22  C20 UNL     1     -29.031   1.114  13.043  1.00  0.00     0.044 C 
HETATM   23  N5  UNL     1     -27.666   1.381  14.952  1.00  0.00    -0.345 N 
ATOM     24  H5  UNL     1     -26.897   1.712  14.369  1.00  0.00     0.167 HD
BRANCH  17  25
HETATM   25  C15 UNL     1     -31.527   0.194  13.270  1.00  0.00     0.066 C 
BRANCH  25  26
HETATM   26  C16 UNL     1     -32.983  -0.340  13.175  1.00  0.00     0.168 C 
BRANCH  26  27
HETATM   27  O1  UNL     1     -32.881  -1.535  12.413  1.00  0.00    -0.401 OA
ATOM     28  H1  UNL     1     -32.354  -1.296  11.659  1.00  0.00     0.209 HD
ENDBRANCH  26  27
ENDBRANCH  25  26
ENDBRANCH  17  25
BRANCH  16  29
HETATM   29  O2  UNL     1     -30.376  -0.016  18.803  1.00  0.00    -0.280 OA
ATOM     30  H2  UNL     1     -30.484  -0.830  19.280  1.00  0.00     0.245 HD
ENDBRANCH  16  29
ENDBRANCH   9  11
ENDBRANCH   8   9
ENDBRANCH   7   8
ENDBRANCH   4   7
ENDBRANCH   3   4
TORSDOF 9
ENDMDL
MODEL 4
REMARK VINA RESULT: -5.624286633      2.214      2.704
REMARK  9 active torsions:
REMARK  status: ('A' for Active; 'I' for Inactive)
REMARK    1  A    between atoms: C3_3  and  N1_4 
REMARK    2  A    between atoms: N1_4  and  C6_7 
REMARK    3  A    between atoms: C6_7  and  C7_8 
REMARK    4  A    between atoms: C7_8  and  C8_9 
REMARK    5  A    between atoms: C8_9  and  C10_11 
REMARK    6  A    between atoms: C14_16  and  C15_17 
REMARK    7  A    between atoms: C15_17  and  C16_18 
REMARK    8  A    between atoms: C16_18  and  O1_19 
REMARK    9  A    between atoms: N4_24  and  O2_25 
ROOT
HETATM    1  C1  UNL     1     -20.781   1.421  17.371  1.00  0.00     0.013 C 
HETATM    2  C2  UNL     1     -21.444   1.977  16.518  1.00  0.00    -0.089 C 
HETATM    3  C3  UNL     1     -22.236   2.618  15.493  1.00  0.00     0.328 C 
ENDROOT
BRANCH   3   4
HETATM    4  N1  UNL     1     -22.957   1.600  14.668  1.00  0.00    -0.065 N 
HETATM    5  C4  UNL     1     -23.029   2.201  13.358  1.00  0.00     0.273 C 
HETATM    6  C5  UNL     1     -22.098   0.437  14.677  1.00  0.00     0.273 C 
BRANCH   4   7
HETATM    7  C6  UNL     1     -24.199   1.409  15.329  1.00  0.00     0.238 C 
BRANCH   7   8
HETATM    8  C7  UNL     1     -25.440   1.408  14.538  1.00  0.00     0.040 C 
BRANCH   8   9
HETATM    9  C8  UNL     1     -26.568   2.299  15.020  1.00  0.00     0.051 C 
HETATM   10  C9  UNL     1     -27.183   2.881  13.737  1.00  0.00     0.018 C 
BRANCH   9  11
HETATM   11  C10 UNL     1     -27.591   1.538  15.781  1.00  0.00     0.089 A 
HETATM   12  N2  UNL     1     -27.490   1.315  17.034  1.00  0.00    -0.324 N 
HETATM   13  C11 UNL     1     -26.366   1.797  17.793  1.00  0.00     0.159 C 
HETATM   14  C12 UNL     1     -28.549   0.587  17.700  1.00  0.00     0.151 A 
HETATM   15  C13 UNL     1     -29.682   0.120  17.037  1.00  0.00     0.043 A 
HETATM   16  N4  UNL     1     -28.407   0.355  19.006  1.00  0.00    -0.193 N 
HETATM   17  C14 UNL     1     -30.693  -0.588  17.691  1.00  0.00    -0.037 A 
HETATM   18  C19 UNL     1     -29.808   0.371  15.622  1.00  0.00     0.038 A 
HETATM   19  C17 UNL     1     -30.467  -0.787  19.059  1.00  0.00     0.056 A 
HETATM   20  C18 UNL     1     -29.351  -0.321  19.682  1.00  0.00     0.146 A 
HETATM   21  N3  UNL     1     -29.166  -0.545  21.062  1.00  0.00    -0.080 NA
HETATM   22  C20 UNL     1     -30.795   0.008  14.891  1.00  0.00     0.044 C 
HETATM   23  N5  UNL     1     -28.706   1.102  15.029  1.00  0.00    -0.345 N 
ATOM     24  H5  UNL     1     -28.736   1.309  14.031  1.00  0.00     0.167 HD
BRANCH  17  25
HETATM   25  C15 UNL     1     -31.899  -1.102  17.053  1.00  0.00     0.066 C 
BRANCH  25  26
HETATM   26  C16 UNL     1     -33.085  -0.323  17.686  1.00  0.00     0.168 C 
BRANCH  26  27
HETATM   27  O1  UNL     1     -34.241  -0.846  17.049  1.00  0.00    -0.401 OA
ATOM     28  H1  UNL     1     -34.349  -0.313  16.270  1.00  0.00     0.209 HD
ENDBRANCH  26  27
ENDBRANCH  25  26
ENDBRANCH  17  25
BRANCH  16  29
HETATM   29  O2  UNL     1     -27.279   0.781  19.718  1.00  0.00    -0.280 OA
ATOM     30  H2  UNL     1     -26.925   0.283  20.446  1.00  0.00     0.245 HD
ENDBRANCH  16  29
ENDBRANCH   9  11
ENDBRANCH   8   9
ENDBRANCH   7   8
ENDBRANCH   4   7
ENDBRANCH   3   4
TORSDOF 9
ENDMDL
MODEL 5
REMARK VINA RESULT: -5.602542322      2.296      3.121
REMARK  9 active torsions:
REMARK  status: ('A' for Active; 'I' for Inactive)
REMARK    1  A    between atoms: C3_3  and  N1_4 
REMARK    2  A    between atoms: N1_4  and  C6_7 
REMARK    3  A    between atoms: C6_7  and  C7_8 
REMARK    4  A    between atoms: C7_8  and  C8_9 
REMARK    5  A    between atoms: C8_9  and  C10_11 
REMARK    6  A    between atoms: C14_16  and  C15_17 
REMARK    7  A    between atoms: C15_17  and  C16_18 
REMARK    8  A    between atoms: C16_18  and  O1_19 
REMARK    9  A    between atoms: N4_24  and  O2_25 
ROOT
HETATM    1  C1  UNL     1     -24.953   2.120  16.712  1.00  0.00     0.013 C 
HETATM    2  C2  UNL     1     -25.851   1.592  16.087  1.00  0.00    -0.089 C 
HETATM    3  C3  UNL     1     -26.921   0.982  15.329  1.00  0.00     0.328 C 
ENDROOT
BRANCH   3   4
HETATM    4  N1  UNL     1     -27.222   1.783  14.102  1.00  0.00    -0.065 N 
HETATM    5  C4  UNL     1     -26.008   1.703  13.328  1.00  0.00     0.273 C 
HETATM    6  C5  UNL     1     -28.314   1.085  13.461  1.00  0.00     0.273 C 
BRANCH   4   7
HETATM    7  C6  UNL     1     -27.563   3.074  14.586  1.00  0.00     0.238 C 
BRANCH   7   8
HETATM    8  C7  UNL     1     -28.977   3.483  14.606  1.00  0.00     0.040 C 
BRANCH   8   9
HETATM    9  C8  UNL     1     -29.569   3.857  15.950  1.00  0.00     0.051 C 
HETATM   10  C9  UNL     1     -31.034   4.213  15.647  1.00  0.00     0.018 C 
BRANCH   9  11
HETATM   11  C10 UNL     1     -29.503   2.732  16.919  1.00  0.00     0.089 A 
HETATM   12  N2  UNL     1     -28.803   2.784  17.984  1.00  0.00    -0.324 N 
HETATM   13  C11 UNL     1     -28.030   3.952  18.317  1.00  0.00     0.159 C 
HETATM   14  C12 UNL     1     -28.819   1.652  18.885  1.00  0.00     0.151 A 
HETATM   15  C13 UNL     1     -29.571   0.503  18.646  1.00  0.00     0.043 A 
HETATM   16  N4  UNL     1     -28.065   1.730  19.983  1.00  0.00    -0.193 N 
HETATM   17  C14 UNL     1     -29.570  -0.586  19.521  1.00  0.00    -0.037 A 
HETATM   18  C19 UNL     1     -30.369   0.436  17.446  1.00  0.00     0.038 A 
HETATM   19  C17 UNL     1     -28.755  -0.423  20.648  1.00  0.00     0.056 A 
HETATM   20  C18 UNL     1     -28.030   0.709  20.857  1.00  0.00     0.146 A 
HETATM   21  N3  UNL     1     -27.222   0.829  22.006  1.00  0.00    -0.080 NA
HETATM   22  C20 UNL     1     -31.110  -0.551  17.105  1.00  0.00     0.044 C 
HETATM   23  N5  UNL     1     -30.296   1.607  16.596  1.00  0.00    -0.345 N 
ATOM     24  H5  UNL     1     -30.837   1.619  15.731  1.00  0.00     0.167 HD
BRANCH  17  25
HETATM   25  C15 UNL     1     -30.333  -1.813  19.325  1.00  0.00     0.066 C 
BRANCH  25  26
HETATM   26  C16 UNL     1     -29.532  -2.936  20.040  1.00  0.00     0.168 C 
BRANCH  26  27
HETATM   27  O1  UNL     1     -29.162  -3.832  19.002  1.00  0.00    -0.401 OA
ATOM     28  H1  UNL     1     -28.635  -4.495  19.432  1.00  0.00     0.209 HD
ENDBRANCH  26  27
ENDBRANCH  25  26
ENDBRANCH  17  25
BRANCH  16  29
HETATM   29  O2  UNL     1     -27.273   2.849  20.262  1.00  0.00    -0.280 OA
ATOM     30  H2  UNL     1     -26.391   2.769  20.607  1.00  0.00     0.245 HD
ENDBRANCH  16  29
ENDBRANCH   9  11
ENDBRANCH   8   9
ENDBRANCH   7   8
ENDBRANCH   4   7
ENDBRANCH   3   4
TORSDOF 9
ENDMDL
