MODEL 1
REMARK VINA RESULT: -5.493145086      0.000      0.000
REMARK  10 active torsions:
REMARK  status: ('A' for Active; 'I' for Inactive)
REMARK    1  A    between atoms: C3_3  and  C4_4 
REMARK    2  A    between atoms: C5_5  and  C6_6 
REMARK    3  A    between atoms: C6_6  and  C7_7 
REMARK    4  A    between atoms: C7_7  and  C8_8 
REMARK    5  A    between atoms: C8_8  and  N1_9 
REMARK    6  A    between atoms: N2_14  and  C13_15 
REMARK    7  A    between atoms: C13_15  and  C14_16 
REMARK    8  A    between atoms: C14_16  and  O1_17 
REMARK    9  A    between atoms: N3_20  and  O2_21 
REMARK   10  A    between atoms: C18_27  and  O3_28 
ROOT
HETATM    1  C4  UNL     1     -28.946   0.269  18.073  1.00  0.00     0.085 A 
HETATM    2  C5  UNL     1     -29.431   0.337  16.811  1.00  0.00    -0.012 A 
HETATM    3  C12 UNL     1     -28.625   0.921  15.840  1.00  0.00     0.101 A 
HETATM    4  N2  UNL     1     -27.420   1.403  16.081  1.00  0.00    -0.348 N 
HETATM    5  C15 UNL     1     -26.936   1.330  17.346  1.00  0.00     0.216 A 
HETATM    6  N3  UNL     1     -27.690   0.778  18.296  1.00  0.00    -0.219 N 
ENDROOT
BRANCH   1   7
HETATM    7  C3  UNL     1     -29.707  -0.177  19.226  1.00  0.00     0.038 A 
HETATM    8  C2  UNL     1     -29.845  -1.440  19.605  1.00  0.00    -0.020 A 
HETATM    9  C1  UNL     1     -29.288  -2.659  18.972  1.00  0.00     0.049 C 
HETATM   10  C18 UNL     1     -30.672  -1.532  20.854  1.00  0.00     0.251 A 
HETATM   11  N4  UNL     1     -31.101  -0.197  21.126  1.00  0.00    -0.345 N 
HETATM   12  C16 UNL     1     -30.479   0.636  20.151  1.00  0.00     0.113 A 
HETATM   13  C17 UNL     1     -31.993   0.176  22.195  1.00  0.00     0.153 C 
HETATM   14  S1  UNL     1     -30.647   2.276  20.133  1.00  0.00    -0.059 SA
BRANCH  10  15
HETATM   15  O3  UNL     1     -31.727  -2.413  20.561  1.00  0.00    -0.373 OA
ATOM     16  H3  UNL     1     -32.520  -1.984  20.860  1.00  0.00     0.212 HD
ENDBRANCH  10  15
ENDBRANCH   1   7
BRANCH   2  17
HETATM   17  C6  UNL     1     -30.707  -0.314  16.422  1.00  0.00     0.044 C 
BRANCH  17  18
HETATM   18  C7  UNL     1     -31.596   0.624  15.664  1.00  0.00     0.032 C 
BRANCH  18  19
HETATM   19  C8  UNL     1     -32.356  -0.036  14.572  1.00  0.00     0.236 C 
BRANCH  19  20
HETATM   20  N1  UNL     1     -32.062   0.256  13.226  1.00  0.00    -0.079 N 
HETATM   21  C9  UNL     1     -32.757   1.462  12.754  1.00  0.00     0.271 C 
HETATM   22  C10 UNL     1     -30.719   0.305  12.786  1.00  0.00     0.271 C 
HETATM   23  C11 UNL     1     -32.708  -0.815  12.420  1.00  0.00     0.271 C 
ENDBRANCH  19  20
ENDBRANCH  18  19
ENDBRANCH  17  18
ENDBRANCH   2  17
BRANCH   6  24
HETATM   24  O2  UNL     1     -27.172   0.718  19.591  1.00  0.00    -0.282 OA
ATOM     25  H2  UNL     1     -26.242   0.863  19.711  1.00  0.00     0.245 HD
ENDBRANCH   6  24
BRANCH   4  26
HETATM   26  C13 UNL     1     -26.611   2.018  15.049  1.00  0.00     0.155 C 
BRANCH  26  27
HETATM   27  C14 UNL     1     -26.758   1.357  13.708  1.00  0.00     0.184 C 
BRANCH  27  28
HETATM   28  O1  UNL     1     -25.483   0.970  13.291  1.00  0.00    -0.399 OA
ATOM     29  H1  UNL     1     -25.105   1.702  12.818  1.00  0.00     0.209 HD
ENDBRANCH  27  28
ENDBRANCH  26  27
ENDBRANCH   4  26
TORSDOF 10
ENDMDL
MODEL 2
REMARK VINA RESULT: -5.483531083      3.378      6.072
REMARK  10 active torsions:
REMARK  status: ('A' for Active; 'I' for Inactive)
REMARK    1  A    between atoms: C3_3  and  C4_4 
REMARK    2  A    between atoms: C5_5  and  C6_6 
REMARK    3  A    between atoms: C6_6  and  C7_7 
REMARK    4  A    between atoms: C7_7  and  C8_8 
REMARK    5  A    between atoms: C8_8  and  N1_9 
REMARK    6  A    between atoms: N2_14  and  C13_15 
REMARK    7  A    between atoms: C13_15  and  C14_16 
REMARK    8  A    between atoms: C14_16  and  O1_17 
REMARK    9  A    between atoms: N3_20  and  O2_21 
REMARK   10  A    between atoms: C18_27  and  O3_28 
ROOT
HETATM    1  C4  UNL     1     -26.621   2.224  14.770  1.00  0.00     0.085 A 
HETATM    2  C5  UNL     1     -26.260   2.050  16.063  1.00  0.00    -0.012 A 
HETATM    3  C12 UNL     1     -24.918   1.811  16.333  1.00  0.00     0.101 A 
HETATM    4  N2  UNL     1     -23.983   1.751  15.402  1.00  0.00    -0.348 N 
HETATM    5  C15 UNL     1     -24.348   1.929  14.108  1.00  0.00     0.216 A 
HETATM    6  N3  UNL     1     -25.630   2.156  13.822  1.00  0.00    -0.219 N 
ENDROOT
BRANCH   1   7
HETATM    7  C3  UNL     1     -27.992   2.340  14.305  1.00  0.00     0.038 A 
HETATM    8  C2  UNL     1     -28.735   1.334  13.866  1.00  0.00    -0.020 A 
HETATM    9  C1  UNL     1     -28.368  -0.097  13.739  1.00  0.00     0.049 C 
HETATM   10  C18 UNL     1     -30.109   1.811  13.495  1.00  0.00     0.251 A 
HETATM   11  N4  UNL     1     -30.078   3.229  13.662  1.00  0.00    -0.345 N 
HETATM   12  C16 UNL     1     -28.793   3.548  14.193  1.00  0.00     0.113 A 
HETATM   13  C17 UNL     1     -31.165   4.117  13.337  1.00  0.00     0.153 C 
HETATM   14  S1  UNL     1     -28.347   5.080  14.604  1.00  0.00    -0.059 SA
BRANCH  10  15
HETATM   15  O3  UNL     1     -30.318   1.405  12.167  1.00  0.00    -0.373 OA
ATOM     16  H3  UNL     1     -29.520   1.618  11.696  1.00  0.00     0.212 HD
ENDBRANCH  10  15
ENDBRANCH   1   7
BRANCH   2  17
HETATM   17  C6  UNL     1     -27.216   2.251  17.181  1.00  0.00     0.044 C 
BRANCH  17  18
HETATM   18  C7  UNL     1     -27.673   0.946  17.758  1.00  0.00     0.032 C 
BRANCH  18  19
HETATM   19  C8  UNL     1     -29.065   0.589  17.382  1.00  0.00     0.236 C 
BRANCH  19  20
HETATM   20  N1  UNL     1     -29.772  -0.382  18.118  1.00  0.00    -0.079 N 
HETATM   21  C9  UNL     1     -31.007  -0.802  17.441  1.00  0.00     0.271 C 
HETATM   22  C10 UNL     1     -29.105  -1.532  18.601  1.00  0.00     0.271 C 
HETATM   23  C11 UNL     1     -30.294   0.314  19.325  1.00  0.00     0.271 C 
ENDBRANCH  19  20
ENDBRANCH  18  19
ENDBRANCH  17  18
ENDBRANCH   2  17
BRANCH   6  24
HETATM   24  O2  UNL     1     -25.981   2.333  12.483  1.00  0.00    -0.282 OA
ATOM     25  H2  UNL     1     -26.423   1.621  12.036  1.00  0.00     0.245 HD
ENDBRANCH   6  24
BRANCH   4  26
HETATM   26  C13 UNL     1     -22.594   1.487  15.715  1.00  0.00     0.155 C 
BRANCH  26  27
HETATM   27  C14 UNL     1     -21.797   1.027  14.528  1.00  0.00     0.184 C 
BRANCH  27  28
HETATM   28  O1  UNL     1     -20.453   1.015  14.907  1.00  0.00    -0.399 OA
ATOM     29  H1  UNL     1     -19.998   1.642  14.357  1.00  0.00     0.209 HD
ENDBRANCH  27  28
ENDBRANCH  26  27
ENDBRANCH   4  26
TORSDOF 10
ENDMDL
MODEL 3
REMARK VINA RESULT: -5.329834185      2.302      5.000
REMARK  10 active torsions:
REMARK  status: ('A' for Active; 'I' for Inactive)
REMARK    1  A    between atoms: C3_3  and  C4_4 
REMARK    2  A    between atoms: C5_5  and  C6_6 
REMARK    3  A    between atoms: C6_6  and  C7_7 
REMARK    4  A    between atoms: C7_7  and  C8_8 
REMARK    5  A    between atoms: C8_8  and  N1_9 
REMARK    6  A    between atoms: N2_14  and  C13_15 
REMARK    7  A    between atoms: C13_15  and  C14_16 
REMARK    8  A    between atoms: C14_16  and  O1_17 
REMARK    9  A    between atoms: N3_20  and  O2_21 
REMARK   10  A    between atoms: C18_27  and  O3_28 
ROOT
HETATM    1  C4  UNL     1     -30.217  -0.344  17.811  1.00  0.00     0.085 A 
HETATM    2  C5  UNL     1     -28.982   0.188  17.650  1.00  0.00    -0.012 A 
HETATM    3  C12 UNL     1     -28.590   0.531  16.361  1.00  0.00     0.101 A 
HETATM    4  N2  UNL     1     -29.355   0.373  15.296  1.00  0.00    -0.348 N 
HETATM    5  C15 UNL     1     -30.592  -0.157  15.462  1.00  0.00     0.216 A 
HETATM    6  N3  UNL     1     -30.990  -0.498  16.687  1.00  0.00    -0.219 N 
ENDROOT
BRANCH   1   7
HETATM    7  C3  UNL     1     -30.725  -0.885  19.059  1.00  0.00     0.038 A 
HETATM    8  C2  UNL     1     -30.386  -2.058  19.575  1.00  0.00    -0.020 A 
HETATM    9  C1  UNL     1     -29.450  -3.070  19.028  1.00  0.00     0.049 C 
HETATM   10  C18 UNL     1     -31.079  -2.283  20.887  1.00  0.00     0.251 A 
HETATM   11  N4  UNL     1     -31.949  -1.162  21.054  1.00  0.00    -0.345 N 
HETATM   12  C16 UNL     1     -31.704  -0.289  19.953  1.00  0.00     0.113 A 
HETATM   13  C17 UNL     1     -32.877  -1.000  22.144  1.00  0.00     0.153 C 
HETATM   14  S1  UNL     1     -32.452   1.169  19.781  1.00  0.00    -0.059 SA
BRANCH  10  15
HETATM   15  O3  UNL     1     -31.755  -3.507  20.768  1.00  0.00    -0.373 OA
ATOM     16  H3  UNL     1     -32.567  -3.410  21.252  1.00  0.00     0.212 HD
ENDBRANCH  10  15
ENDBRANCH   1   7
BRANCH   2  17
HETATM   17  C6  UNL     1     -28.120   0.540  18.805  1.00  0.00     0.044 C 
BRANCH  17  18
HETATM   18  C7  UNL     1     -28.384   1.934  19.288  1.00  0.00     0.032 C 
BRANCH  18  19
HETATM   19  C8  UNL     1     -28.830   1.994  20.702  1.00  0.00     0.236 C 
BRANCH  19  20
HETATM   20  N1  UNL     1     -27.949   2.445  21.705  1.00  0.00    -0.079 N 
HETATM   21  C9  UNL     1     -27.174   1.347  22.300  1.00  0.00     0.271 C 
HETATM   22  C10 UNL     1     -27.077   3.530  21.450  1.00  0.00     0.271 C 
HETATM   23  C11 UNL     1     -28.805   2.879  22.842  1.00  0.00     0.271 C 
ENDBRANCH  19  20
ENDBRANCH  18  19
ENDBRANCH  17  18
ENDBRANCH   2  17
BRANCH   6  24
HETATM   24  O2  UNL     1     -32.267  -1.045  16.833  1.00  0.00    -0.282 OA
ATOM     25  H2  UNL     1     -32.906  -0.884  16.149  1.00  0.00     0.245 HD
ENDBRANCH   6  24
BRANCH   4  26
HETATM   26  C13 UNL     1     -28.911   0.729  13.964  1.00  0.00     0.155 C 
BRANCH  26  27
HETATM   27  C14 UNL     1     -27.587   1.438  13.950  1.00  0.00     0.184 C 
BRANCH  27  28
HETATM   28  O1  UNL     1     -26.625   0.516  13.531  1.00  0.00    -0.399 OA
ATOM     29  H1  UNL     1     -25.929   0.519  14.178  1.00  0.00     0.209 HD
ENDBRANCH  27  28
ENDBRANCH  26  27
ENDBRANCH   4  26
TORSDOF 10
ENDMDL
MODEL 4
REMARK VINA RESULT: -5.322230230      3.306      6.342
REMARK  10 active torsions:
REMARK  status: ('A' for Active; 'I' for Inactive)
REMARK    1  A    between atoms: C3_3  and  C4_4 
REMARK    2  A    between atoms: C5_5  and  C6_6 
REMARK    3  A    between atoms: C6_6  and  C7_7 
REMARK    4  A    between atoms: C7_7  and  C8_8 
REMARK    5  A    between atoms: C8_8  and  N1_9 
REMARK    6  A    between atoms: N2_14  and  C13_15 
REMARK    7  A    between atoms: C13_15  and  C14_16 
REMARK    8  A    between atoms: C14_16  and  O1_17 
REMARK    9  A    between atoms: N3_20  and  O2_21 
REMARK   10  A    between atoms: C18_27  and  O3_28 
ROOT
HETATM    1  C4  UNL     1     -26.650   2.281  14.849  1.00  0.00     0.085 A 
HETATM    2  C5  UNL     1     -26.229   2.005  16.106  1.00  0.00    -0.012 A 
HETATM    3  C12 UNL     1     -24.880   1.725  16.289  1.00  0.00     0.101 A 
HETATM    4  N2  UNL     1     -23.994   1.719  15.311  1.00  0.00    -0.348 N 
HETATM    5  C15 UNL     1     -24.418   1.999  14.053  1.00  0.00     0.216 A 
HETATM    6  N3  UNL     1     -25.708   2.267  13.851  1.00  0.00    -0.219 N 
ENDROOT
BRANCH   1   7
HETATM    7  C3  UNL     1     -28.039   2.454  14.464  1.00  0.00     0.038 A 
HETATM    8  C2  UNL     1     -28.824   1.495  13.994  1.00  0.00    -0.020 A 
HETATM    9  C1  UNL     1     -28.494   0.071  13.748  1.00  0.00     0.049 C 
HETATM   10  C18 UNL     1     -30.204   2.021  13.728  1.00  0.00     0.251 A 
HETATM   11  N4  UNL     1     -30.135   3.423  13.993  1.00  0.00    -0.345 N 
HETATM   12  C16 UNL     1     -28.819   3.680  14.479  1.00  0.00     0.113 A 
HETATM   13  C17 UNL     1     -31.218   4.351  13.787  1.00  0.00     0.153 C 
HETATM   14  S1  UNL     1     -28.321   5.171  14.974  1.00  0.00    -0.059 SA
BRANCH  10  15
HETATM   15  O3  UNL     1     -30.487   1.716  12.387  1.00  0.00    -0.373 OA
ATOM     16  H3  UNL     1     -29.718   1.272  12.048  1.00  0.00     0.212 HD
ENDBRANCH  10  15
ENDBRANCH   1   7
BRANCH   2  17
HETATM   17  C6  UNL     1     -27.124   2.138  17.283  1.00  0.00     0.044 C 
BRANCH  17  18
HETATM   18  C7  UNL     1     -27.801   0.842  17.612  1.00  0.00     0.032 C 
BRANCH  18  19
HETATM   19  C8  UNL     1     -27.972   0.619  19.070  1.00  0.00     0.236 C 
BRANCH  19  20
HETATM   20  N1  UNL     1     -29.010  -0.206  19.544  1.00  0.00    -0.079 N 
HETATM   21  C9  UNL     1     -29.125  -1.453  18.774  1.00  0.00     0.271 C 
HETATM   22  C10 UNL     1     -29.101  -0.513  20.922  1.00  0.00     0.271 C 
HETATM   23  C11 UNL     1     -30.280   0.492  19.206  1.00  0.00     0.271 C 
ENDBRANCH  19  20
ENDBRANCH  18  19
ENDBRANCH  17  18
ENDBRANCH   2  17
BRANCH   6  24
HETATM   24  O2  UNL     1     -26.121   2.549  12.547  1.00  0.00    -0.282 OA
ATOM     25  H2  UNL     1     -26.433   3.424  12.354  1.00  0.00     0.245 HD
ENDBRANCH   6  24
BRANCH   4  26
HETATM   26  C13 UNL     1     -22.596   1.409  15.533  1.00  0.00     0.155 C 
BRANCH  26  27
HETATM   27  C14 UNL     1     -21.887   2.436  16.368  1.00  0.00     0.184 C 
BRANCH  27  28
HETATM   28  O1  UNL     1     -21.576   1.837  17.591  1.00  0.00    -0.399 OA
ATOM     29  H1  UNL     1     -21.855   2.432  18.277  1.00  0.00     0.209 HD
ENDBRANCH  27  28
ENDBRANCH  26  27
ENDBRANCH   4  26
TORSDOF 10
ENDMDL
MODEL 5
REMARK VINA RESULT: -5.316979000      3.727      5.092
REMARK  10 active torsions:
REMARK  status: ('A' for Active; 'I' for Inactive)
REMARK    1  A    between atoms: C3_3  and  C4_4 
REMARK    2  A    between atoms: C5_5  and  C6_6 
REMARK    3  A    between atoms: C6_6  and  C7_7 
REMARK    4  A    between atoms: C7_7  and  C8_8 
REMARK    5  A    between atoms: C8_8  and  N1_9 
REMARK    6  A    between atoms: N2_14  and  C13_15 
REMARK    7  A    between atoms: C13_15  and  C14_16 
REMARK    8  A    between atoms: C14_16  and  O1_17 
REMARK    9  A    between atoms: N3_20  and  O2_21 
REMARK   10  A    between atoms: C18_27  and  O3_28 
ROOT
HETATM    1  C4  UNL     1     -26.708   2.002  15.675  1.00  0.00     0.085 A 
HETATM    2  C5  UNL     1     -26.322   1.807  14.392  1.00  0.00    -0.012 A 
HETATM    3  C12 UNL     1     -24.960   1.706  14.135  1.00  0.00     0.101 A 
HETATM    4  N2  UNL     1     -24.030   1.782  15.069  1.00  0.00    -0.348 N 
HETATM    5  C15 UNL     1     -24.420   1.973  16.354  1.00  0.00     0.216 A 
HETATM    6  N3  UNL     1     -25.721   2.078  16.627  1.00  0.00    -0.219 N 
ENDROOT
BRANCH   1   7
HETATM    7  C3  UNL     1     -28.071   2.269  16.095  1.00  0.00     0.038 A 
HETATM    8  C2  UNL     1     -28.922   1.357  16.544  1.00  0.00    -0.020 A 
HETATM    9  C1  UNL     1     -28.707  -0.100  16.716  1.00  0.00     0.049 C 
HETATM   10  C18 UNL     1     -30.232   1.990  16.914  1.00  0.00     0.251 A 
HETATM   11  N4  UNL     1     -30.110   3.363  16.543  1.00  0.00    -0.345 N 
HETATM   12  C16 UNL     1     -28.774   3.541  16.077  1.00  0.00     0.113 A 
HETATM   13  C17 UNL     1     -31.167   4.337  16.642  1.00  0.00     0.153 C 
HETATM   14  S1  UNL     1     -28.176   5.002  15.604  1.00  0.00    -0.059 SA
BRANCH  10  15
HETATM   15  O3  UNL     1     -31.218   1.298  16.193  1.00  0.00    -0.373 OA
ATOM     16  H3  UNL     1     -30.769   0.596  15.735  1.00  0.00     0.212 HD
ENDBRANCH  10  15
ENDBRANCH   1   7
BRANCH   2  17
HETATM   17  C6  UNL     1     -27.302   1.559  13.304  1.00  0.00     0.044 C 
BRANCH  17  18
HETATM   18  C7  UNL     1     -27.585   2.805  12.521  1.00  0.00     0.032 C 
BRANCH  18  19
HETATM   19  C8  UNL     1     -26.797   2.906  11.267  1.00  0.00     0.236 C 
BRANCH  19  20
HETATM   20  N1  UNL     1     -27.426   3.276  10.062  1.00  0.00    -0.079 N 
HETATM   21  C9  UNL     1     -26.626   2.914   8.883  1.00  0.00     0.271 C 
HETATM   22  C10 UNL     1     -28.774   2.918   9.824  1.00  0.00     0.271 C 
HETATM   23  C11 UNL     1     -27.394   4.763  10.020  1.00  0.00     0.271 C 
ENDBRANCH  19  20
ENDBRANCH  18  19
ENDBRANCH  17  18
ENDBRANCH   2  17
BRANCH   6  24
HETATM   24  O2  UNL     1     -26.097   2.277  17.956  1.00  0.00    -0.282 OA
ATOM     25  H2  UNL     1     -25.423   2.500  18.586  1.00  0.00     0.245 HD
ENDBRANCH   6  24
BRANCH   4  26
HETATM   26  C13 UNL     1     -22.617   1.686  14.766  1.00  0.00     0.155 C 
BRANCH  26  27
HETATM   27  C14 UNL     1     -22.309   0.689  13.685  1.00  0.00     0.184 C 
BRANCH  27  28
HETATM   28  O1  UNL     1     -21.930   1.409  12.550  1.00  0.00    -0.399 OA
ATOM     29  H1  UNL     1     -20.981   1.385  12.503  1.00  0.00     0.209 HD
ENDBRANCH  27  28
ENDBRANCH  26  27
ENDBRANCH   4  26
TORSDOF 10
ENDMDL
