MODEL 1
REMARK VINA RESULT: -7.440187632      0.000      0.000
REMARK  10 active torsions:
REMARK  status: ('A' for Active; 'I' for Inactive)
REMARK    1  A    between atoms: N1_7  and  C7_8 
REMARK    2  A    between atoms: C7_8  and  C8_9 
REMARK    3  A    between atoms: C8_9  and  C9_10 
REMARK    4  A    between atoms: C9_10  and  C10_11 
REMARK    5  A    between atoms: C10_11  and  C11_12 
REMARK    6  A    between atoms: C11_12  and  C12_13 
REMARK    7  A    between atoms: C12_13  and  N2_14 
REMARK    8  A    between atoms: N3_21  and  O1_22 
REMARK    9  A    between atoms: C19_26  and  N5_27 
REMARK   10  A    between atoms: N6_30  and  O2_31 
ROOT
HETATM    1  N2  UNL     1     -25.834   2.109  15.566  1.00  0.00    -0.358 N 
HETATM    2  C13 UNL     1     -24.706   2.083  16.314  1.00  0.00     0.126 A 
HETATM    3  C14 UNL     1     -23.458   1.837  15.791  1.00  0.00     0.127 A 
HETATM    4  C15 UNL     1     -23.321   1.603  14.435  1.00  0.00     0.114 A 
HETATM    5  C16 UNL     1     -24.469   1.630  13.674  1.00  0.00     0.061 A 
HETATM    6  C17 UNL     1     -25.722   1.883  14.246  1.00  0.00     0.009 A 
HETATM    7  C18 UNL     1     -26.892   1.891  13.332  1.00  0.00     0.068 C 
HETATM    8  N3  UNL     1     -22.105   1.359  13.883  1.00  0.00    -0.147 N 
HETATM    9  N4  UNL     1     -21.025   1.337  14.621  1.00  0.00    -0.103 N 
ATOM     10  H4  UNL     1     -20.111   1.152  14.209  1.00  0.00     0.208 HD
HETATM   11  C19 UNL     1     -21.159   1.564  15.936  1.00  0.00     0.719 A 
HETATM   12  N6  UNL     1     -22.341   1.812  16.530  1.00  0.00    -0.048 N 
ENDROOT
BRANCH   1  13
HETATM   13  C12 UNL     1     -27.130   2.359  16.103  1.00  0.00     0.128 C 
BRANCH  13  14
HETATM   14  C11 UNL     1     -27.592   1.385  17.136  1.00  0.00     0.020 C 
BRANCH  14  15
HETATM   15  C10 UNL     1     -28.349   0.279  16.430  1.00  0.00     0.002 C 
BRANCH  15  16
HETATM   16  C9  UNL     1     -29.629   0.808  15.796  1.00  0.00     0.002 C 
BRANCH  16  17
HETATM   17  C8  UNL     1     -30.735  -0.066  16.288  1.00  0.00     0.020 C 
BRANCH  17  18
HETATM   18  C7  UNL     1     -31.193   0.136  17.681  1.00  0.00     0.128 C 
BRANCH  18  19
HETATM   19  N1  UNL     1     -30.589  -0.717  18.675  1.00  0.00    -0.360 N 
HETATM   20  C2  UNL     1     -29.996  -0.272  19.769  1.00  0.00     0.007 A 
HETATM   21  C1  UNL     1     -29.947   1.176  20.123  1.00  0.00     0.068 C 
HETATM   22  C3  UNL     1     -29.403  -1.154  20.668  1.00  0.00     0.025 A 
HETATM   23  C4  UNL     1     -29.424  -2.496  20.439  1.00  0.00     0.003 A 
HETATM   24  C5  UNL     1     -30.052  -2.917  19.291  1.00  0.00     0.017 A 
HETATM   25  C6  UNL     1     -30.630  -2.045  18.413  1.00  0.00     0.091 A 
ENDBRANCH  18  19
ENDBRANCH  17  18
ENDBRANCH  16  17
ENDBRANCH  15  16
ENDBRANCH  14  15
ENDBRANCH  13  14
ENDBRANCH   1  13
BRANCH  12  26
HETATM   26  O2  UNL     1     -22.446   2.042  17.887  1.00  0.00    -0.269 OA
ATOM     27  H2  UNL     1     -21.736   1.760  18.450  1.00  0.00     0.245 HD
ENDBRANCH  12  26
BRANCH   8  28
HETATM   28  O1  UNL     1     -22.041   1.133  12.524  1.00  0.00    -0.267 OA
ATOM     29  H1  UNL     1     -21.360   1.572  12.028  1.00  0.00     0.247 HD
ENDBRANCH   8  28
BRANCH  11  30
HETATM   30  N5  UNL     1     -20.076   1.540  16.657  1.00  0.00    -0.231 N 
ATOM     31  H52 UNL     1     -19.535   2.397  16.773  1.00  0.00     0.174 HD
ATOM     32  H51 UNL     1     -19.817   0.648  17.078  1.00  0.00     0.174 HD
ENDBRANCH  11  30
TORSDOF 10
ENDMDL
MODEL 2
REMARK VINA RESULT: -7.372434810      1.260      1.642
REMARK  10 active torsions:
REMARK  status: ('A' for Active; 'I' for Inactive)
REMARK    1  A    between atoms: N1_7  and  C7_8 
REMARK    2  A    between atoms: C7_8  and  C8_9 
REMARK    3  A    between atoms: C8_9  and  C9_10 
REMARK    4  A    between atoms: C9_10  and  C10_11 
REMARK    5  A    between atoms: C10_11  and  C11_12 
REMARK    6  A    between atoms: C11_12  and  C12_13 
REMARK    7  A    between atoms: C12_13  and  N2_14 
REMARK    8  A    between atoms: N3_21  and  O1_22 
REMARK    9  A    between atoms: C19_26  and  N5_27 
REMARK   10  A    between atoms: N6_30  and  O2_31 
ROOT
HETATM    1  N2  UNL     1     -25.944   2.072  15.603  1.00  0.00    -0.358 N 
HETATM    2  C13 UNL     1     -24.812   2.092  16.346  1.00  0.00     0.126 A 
HETATM    3  C14 UNL     1     -23.560   1.879  15.819  1.00  0.00     0.127 A 
HETATM    4  C15 UNL     1     -23.422   1.629  14.466  1.00  0.00     0.114 A 
HETATM    5  C16 UNL     1     -24.574   1.609  13.711  1.00  0.00     0.061 A 
HETATM    6  C17 UNL     1     -25.831   1.830  14.286  1.00  0.00     0.009 A 
HETATM    7  C18 UNL     1     -27.006   1.789  13.379  1.00  0.00     0.068 C 
HETATM    8  N3  UNL     1     -22.202   1.415  13.911  1.00  0.00    -0.147 N 
HETATM    9  N4  UNL     1     -21.118   1.437  14.643  1.00  0.00    -0.103 N 
ATOM     10  H4  UNL     1     -20.200   1.276  14.229  1.00  0.00     0.208 HD
HETATM   11  C19 UNL     1     -21.252   1.679  15.956  1.00  0.00     0.719 A 
HETATM   12  N6  UNL     1     -22.439   1.899  16.553  1.00  0.00    -0.048 N 
ENDROOT
BRANCH   1  13
HETATM   13  C12 UNL     1     -27.245   2.289  16.144  1.00  0.00     0.128 C 
BRANCH  13  14
HETATM   14  C11 UNL     1     -27.667   1.321  17.199  1.00  0.00     0.020 C 
BRANCH  14  15
HETATM   15  C10 UNL     1     -28.526   0.260  16.543  1.00  0.00     0.002 C 
BRANCH  15  16
HETATM   16  C9  UNL     1     -29.649  -0.188  17.471  1.00  0.00     0.002 C 
BRANCH  16  17
HETATM   17  C8  UNL     1     -29.082  -1.275  18.324  1.00  0.00     0.020 C 
BRANCH  17  18
HETATM   18  C7  UNL     1     -29.240  -1.139  19.790  1.00  0.00     0.128 C 
BRANCH  18  19
HETATM   19  N1  UNL     1     -30.064  -2.134  20.431  1.00  0.00    -0.360 N 
HETATM   20  C2  UNL     1     -31.264  -1.889  20.929  1.00  0.00     0.007 A 
HETATM   21  C1  UNL     1     -31.923  -0.556  20.819  1.00  0.00     0.068 C 
HETATM   22  C3  UNL     1     -31.990  -2.892  21.566  1.00  0.00     0.025 A 
HETATM   23  C4  UNL     1     -31.479  -4.148  21.688  1.00  0.00     0.003 A 
HETATM   24  C5  UNL     1     -30.229  -4.360  21.155  1.00  0.00     0.017 A 
HETATM   25  C6  UNL     1     -29.523  -3.370  20.533  1.00  0.00     0.091 A 
ENDBRANCH  18  19
ENDBRANCH  17  18
ENDBRANCH  16  17
ENDBRANCH  15  16
ENDBRANCH  14  15
ENDBRANCH  13  14
ENDBRANCH   1  13
BRANCH  12  26
HETATM   26  O2  UNL     1     -22.545   2.145  17.907  1.00  0.00    -0.269 OA
ATOM     27  H2  UNL     1     -22.639   1.406  18.495  1.00  0.00     0.245 HD
ENDBRANCH  12  26
BRANCH   8  28
HETATM   28  O1  UNL     1     -22.137   1.171  12.555  1.00  0.00    -0.267 OA
ATOM     29  H1  UNL     1     -21.832   1.870  11.988  1.00  0.00     0.247 HD
ENDBRANCH   8  28
BRANCH  11  30
HETATM   30  N5  UNL     1     -20.166   1.700  16.671  1.00  0.00    -0.231 N 
ATOM     31  H52 UNL     1     -19.667   0.827  16.847  1.00  0.00     0.174 HD
ATOM     32  H51 UNL     1     -19.860   2.605  17.028  1.00  0.00     0.174 HD
ENDBRANCH  11  30
TORSDOF 10
ENDMDL
MODEL 3
REMARK VINA RESULT: -7.292446667      0.816      1.447
REMARK  10 active torsions:
REMARK  status: ('A' for Active; 'I' for Inactive)
REMARK    1  A    between atoms: N1_7  and  C7_8 
REMARK    2  A    between atoms: C7_8  and  C8_9 
REMARK    3  A    between atoms: C8_9  and  C9_10 
REMARK    4  A    between atoms: C9_10  and  C10_11 
REMARK    5  A    between atoms: C10_11  and  C11_12 
REMARK    6  A    between atoms: C11_12  and  C12_13 
REMARK    7  A    between atoms: C12_13  and  N2_14 
REMARK    8  A    between atoms: N3_21  and  O1_22 
REMARK    9  A    between atoms: C19_26  and  N5_27 
REMARK   10  A    between atoms: N6_30  and  O2_31 
ROOT
HETATM    1  N2  UNL     1     -25.401   2.248  15.976  1.00  0.00    -0.358 N 
HETATM    2  C13 UNL     1     -24.226   2.107  16.635  1.00  0.00     0.126 A 
HETATM    3  C14 UNL     1     -23.050   1.758  16.014  1.00  0.00     0.127 A 
HETATM    4  C15 UNL     1     -23.039   1.534  14.650  1.00  0.00     0.114 A 
HETATM    5  C16 UNL     1     -24.233   1.678  13.980  1.00  0.00     0.061 A 
HETATM    6  C17 UNL     1     -25.410   2.035  14.649  1.00  0.00     0.009 A 
HETATM    7  C18 UNL     1     -26.641   2.165  13.829  1.00  0.00     0.068 C 
HETATM    8  N3  UNL     1     -21.896   1.189  14.004  1.00  0.00    -0.147 N 
HETATM    9  N4  UNL     1     -20.769   1.057  14.656  1.00  0.00    -0.103 N 
ATOM     10  H4  UNL     1     -19.910   0.796  14.173  1.00  0.00     0.208 HD
HETATM   11  C19 UNL     1     -20.781   1.274  15.979  1.00  0.00     0.719 A 
HETATM   12  N6  UNL     1     -21.887   1.619  16.665  1.00  0.00    -0.048 N 
ENDROOT
BRANCH   1  13
HETATM   13  C12 UNL     1     -26.624   2.607  16.614  1.00  0.00     0.128 C 
BRANCH  13  14
HETATM   14  C11 UNL     1     -27.149   1.611  17.594  1.00  0.00     0.020 C 
BRANCH  14  15
HETATM   15  C10 UNL     1     -28.217   0.791  16.901  1.00  0.00     0.002 C 
BRANCH  15  16
HETATM   16  C9  UNL     1     -29.523   1.570  16.794  1.00  0.00     0.002 C 
BRANCH  16  17
HETATM   17  C8  UNL     1     -29.928   1.907  18.191  1.00  0.00     0.020 C 
BRANCH  17  18
HETATM   18  C7  UNL     1     -30.938   1.037  18.834  1.00  0.00     0.128 C 
BRANCH  18  19
HETATM   19  N1  UNL     1     -30.522  -0.317  19.109  1.00  0.00    -0.360 N 
HETATM   20  C2  UNL     1     -30.925  -1.369  18.416  1.00  0.00     0.007 A 
HETATM   21  C1  UNL     1     -31.812  -1.252  17.223  1.00  0.00     0.068 C 
HETATM   22  C3  UNL     1     -30.509  -2.652  18.761  1.00  0.00     0.025 A 
HETATM   23  C4  UNL     1     -29.677  -2.850  19.820  1.00  0.00     0.003 A 
HETATM   24  C5  UNL     1     -29.281  -1.730  20.512  1.00  0.00     0.017 A 
HETATM   25  C6  UNL     1     -29.695  -0.475  20.168  1.00  0.00     0.091 A 
ENDBRANCH  18  19
ENDBRANCH  17  18
ENDBRANCH  16  17
ENDBRANCH  15  16
ENDBRANCH  14  15
ENDBRANCH  13  14
ENDBRANCH   1  13
BRANCH  12  26
HETATM   26  O2  UNL     1     -21.867   1.836  18.028  1.00  0.00    -0.269 OA
ATOM     27  H2  UNL     1     -21.759   2.725  18.342  1.00  0.00     0.245 HD
ENDBRANCH  12  26
BRANCH   8  28
HETATM   28  O1  UNL     1     -21.956   0.981  12.641  1.00  0.00    -0.267 OA
ATOM     29  H1  UNL     1     -22.537   0.303  12.317  1.00  0.00     0.247 HD
ENDBRANCH   8  28
BRANCH  11  30
HETATM   30  N5  UNL     1     -19.654   1.139  16.614  1.00  0.00    -0.231 N 
ATOM     31  H52 UNL     1     -19.458   1.738  17.417  1.00  0.00     0.174 HD
ATOM     32  H51 UNL     1     -19.008   0.428  16.271  1.00  0.00     0.174 HD
ENDBRANCH  11  30
TORSDOF 10
ENDMDL
MODEL 4
REMARK VINA RESULT: -7.273182396      1.138      2.125
REMARK  10 active torsions:
REMARK  status: ('A' for Active; 'I' for Inactive)
REMARK    1  A    between atoms: N1_7  and  C7_8 
REMARK    2  A    between atoms: C7_8  and  C8_9 
REMARK    3  A    between atoms: C8_9  and  C9_10 
REMARK    4  A    between atoms: C9_10  and  C10_11 
REMARK    5  A    between atoms: C10_11  and  C11_12 
REMARK    6  A    between atoms: C11_12  and  C12_13 
REMARK    7  A    between atoms: C12_13  and  N2_14 
REMARK    8  A    between atoms: N3_21  and  O1_22 
REMARK    9  A    between atoms: C19_26  and  N5_27 
REMARK   10  A    between atoms: N6_30  and  O2_31 
ROOT
HETATM    1  N2  UNL     1     -25.677   2.238  15.955  1.00  0.00    -0.358 N 
HETATM    2  C13 UNL     1     -24.490   2.159  16.600  1.00  0.00     0.126 A 
HETATM    3  C14 UNL     1     -23.314   1.809  15.978  1.00  0.00     0.127 A 
HETATM    4  C15 UNL     1     -23.318   1.519  14.627  1.00  0.00     0.114 A 
HETATM    5  C16 UNL     1     -24.526   1.600  13.971  1.00  0.00     0.061 A 
HETATM    6  C17 UNL     1     -25.701   1.959  14.641  1.00  0.00     0.009 A 
HETATM    7  C18 UNL     1     -26.948   2.018  13.835  1.00  0.00     0.068 C 
HETATM    8  N3  UNL     1     -22.176   1.171  13.980  1.00  0.00    -0.147 N 
HETATM    9  N4  UNL     1     -21.037   1.099  14.619  1.00  0.00    -0.103 N 
ATOM     10  H4  UNL     1     -20.179   0.837  14.135  1.00  0.00     0.208 HD
HETATM   11  C19 UNL     1     -21.035   1.381  15.930  1.00  0.00     0.719 A 
HETATM   12  N6  UNL     1     -22.138   1.731  16.616  1.00  0.00    -0.048 N 
ENDROOT
BRANCH   1  13
HETATM   13  C12 UNL     1     -26.899   2.598  16.595  1.00  0.00     0.128 C 
BRANCH  13  14
HETATM   14  C11 UNL     1     -26.757   3.468  17.799  1.00  0.00     0.020 C 
BRANCH  14  15
HETATM   15  C10 UNL     1     -27.976   3.260  18.673  1.00  0.00     0.002 C 
BRANCH  15  16
HETATM   16  C9  UNL     1     -27.578   3.053  20.130  1.00  0.00     0.002 C 
BRANCH  16  17
HETATM   17  C8  UNL     1     -27.992   1.663  20.486  1.00  0.00     0.020 C 
BRANCH  17  18
HETATM   18  C7  UNL     1     -29.221   1.137  19.851  1.00  0.00     0.128 C 
BRANCH  18  19
HETATM   19  N1  UNL     1     -29.298  -0.298  19.717  1.00  0.00    -0.360 N 
HETATM   20  C2  UNL     1     -29.251  -0.935  18.559  1.00  0.00     0.007 A 
HETATM   21  C1  UNL     1     -29.045  -0.230  17.262  1.00  0.00     0.068 C 
HETATM   22  C3  UNL     1     -29.366  -2.321  18.503  1.00  0.00     0.025 A 
HETATM   23  C4  UNL     1     -29.530  -3.051  19.641  1.00  0.00     0.003 A 
HETATM   24  C5  UNL     1     -29.573  -2.349  20.824  1.00  0.00     0.017 A 
HETATM   25  C6  UNL     1     -29.459  -0.989  20.869  1.00  0.00     0.091 A 
ENDBRANCH  18  19
ENDBRANCH  17  18
ENDBRANCH  16  17
ENDBRANCH  15  16
ENDBRANCH  14  15
ENDBRANCH  13  14
ENDBRANCH   1  13
BRANCH  12  26
HETATM   26  O2  UNL     1     -22.104   2.015  17.966  1.00  0.00    -0.269 OA
ATOM     27  H2  UNL     1     -21.863   2.893  18.237  1.00  0.00     0.245 HD
ENDBRANCH  12  26
BRANCH   8  28
HETATM   28  O1  UNL     1     -22.252   0.894  12.630  1.00  0.00    -0.267 OA
ATOM     29  H1  UNL     1     -22.891   1.367  12.110  1.00  0.00     0.247 HD
ENDBRANCH   8  28
BRANCH  11  30
HETATM   30  N5  UNL     1     -19.895   1.306  16.552  1.00  0.00    -0.231 N 
ATOM     31  H52 UNL     1     -19.694   0.490  17.131  1.00  0.00     0.174 HD
ATOM     32  H51 UNL     1     -19.245   2.082  16.428  1.00  0.00     0.174 HD
ENDBRANCH  11  30
TORSDOF 10
ENDMDL
MODEL 5
REMARK VINA RESULT: -7.175285329      2.066      3.600
REMARK  10 active torsions:
REMARK  status: ('A' for Active; 'I' for Inactive)
REMARK    1  A    between atoms: N1_7  and  C7_8 
REMARK    2  A    between atoms: C7_8  and  C8_9 
REMARK    3  A    between atoms: C8_9  and  C9_10 
REMARK    4  A    between atoms: C9_10  and  C10_11 
REMARK    5  A    between atoms: C10_11  and  C11_12 
REMARK    6  A    between atoms: C11_12  and  C12_13 
REMARK    7  A    between atoms: C12_13  and  N2_14 
REMARK    8  A    between atoms: N3_21  and  O1_22 
REMARK    9  A    between atoms: C19_26  and  N5_27 
REMARK   10  A    between atoms: N6_30  and  O2_31 
ROOT
HETATM    1  N2  UNL     1     -27.682   1.663  16.373  1.00  0.00    -0.358 N 
HETATM    2  C13 UNL     1     -26.923   1.452  15.272  1.00  0.00     0.126 A 
HETATM    3  C14 UNL     1     -25.555   1.591  15.261  1.00  0.00     0.127 A 
HETATM    4  C15 UNL     1     -24.897   1.964  16.419  1.00  0.00     0.114 A 
HETATM    5  C16 UNL     1     -25.671   2.178  17.538  1.00  0.00     0.061 A 
HETATM    6  C17 UNL     1     -27.062   2.026  17.508  1.00  0.00     0.009 A 
HETATM    7  C18 UNL     1     -27.797   2.279  18.773  1.00  0.00     0.068 C 
HETATM    8  N3  UNL     1     -23.548   2.110  16.445  1.00  0.00    -0.147 N 
HETATM    9  N4  UNL     1     -22.829   1.903  15.373  1.00  0.00    -0.103 N 
ATOM     10  H4  UNL     1     -21.816   2.013  15.389  1.00  0.00     0.208 HD
HETATM   11  C19 UNL     1     -23.467   1.542  14.250  1.00  0.00     0.719 A 
HETATM   12  N6  UNL     1     -24.802   1.383  14.172  1.00  0.00    -0.048 N 
ENDROOT
BRANCH   1  13
HETATM   13  C12 UNL     1     -29.101   1.523  16.390  1.00  0.00     0.128 C 
BRANCH  13  14
HETATM   14  C11 UNL     1     -29.609   0.144  16.127  1.00  0.00     0.020 C 
BRANCH  14  15
HETATM   15  C10 UNL     1     -30.083  -0.438  17.443  1.00  0.00     0.002 C 
BRANCH  15  16
HETATM   16  C9  UNL     1     -28.952  -1.166  18.160  1.00  0.00     0.002 C 
BRANCH  16  17
HETATM   17  C8  UNL     1     -29.583  -2.302  18.896  1.00  0.00     0.020 C 
BRANCH  17  18
HETATM   18  C7  UNL     1     -29.598  -2.228  20.375  1.00  0.00     0.128 C 
BRANCH  18  19
HETATM   19  N1  UNL     1     -30.503  -3.130  21.043  1.00  0.00    -0.360 N 
HETATM   20  C2  UNL     1     -31.693  -2.778  21.501  1.00  0.00     0.007 A 
HETATM   21  C1  UNL     1     -32.253  -1.409  21.311  1.00  0.00     0.068 C 
HETATM   22  C3  UNL     1     -32.500  -3.695  22.168  1.00  0.00     0.025 A 
HETATM   23  C4  UNL     1     -32.081  -4.976  22.362  1.00  0.00     0.003 A 
HETATM   24  C5  UNL     1     -30.838  -5.301  21.870  1.00  0.00     0.017 A 
HETATM   25  C6  UNL     1     -30.052  -4.394  21.217  1.00  0.00     0.091 A 
ENDBRANCH  18  19
ENDBRANCH  17  18
ENDBRANCH  16  17
ENDBRANCH  15  16
ENDBRANCH  14  15
ENDBRANCH  13  14
ENDBRANCH   1  13
BRANCH  12  26
HETATM   26  O2  UNL     1     -25.430   1.009  13.001  1.00  0.00    -0.269 OA
ATOM     27  H2  UNL     1     -25.817   1.687  12.460  1.00  0.00     0.245 HD
ENDBRANCH  12  26
BRANCH   8  28
HETATM   28  O1  UNL     1     -22.957   2.485  17.635  1.00  0.00    -0.267 OA
ATOM     29  H1  UNL     1     -22.579   1.806  18.181  1.00  0.00     0.247 HD
ENDBRANCH   8  28
BRANCH  11  30
HETATM   30  N5  UNL     1     -22.739   1.338  13.191  1.00  0.00    -0.231 N 
ATOM     31  H52 UNL     1     -22.202   2.111  12.798  1.00  0.00     0.174 HD
ATOM     32  H51 UNL     1     -22.742   0.397  12.798  1.00  0.00     0.174 HD
ENDBRANCH  11  30
TORSDOF 10
ENDMDL
