MODEL 1
REMARK VINA RESULT: -6.378265488      0.000      0.000
REMARK  9 active torsions:
REMARK  status: ('A' for Active; 'I' for Inactive)
REMARK    1  A    between atoms: C2_2  and  C3_3 
REMARK    2  A    between atoms: C3_3  and  C4_4 
REMARK    3  A    between atoms: C4_4  and  C5_5 
REMARK    4  A    between atoms: C5_5  and  C6_6 
REMARK    5  A    between atoms: C6_6  and  C7_7 
REMARK    6  A    between atoms: N1_10  and  N2_12 
REMARK    7  A    between atoms: N4_17  and  C10_18 
REMARK    8  A    between atoms: C10_18  and  C13_21 
REMARK    9  A    between atoms: C14_22  and  C15_23 
ROOT
HETATM    1  C7  UNL     1     -30.733  -0.168  16.054  1.00  0.00     0.085 C 
HETATM    2  C8  UNL     1     -30.998  -1.104  17.213  1.00  0.00     0.092 C 
HETATM    3  C9  UNL     1     -29.736  -0.908  17.992  1.00  0.00     0.104 C 
HETATM    4  N1  UNL     1     -29.039  -1.762  18.647  1.00  0.00    -0.275 N 
ATOM      5  H1  UNL     1     -28.199  -1.419  19.114  1.00  0.00     0.189 HD
HETATM    6  N4  UNL     1     -29.419   0.466  17.871  1.00  0.00    -0.285 N 
HETATM    7  C20 UNL     1     -30.129   1.004  16.736  1.00  0.00     0.231 C 
HETATM    8  O1  UNL     1     -30.233   2.189  16.377  1.00  0.00    -0.273 OA
ENDROOT
BRANCH   6   9
HETATM    9  C10 UNL     1     -28.549   1.227  18.713  1.00  0.00     0.098 C 
HETATM   10  C11 UNL     1     -28.220   0.555  20.012  1.00  0.00     0.053 C 
HETATM   11  C12 UNL     1     -29.152   2.587  19.070  1.00  0.00     0.053 C 
BRANCH   9  12
HETATM   12  C13 UNL     1     -27.305   1.450  17.935  1.00  0.00    -0.068 C 
HETATM   13  C14 UNL     1     -26.283   1.617  17.313  1.00  0.00    -0.045 C 
BRANCH  13  14
HETATM   14  C15 UNL     1     -25.057   1.797  16.586  1.00  0.00     0.103 A 
HETATM   15  C16 UNL     1     -24.854   1.553  15.243  1.00  0.00     0.130 A 
HETATM   16  N5  UNL     1     -23.559   1.844  14.925  1.00  0.00    -0.348 N 
HETATM   17  C17 UNL     1     -22.939   1.729  13.632  1.00  0.00     0.157 C 
HETATM   18  C18 UNL     1     -22.964   2.262  16.049  1.00  0.00     0.079 A 
HETATM   19  C19 UNL     1     -21.548   2.676  16.131  1.00  0.00     0.089 C 
HETATM   20  N6  UNL     1     -23.863   2.235  17.051  1.00  0.00    -0.338 N 
ATOM     21  H6  UNL     1     -23.673   2.503  18.016  1.00  0.00     0.168 HD
ENDBRANCH  13  14
ENDBRANCH   9  12
ENDBRANCH   6   9
BRANCH   4  22
HETATM   22  N2  UNL     1     -29.328  -3.102  18.774  1.00  0.00    -0.248 N 
HETATM   23  N3  UNL     1     -29.434  -3.580  19.957  1.00  0.00    -0.331 N 
ATOM     24  H32 UNL     1     -29.305  -2.975  20.768  1.00  0.00     0.178 HD
ATOM     25  H31 UNL     1     -29.648  -4.573  20.051  1.00  0.00     0.178 HD
ATOM     26  H2  UNL     1     -29.454  -3.695  17.954  1.00  0.00     0.207 HD
ENDBRANCH   4  22
BRANCH   1  27
HETATM   27  C6  UNL     1     -31.994   0.194  15.314  1.00  0.00     0.014 C 
BRANCH  27  28
HETATM   28  C5  UNL     1     -31.841   0.129  13.831  1.00  0.00     0.001 C 
BRANCH  28  29
HETATM   29  C4  UNL     1     -30.442  -0.162  13.381  1.00  0.00     0.000 C 
BRANCH  29  30
HETATM   30  C3  UNL     1     -29.725   1.015  12.797  1.00  0.00    -0.000 C 
BRANCH  30  31
HETATM   31  C2  UNL     1     -28.330   1.155  13.374  1.00  0.00    -0.005 C 
HETATM   32  C1  UNL     1     -28.024   2.594  13.701  1.00  0.00     0.005 C 
ENDBRANCH  30  31
ENDBRANCH  29  30
ENDBRANCH  28  29
ENDBRANCH  27  28
ENDBRANCH   1  27
TORSDOF 9
ENDMDL
MODEL 2
REMARK VINA RESULT: -6.267762176      3.302      7.703
REMARK  9 active torsions:
REMARK  status: ('A' for Active; 'I' for Inactive)
REMARK    1  A    between atoms: C2_2  and  C3_3 
REMARK    2  A    between atoms: C3_3  and  C4_4 
REMARK    3  A    between atoms: C4_4  and  C5_5 
REMARK    4  A    between atoms: C5_5  and  C6_6 
REMARK    5  A    between atoms: C6_6  and  C7_7 
REMARK    6  A    between atoms: N1_10  and  N2_12 
REMARK    7  A    between atoms: N4_17  and  C10_18 
REMARK    8  A    between atoms: C10_18  and  C13_21 
REMARK    9  A    between atoms: C14_22  and  C15_23 
ROOT
HETATM    1  C7  UNL     1     -26.855   1.347  16.281  1.00  0.00     0.085 C 
HETATM    2  C8  UNL     1     -25.445   1.672  15.836  1.00  0.00     0.092 C 
HETATM    3  C9  UNL     1     -25.663   1.773  14.359  1.00  0.00     0.104 C 
HETATM    4  N1  UNL     1     -24.906   1.398  13.395  1.00  0.00    -0.275 N 
ATOM      5  H1  UNL     1     -25.244   1.559  12.446  1.00  0.00     0.189 HD
HETATM    6  N4  UNL     1     -26.927   2.388  14.197  1.00  0.00    -0.285 N 
HETATM    7  C20 UNL     1     -27.664   2.256  15.431  1.00  0.00     0.231 C 
HETATM    8  O1  UNL     1     -28.748   2.777  15.745  1.00  0.00    -0.273 OA
ENDROOT
BRANCH   6   9
HETATM    9  C10 UNL     1     -27.423   3.042  13.026  1.00  0.00     0.098 C 
HETATM   10  C11 UNL     1     -26.431   3.117  11.906  1.00  0.00     0.053 C 
HETATM   11  C12 UNL     1     -27.855   4.481  13.320  1.00  0.00     0.053 C 
BRANCH   9  12
HETATM   12  C13 UNL     1     -28.614   2.270  12.591  1.00  0.00    -0.068 C 
HETATM   13  C14 UNL     1     -29.587   1.658  12.223  1.00  0.00    -0.045 C 
BRANCH  13  14
HETATM   14  C15 UNL     1     -30.750   0.945  11.768  1.00  0.00     0.103 A 
HETATM   15  C16 UNL     1     -31.617   0.205  12.546  1.00  0.00     0.130 A 
HETATM   16  N5  UNL     1     -32.596  -0.318  11.753  1.00  0.00    -0.348 N 
HETATM   17  C17 UNL     1     -33.695  -1.148  12.168  1.00  0.00     0.157 C 
HETATM   18  C18 UNL     1     -32.345   0.088  10.502  1.00  0.00     0.079 A 
HETATM   19  C19 UNL     1     -33.179  -0.265   9.334  1.00  0.00     0.089 C 
HETATM   20  N6  UNL     1     -31.234   0.849  10.508  1.00  0.00    -0.338 N 
ATOM     21  H6  UNL     1     -30.819   1.286   9.685  1.00  0.00     0.168 HD
ENDBRANCH  13  14
ENDBRANCH   9  12
ENDBRANCH   6   9
BRANCH   4  22
HETATM   22  N2  UNL     1     -23.675   0.795  13.531  1.00  0.00    -0.248 N 
HETATM   23  N3  UNL     1     -22.667   1.368  12.988  1.00  0.00    -0.331 N 
ATOM     24  H32 UNL     1     -22.789   2.241  12.474  1.00  0.00     0.178 HD
ATOM     25  H31 UNL     1     -21.756   0.921  13.089  1.00  0.00     0.178 HD
ATOM     26  H2  UNL     1     -23.569  -0.078  14.047  1.00  0.00     0.207 HD
ENDBRANCH   4  22
BRANCH   1  27
HETATM   27  C6  UNL     1     -27.063   1.609  17.749  1.00  0.00     0.014 C 
BRANCH  27  28
HETATM   28  C5  UNL     1     -27.583   0.420  18.488  1.00  0.00     0.001 C 
BRANCH  28  29
HETATM   29  C4  UNL     1     -28.872  -0.113  17.942  1.00  0.00     0.000 C 
BRANCH  29  30
HETATM   30  C3  UNL     1     -29.126  -1.553  18.259  1.00  0.00    -0.000 C 
BRANCH  30  31
HETATM   31  C2  UNL     1     -29.114  -1.801  19.755  1.00  0.00    -0.005 C 
HETATM   32  C1  UNL     1     -29.427  -3.243  20.064  1.00  0.00     0.005 C 
ENDBRANCH  30  31
ENDBRANCH  29  30
ENDBRANCH  28  29
ENDBRANCH  27  28
ENDBRANCH   1  27
TORSDOF 9
ENDMDL
MODEL 3
REMARK VINA RESULT: -6.157510923      2.388      7.368
REMARK  9 active torsions:
REMARK  status: ('A' for Active; 'I' for Inactive)
REMARK    1  A    between atoms: C2_2  and  C3_3 
REMARK    2  A    between atoms: C3_3  and  C4_4 
REMARK    3  A    between atoms: C4_4  and  C5_5 
REMARK    4  A    between atoms: C5_5  and  C6_6 
REMARK    5  A    between atoms: C6_6  and  C7_7 
REMARK    6  A    between atoms: N1_10  and  N2_12 
REMARK    7  A    between atoms: N4_17  and  C10_18 
REMARK    8  A    between atoms: C10_18  and  C13_21 
REMARK    9  A    between atoms: C14_22  and  C15_23 
ROOT
HETATM    1  C7  UNL     1     -24.812   2.100  14.672  1.00  0.00     0.085 C 
HETATM    2  C8  UNL     1     -24.967   1.760  16.139  1.00  0.00     0.092 C 
HETATM    3  C9  UNL     1     -26.426   2.045  16.312  1.00  0.00     0.104 C 
HETATM    4  N1  UNL     1     -27.043   2.571  17.305  1.00  0.00    -0.275 N 
ATOM      5  H1  UNL     1     -28.054   2.680  17.222  1.00  0.00     0.189 HD
HETATM    6  N4  UNL     1     -27.047   1.612  15.116  1.00  0.00    -0.285 N 
HETATM    7  C20 UNL     1     -26.041   1.509  14.087  1.00  0.00     0.231 C 
HETATM    8  O1  UNL     1     -26.148   1.033  12.944  1.00  0.00    -0.273 OA
ENDROOT
BRANCH   6   9
HETATM    9  C10 UNL     1     -28.432   1.316  14.924  1.00  0.00     0.098 C 
HETATM   10  C11 UNL     1     -28.728   0.599  13.642  1.00  0.00     0.053 C 
HETATM   11  C12 UNL     1     -29.288   2.585  14.918  1.00  0.00     0.053 C 
BRANCH   9  12
HETATM   12  C13 UNL     1     -28.843   0.474  16.075  1.00  0.00    -0.068 C 
HETATM   13  C14 UNL     1     -29.185  -0.194  17.021  1.00  0.00    -0.045 C 
BRANCH  13  14
HETATM   14  C15 UNL     1     -29.604  -0.970  18.156  1.00  0.00     0.103 A 
HETATM   15  C16 UNL     1     -30.608  -0.648  19.047  1.00  0.00     0.130 A 
HETATM   16  N5  UNL     1     -30.706  -1.633  19.987  1.00  0.00    -0.348 N 
HETATM   17  C17 UNL     1     -31.625  -1.686  21.091  1.00  0.00     0.157 C 
HETATM   18  C18 UNL     1     -29.780  -2.553  19.688  1.00  0.00     0.079 A 
HETATM   19  C19 UNL     1     -29.558  -3.788  20.469  1.00  0.00     0.089 C 
HETATM   20  N6  UNL     1     -29.114  -2.157  18.587  1.00  0.00    -0.338 N 
ATOM     21  H6  UNL     1     -28.355  -2.673  18.144  1.00  0.00     0.168 HD
ENDBRANCH  13  14
ENDBRANCH   9  12
ENDBRANCH   6   9
BRANCH   4  22
HETATM   22  N2  UNL     1     -26.458   3.001  18.475  1.00  0.00    -0.248 N 
HETATM   23  N3  UNL     1     -27.018   2.674  19.578  1.00  0.00    -0.331 N 
ATOM     24  H32 UNL     1     -27.871   2.113  19.574  1.00  0.00     0.178 HD
ATOM     25  H31 UNL     1     -26.585   2.993  20.445  1.00  0.00     0.178 HD
ATOM     26  H2  UNL     1     -25.606   3.562  18.464  1.00  0.00     0.207 HD
ENDBRANCH   4  22
BRANCH   1  27
HETATM   27  C6  UNL     1     -23.560   1.508  14.080  1.00  0.00     0.014 C 
BRANCH  27  28
HETATM   28  C5  UNL     1     -22.314   1.989  14.747  1.00  0.00     0.001 C 
BRANCH  28  29
HETATM   29  C4  UNL     1     -21.131   1.095  14.532  1.00  0.00     0.000 C 
BRANCH  29  30
HETATM   30  C3  UNL     1     -20.429   0.690  15.790  1.00  0.00    -0.000 C 
BRANCH  30  31
HETATM   31  C2  UNL     1     -20.814   1.586  16.951  1.00  0.00    -0.005 C 
HETATM   32  C1  UNL     1     -20.078   1.188  18.205  1.00  0.00     0.005 C 
ENDBRANCH  30  31
ENDBRANCH  29  30
ENDBRANCH  28  29
ENDBRANCH  27  28
ENDBRANCH   1  27
TORSDOF 9
ENDMDL
MODEL 4
REMARK VINA RESULT: -6.119708158      3.324      7.629
REMARK  9 active torsions:
REMARK  status: ('A' for Active; 'I' for Inactive)
REMARK    1  A    between atoms: C2_2  and  C3_3 
REMARK    2  A    between atoms: C3_3  and  C4_4 
REMARK    3  A    between atoms: C4_4  and  C5_5 
REMARK    4  A    between atoms: C5_5  and  C6_6 
REMARK    5  A    between atoms: C6_6  and  C7_7 
REMARK    6  A    between atoms: N1_10  and  N2_12 
REMARK    7  A    between atoms: N4_17  and  C10_18 
REMARK    8  A    between atoms: C10_18  and  C13_21 
REMARK    9  A    between atoms: C14_22  and  C15_23 
ROOT
HETATM    1  C7  UNL     1     -26.710   1.376  16.290  1.00  0.00     0.085 C 
HETATM    2  C8  UNL     1     -25.301   1.697  15.840  1.00  0.00     0.092 C 
HETATM    3  C9  UNL     1     -25.528   1.823  14.367  1.00  0.00     0.104 C 
HETATM    4  N1  UNL     1     -24.780   1.458  13.392  1.00  0.00    -0.275 N 
ATOM      5  H1  UNL     1     -25.124   1.637  12.448  1.00  0.00     0.189 HD
HETATM    6  N4  UNL     1     -26.788   2.450  14.224  1.00  0.00    -0.285 N 
HETATM    7  C20 UNL     1     -27.518   2.304  15.460  1.00  0.00     0.231 C 
HETATM    8  O1  UNL     1     -28.596   2.828  15.790  1.00  0.00    -0.273 OA
ENDROOT
BRANCH   6   9
HETATM    9  C10 UNL     1     -27.288   3.126  13.067  1.00  0.00     0.098 C 
HETATM   10  C11 UNL     1     -26.294   3.232  11.950  1.00  0.00     0.053 C 
HETATM   11  C12 UNL     1     -27.729   4.555  13.391  1.00  0.00     0.053 C 
BRANCH   9  12
HETATM   12  C13 UNL     1     -28.473   2.356  12.613  1.00  0.00    -0.068 C 
HETATM   13  C14 UNL     1     -29.448   1.741  12.257  1.00  0.00    -0.045 C 
BRANCH  13  14
HETATM   14  C15 UNL     1     -30.624   1.022  11.846  1.00  0.00     0.103 A 
HETATM   15  C16 UNL     1     -31.203   1.041  10.594  1.00  0.00     0.130 A 
HETATM   16  N5  UNL     1     -32.303   0.233  10.596  1.00  0.00    -0.348 N 
HETATM   17  C17 UNL     1     -33.187  -0.028   9.493  1.00  0.00     0.157 C 
HETATM   18  C18 UNL     1     -32.409  -0.281  11.828  1.00  0.00     0.079 A 
HETATM   19  C19 UNL     1     -33.476  -1.213  12.248  1.00  0.00     0.089 C 
HETATM   20  N6  UNL     1     -31.400   0.193  12.584  1.00  0.00    -0.338 N 
ATOM     21  H6  UNL     1     -31.243  -0.038  13.564  1.00  0.00     0.168 HD
ENDBRANCH  13  14
ENDBRANCH   9  12
ENDBRANCH   6   9
BRANCH   4  22
HETATM   22  N2  UNL     1     -23.553   0.844  13.510  1.00  0.00    -0.248 N 
HETATM   23  N3  UNL     1     -22.534   1.451  13.028  1.00  0.00    -0.331 N 
ATOM     24  H32 UNL     1     -22.644   2.358  12.574  1.00  0.00     0.178 HD
ATOM     25  H31 UNL     1     -21.625   0.997  13.115  1.00  0.00     0.178 HD
ATOM     26  H2  UNL     1     -23.458  -0.063  13.965  1.00  0.00     0.207 HD
ENDBRANCH   4  22
BRANCH   1  27
HETATM   27  C6  UNL     1     -26.906   1.616  17.764  1.00  0.00     0.014 C 
BRANCH  27  28
HETATM   28  C5  UNL     1     -27.478   0.436  18.478  1.00  0.00     0.001 C 
BRANCH  28  29
HETATM   29  C4  UNL     1     -28.775  -0.046  17.904  1.00  0.00     0.000 C 
BRANCH  29  30
HETATM   30  C3  UNL     1     -29.088  -1.478  18.208  1.00  0.00    -0.000 C 
BRANCH  30  31
HETATM   31  C2  UNL     1     -29.088  -1.739  19.702  1.00  0.00    -0.005 C 
HETATM   32  C1  UNL     1     -29.414  -3.181  19.996  1.00  0.00     0.005 C 
ENDBRANCH  30  31
ENDBRANCH  29  30
ENDBRANCH  28  29
ENDBRANCH  27  28
ENDBRANCH   1  27
TORSDOF 9
ENDMDL
MODEL 5
REMARK VINA RESULT: -6.036162832      3.246      5.454
REMARK  9 active torsions:
REMARK  status: ('A' for Active; 'I' for Inactive)
REMARK    1  A    between atoms: C2_2  and  C3_3 
REMARK    2  A    between atoms: C3_3  and  C4_4 
REMARK    3  A    between atoms: C4_4  and  C5_5 
REMARK    4  A    between atoms: C5_5  and  C6_6 
REMARK    5  A    between atoms: C6_6  and  C7_7 
REMARK    6  A    between atoms: N1_10  and  N2_12 
REMARK    7  A    between atoms: N4_17  and  C10_18 
REMARK    8  A    between atoms: C10_18  and  C13_21 
REMARK    9  A    between atoms: C14_22  and  C15_23 
ROOT
HETATM    1  C7  UNL     1     -29.853   1.103  15.017  1.00  0.00     0.085 C 
HETATM    2  C8  UNL     1     -29.904   0.304  13.733  1.00  0.00     0.092 C 
HETATM    3  C9  UNL     1     -29.397   1.335  12.773  1.00  0.00     0.104 C 
HETATM    4  N1  UNL     1     -29.761   1.576  11.567  1.00  0.00    -0.275 N 
ATOM      5  H1  UNL     1     -29.283   2.334  11.079  1.00  0.00     0.189 HD
HETATM    6  N4  UNL     1     -28.389   2.044  13.468  1.00  0.00    -0.285 N 
HETATM    7  C20 UNL     1     -28.561   1.821  14.883  1.00  0.00     0.231 C 
HETATM    8  O1  UNL     1     -27.808   2.148  15.816  1.00  0.00    -0.273 OA
ENDROOT
BRANCH   6   9
HETATM    9  C10 UNL     1     -27.358   2.854  12.897  1.00  0.00     0.098 C 
HETATM   10  C11 UNL     1     -27.526   4.321  13.152  1.00  0.00     0.053 C 
HETATM   11  C12 UNL     1     -27.278   2.683  11.378  1.00  0.00     0.053 C 
BRANCH   9  12
HETATM   12  C13 UNL     1     -26.082   2.384  13.494  1.00  0.00    -0.068 C 
HETATM   13  C14 UNL     1     -25.038   2.023  13.980  1.00  0.00    -0.045 C 
BRANCH  13  14
HETATM   14  C15 UNL     1     -23.789   1.615  14.564  1.00  0.00     0.103 A 
HETATM   15  C16 UNL     1     -23.177   2.172  15.668  1.00  0.00     0.130 A 
HETATM   16  N5  UNL     1     -22.007   1.512  15.913  1.00  0.00    -0.348 N 
HETATM   17  C17 UNL     1     -21.070   1.777  16.970  1.00  0.00     0.157 C 
HETATM   18  C18 UNL     1     -21.891   0.561  14.978  1.00  0.00     0.079 A 
HETATM   19  C19 UNL     1     -20.754  -0.379  14.890  1.00  0.00     0.089 C 
HETATM   20  N6  UNL     1     -22.962   0.621  14.163  1.00  0.00    -0.338 N 
ATOM     21  H6  UNL     1     -23.125   0.009  13.364  1.00  0.00     0.168 HD
ENDBRANCH  13  14
ENDBRANCH   9  12
ENDBRANCH   6   9
BRANCH   4  22
HETATM   22  N2  UNL     1     -30.741   0.899  10.876  1.00  0.00    -0.248 N 
HETATM   23  N3  UNL     1     -31.081   1.352   9.728  1.00  0.00    -0.331 N 
ATOM     24  H32 UNL     1     -30.631   2.188   9.352  1.00  0.00     0.178 HD
ATOM     25  H31 UNL     1     -31.806   0.851   9.215  1.00  0.00     0.178 HD
ATOM     26  H2  UNL     1     -31.181   0.066  11.264  1.00  0.00     0.207 HD
ENDBRANCH   4  22
BRANCH   1  27
HETATM   27  C6  UNL     1     -29.887   0.221  16.238  1.00  0.00     0.014 C 
BRANCH  27  28
HETATM   28  C5  UNL     1     -31.193  -0.481  16.416  1.00  0.00     0.001 C 
BRANCH  28  29
HETATM   29  C4  UNL     1     -31.240  -1.371  17.620  1.00  0.00     0.000 C 
BRANCH  29  30
HETATM   30  C3  UNL     1     -30.011  -1.320  18.472  1.00  0.00    -0.000 C 
BRANCH  30  31
HETATM   31  C2  UNL     1     -29.392  -2.694  18.634  1.00  0.00    -0.005 C 
HETATM   32  C1  UNL     1     -29.428  -3.135  20.075  1.00  0.00     0.005 C 
ENDBRANCH  30  31
ENDBRANCH  29  30
ENDBRANCH  28  29
ENDBRANCH  27  28
ENDBRANCH   1  27
TORSDOF 9
ENDMDL
