MODEL 1
REMARK VINA RESULT: -5.964319891      0.000      0.000
REMARK  14 active torsions:
REMARK  status: ('A' for Active; 'I' for Inactive)
REMARK    1  A    between atoms: N2_4  and  C4_6 
REMARK    2  A    between atoms: C4_6  and  C5_7 
REMARK    3  A    between atoms: C5_7  and  C6_8 
REMARK    4  A    between atoms: C6_8  and  C7_9 
REMARK    5  A    between atoms: C7_9  and  N3_10 
REMARK    6  A    between atoms: C9_14  and  N5_15 
REMARK    7  A    between atoms: N5_15  and  C10_17 
REMARK    8  A    between atoms: N7_20  and  C11_21 
REMARK    9  A    between atoms: C11_21  and  C12_22 
REMARK   10  A    between atoms: C12_22  and  C13_23 
REMARK   11  A    between atoms: C13_23  and  C14_24 
REMARK   12  A    between atoms: C14_24  and  C15_25 
REMARK   13  A    between atoms: C15_25  and  C16_26 
REMARK   14  A    between atoms: C16_26  and  N8_27 
ROOT
HETATM    1  N3  UNL     1     -26.420   2.198  15.084  1.00  0.00    -0.260 N 
HETATM    2  C8  UNL     1     -27.587   2.786  14.805  1.00  0.00     0.219 A 
HETATM    3  N4  UNL     1     -27.635   3.102  13.516  1.00  0.00    -0.185 N 
ATOM      4  H4  UNL     1     -28.407   3.560  13.032  1.00  0.00     0.185 HD
HETATM    5  C9  UNL     1     -26.426   2.690  12.951  1.00  0.00     0.702 A 
HETATM    6  N7  UNL     1     -25.723   2.143  13.950  1.00  0.00    -0.120 N 
ENDROOT
BRANCH   1   7
HETATM    7  C7  UNL     1     -25.970   1.709  16.344  1.00  0.00     0.244 C 
BRANCH   7   8
HETATM    8  C6  UNL     1     -27.145   1.530  17.233  1.00  0.00    -0.083 C 
BRANCH   8   9
HETATM    9  C5  UNL     1     -28.108   1.403  17.951  1.00  0.00    -0.076 C 
BRANCH   9  10
HETATM   10  C4  UNL     1     -29.266   1.271  18.802  1.00  0.00     0.337 C 
BRANCH  10  11
HETATM   11  N2  UNL     1     -28.973   0.405  19.899  1.00  0.00    -0.026 N 
HETATM   12  C2  UNL     1     -28.581  -0.888  19.465  1.00  0.00     0.292 C 
HETATM   13  N1  UNL     1     -29.458  -1.777  19.625  1.00  0.00    -0.373 N 
HETATM   14  C1  UNL     1     -29.381  -3.186  19.293  1.00  0.00     0.150 C 
HETATM   15  C18 UNL     1     -30.626  -1.210  20.212  1.00  0.00     0.151 C 
HETATM   16  C17 UNL     1     -30.158   0.124  20.706  1.00  0.00     0.265 C 
HETATM   17  C3  UNL     1     -27.946   0.902  20.782  1.00  0.00     0.281 C 
ENDBRANCH  10  11
ENDBRANCH   9  10
ENDBRANCH   8   9
ENDBRANCH   7   8
ENDBRANCH   1   7
BRANCH   6  18
HETATM   18  C11 UNL     1     -24.439   1.568  13.821  1.00  0.00     0.168 C 
BRANCH  18  19
HETATM   19  C12 UNL     1     -23.265   2.477  13.772  1.00  0.00     0.022 C 
BRANCH  19  20
HETATM   20  C13 UNL     1     -22.461   2.235  15.033  1.00  0.00     0.002 C 
BRANCH  20  21
HETATM   21  C14 UNL     1     -21.678   0.970  15.031  1.00  0.00     0.002 C 
BRANCH  21  22
HETATM   22  C15 UNL     1     -20.486   1.060  15.951  1.00  0.00     0.027 C 
BRANCH  22  23
HETATM   23  C16 UNL     1     -20.828   1.907  17.168  1.00  0.00     0.229 C 
BRANCH  23  24
HETATM   24  N8  UNL     1     -19.640   2.312  17.881  1.00  0.00    -0.079 N 
ATOM     25  H83 UNL     1     -18.795   2.092  17.354  1.00  0.00     0.274 HD
ATOM     26  H82 UNL     1     -19.548   3.327  17.908  1.00  0.00     0.274 HD
ATOM     27  H81 UNL     1     -19.611   1.908  18.817  1.00  0.00     0.274 HD
ENDBRANCH  23  24
ENDBRANCH  22  23
ENDBRANCH  21  22
ENDBRANCH  20  21
ENDBRANCH  19  20
ENDBRANCH  18  19
ENDBRANCH   6  18
BRANCH   5  28
HETATM   28  N5  UNL     1     -26.241   2.901  11.721  1.00  0.00    -0.167 N 
ATOM     29  H5  UNL     1     -26.480   2.084  11.159  1.00  0.00     0.186 HD
BRANCH  28  30
HETATM   30  C10 UNL     1     -25.805   3.935  10.944  1.00  0.00     0.199 C 
HETATM   31  N6  UNL     1     -24.512   3.991  10.300  1.00  0.00    -0.069 NA
HETATM   32  S1  UNL     1     -26.769   5.256  10.719  1.00  0.00    -0.044 SA
ENDBRANCH  28  30
ENDBRANCH   5  28
TORSDOF 14
ENDMDL
MODEL 2
REMARK VINA RESULT: -5.911256287      0.980      1.572
REMARK  14 active torsions:
REMARK  status: ('A' for Active; 'I' for Inactive)
REMARK    1  A    between atoms: N2_4  and  C4_6 
REMARK    2  A    between atoms: C4_6  and  C5_7 
REMARK    3  A    between atoms: C5_7  and  C6_8 
REMARK    4  A    between atoms: C6_8  and  C7_9 
REMARK    5  A    between atoms: C7_9  and  N3_10 
REMARK    6  A    between atoms: C9_14  and  N5_15 
REMARK    7  A    between atoms: N5_15  and  C10_17 
REMARK    8  A    between atoms: N7_20  and  C11_21 
REMARK    9  A    between atoms: C11_21  and  C12_22 
REMARK   10  A    between atoms: C12_22  and  C13_23 
REMARK   11  A    between atoms: C13_23  and  C14_24 
REMARK   12  A    between atoms: C14_24  and  C15_25 
REMARK   13  A    between atoms: C15_25  and  C16_26 
REMARK   14  A    between atoms: C16_26  and  N8_27 
ROOT
HETATM    1  N3  UNL     1     -26.353   2.307  15.229  1.00  0.00    -0.260 N 
HETATM    2  C8  UNL     1     -27.539   2.871  14.980  1.00  0.00     0.219 A 
HETATM    3  N4  UNL     1     -27.668   3.090  13.677  1.00  0.00    -0.185 N 
ATOM      4  H4  UNL     1     -28.471   3.508  13.208  1.00  0.00     0.185 HD
HETATM    5  C9  UNL     1     -26.493   2.639  13.070  1.00  0.00     0.702 A 
HETATM    6  N7  UNL     1     -25.726   2.170  14.062  1.00  0.00    -0.120 N 
ENDROOT
BRANCH   1   7
HETATM    7  C7  UNL     1     -25.823   1.916  16.492  1.00  0.00     0.244 C 
BRANCH   7   8
HETATM    8  C6  UNL     1     -26.885   1.216  17.258  1.00  0.00    -0.083 C 
BRANCH   8   9
HETATM    9  C5  UNL     1     -27.756   0.667  17.888  1.00  0.00    -0.076 C 
BRANCH   9  10
HETATM   10  C4  UNL     1     -28.801   0.027  18.652  1.00  0.00     0.337 C 
BRANCH  10  11
HETATM   11  N2  UNL     1     -29.145   0.830  19.782  1.00  0.00    -0.026 N 
HETATM   12  C2  UNL     1     -28.006   1.173  20.556  1.00  0.00     0.292 C 
HETATM   13  N1  UNL     1     -27.908   0.544  21.642  1.00  0.00    -0.373 N 
HETATM   14  C1  UNL     1     -26.876   0.654  22.655  1.00  0.00     0.150 C 
HETATM   15  C18 UNL     1     -29.000  -0.359  21.783  1.00  0.00     0.151 C 
HETATM   16  C17 UNL     1     -29.972   0.099  20.740  1.00  0.00     0.265 C 
HETATM   17  C3  UNL     1     -29.834   2.052  19.447  1.00  0.00     0.281 C 
ENDBRANCH  10  11
ENDBRANCH   9  10
ENDBRANCH   8   9
ENDBRANCH   7   8
ENDBRANCH   1   7
BRANCH   6  18
HETATM   18  C11 UNL     1     -24.449   1.590  13.897  1.00  0.00     0.168 C 
BRANCH  18  19
HETATM   19  C12 UNL     1     -23.282   2.497  13.742  1.00  0.00     0.022 C 
BRANCH  19  20
HETATM   20  C13 UNL     1     -22.423   2.335  14.980  1.00  0.00     0.002 C 
BRANCH  20  21
HETATM   21  C14 UNL     1     -21.816   0.986  15.136  1.00  0.00     0.002 C 
BRANCH  21  22
HETATM   22  C15 UNL     1     -20.599   1.031  16.027  1.00  0.00     0.027 C 
BRANCH  22  23
HETATM   23  C16 UNL     1     -20.655   2.259  16.924  1.00  0.00     0.229 C 
BRANCH  23  24
HETATM   24  N8  UNL     1     -19.625   2.222  17.935  1.00  0.00    -0.079 N 
ATOM     25  H83 UNL     1     -18.965   1.462  17.768  1.00  0.00     0.274 HD
ATOM     26  H82 UNL     1     -18.984   3.009  17.845  1.00  0.00     0.274 HD
ATOM     27  H81 UNL     1     -20.024   2.170  18.872  1.00  0.00     0.274 HD
ENDBRANCH  23  24
ENDBRANCH  22  23
ENDBRANCH  21  22
ENDBRANCH  20  21
ENDBRANCH  19  20
ENDBRANCH  18  19
ENDBRANCH   6  18
BRANCH   5  28
HETATM   28  N5  UNL     1     -26.385   2.759  11.819  1.00  0.00    -0.167 N 
ATOM     29  H5  UNL     1     -26.603   1.886  11.338  1.00  0.00     0.186 HD
BRANCH  28  30
HETATM   30  C10 UNL     1     -26.053   3.749  10.939  1.00  0.00     0.199 C 
HETATM   31  N6  UNL     1     -24.707   4.042  10.502  1.00  0.00    -0.069 NA
HETATM   32  S1  UNL     1     -27.230   4.732  10.328  1.00  0.00    -0.044 SA
ENDBRANCH  28  30
ENDBRANCH   5  28
TORSDOF 14
ENDMDL
MODEL 3
REMARK VINA RESULT: -5.904994607      2.756      5.332
REMARK  14 active torsions:
REMARK  status: ('A' for Active; 'I' for Inactive)
REMARK    1  A    between atoms: N2_4  and  C4_6 
REMARK    2  A    between atoms: C4_6  and  C5_7 
REMARK    3  A    between atoms: C5_7  and  C6_8 
REMARK    4  A    between atoms: C6_8  and  C7_9 
REMARK    5  A    between atoms: C7_9  and  N3_10 
REMARK    6  A    between atoms: C9_14  and  N5_15 
REMARK    7  A    between atoms: N5_15  and  C10_17 
REMARK    8  A    between atoms: N7_20  and  C11_21 
REMARK    9  A    between atoms: C11_21  and  C12_22 
REMARK   10  A    between atoms: C12_22  and  C13_23 
REMARK   11  A    between atoms: C13_23  and  C14_24 
REMARK   12  A    between atoms: C14_24  and  C15_25 
REMARK   13  A    between atoms: C15_25  and  C16_26 
REMARK   14  A    between atoms: C16_26  and  N8_27 
ROOT
HETATM    1  N3  UNL     1     -26.766   2.313  16.858  1.00  0.00    -0.260 N 
HETATM    2  C8  UNL     1     -25.929   2.990  17.650  1.00  0.00     0.219 A 
HETATM    3  N4  UNL     1     -24.681   2.829  17.227  1.00  0.00    -0.185 N 
ATOM      4  H4  UNL     1     -23.842   3.232  17.644  1.00  0.00     0.185 HD
HETATM    5  C9  UNL     1     -24.735   2.000  16.104  1.00  0.00     0.702 A 
HETATM    6  N7  UNL     1     -26.030   1.717  15.922  1.00  0.00    -0.120 N 
ENDROOT
BRANCH   1   7
HETATM    7  C7  UNL     1     -28.184   2.222  16.965  1.00  0.00     0.244 C 
BRANCH   7   8
HETATM    8  C6  UNL     1     -28.520   1.365  18.130  1.00  0.00    -0.083 C 
BRANCH   8   9
HETATM    9  C5  UNL     1     -28.786   0.684  19.091  1.00  0.00    -0.076 C 
BRANCH   9  10
HETATM   10  C4  UNL     1     -29.084  -0.128  20.247  1.00  0.00     0.337 C 
BRANCH  10  11
HETATM   11  N2  UNL     1     -30.132  -1.049  19.943  1.00  0.00    -0.026 N 
HETATM   12  C2  UNL     1     -30.242  -2.070  20.922  1.00  0.00     0.292 C 
HETATM   13  N1  UNL     1     -29.805  -3.192  20.554  1.00  0.00    -0.373 N 
HETATM   14  C1  UNL     1     -29.769  -4.433  21.302  1.00  0.00     0.150 C 
HETATM   15  C18 UNL     1     -29.311  -3.109  19.220  1.00  0.00     0.151 C 
HETATM   16  C17 UNL     1     -29.857  -1.806  18.724  1.00  0.00     0.265 C 
HETATM   17  C3  UNL     1     -31.429  -0.436  19.799  1.00  0.00     0.281 C 
ENDBRANCH  10  11
ENDBRANCH   9  10
ENDBRANCH   8   9
ENDBRANCH   7   8
ENDBRANCH   1   7
BRANCH   6  18
HETATM   18  C11 UNL     1     -26.549   0.922  14.875  1.00  0.00     0.168 C 
BRANCH  18  19
HETATM   19  C12 UNL     1     -26.897   1.590  13.595  1.00  0.00     0.022 C 
BRANCH  19  20
HETATM   20  C13 UNL     1     -28.379   1.370  13.366  1.00  0.00     0.002 C 
BRANCH  20  21
HETATM   21  C14 UNL     1     -28.872   0.026  13.771  1.00  0.00     0.002 C 
BRANCH  21  22
HETATM   22  C15 UNL     1     -30.368   0.028  13.970  1.00  0.00     0.027 C 
BRANCH  22  23
HETATM   23  C16 UNL     1     -30.697   0.000  15.456  1.00  0.00     0.229 C 
BRANCH  23  24
HETATM   24  N8  UNL     1     -31.880  -0.785  15.720  1.00  0.00    -0.079 N 
ATOM     25  H83 UNL     1     -32.281  -1.157  14.859  1.00  0.00     0.274 HD
ATOM     26  H82 UNL     1     -31.648  -1.665  16.179  1.00  0.00     0.274 HD
ATOM     27  H81 UNL     1     -32.568  -0.254  16.254  1.00  0.00     0.274 HD
ENDBRANCH  23  24
ENDBRANCH  22  23
ENDBRANCH  21  22
ENDBRANCH  20  21
ENDBRANCH  19  20
ENDBRANCH  18  19
ENDBRANCH   6  18
BRANCH   5  28
HETATM   28  N5  UNL     1     -23.651   1.697  15.535  1.00  0.00    -0.167 N 
ATOM     29  H5  UNL     1     -23.781   0.947  14.855  1.00  0.00     0.186 HD
BRANCH  28  30
HETATM   30  C10 UNL     1     -22.350   2.108  15.588  1.00  0.00     0.199 C 
HETATM   31  N6  UNL     1     -21.926   3.459  15.877  1.00  0.00    -0.069 NA
HETATM   32  S1  UNL     1     -21.137   1.034  15.272  1.00  0.00    -0.044 SA
ENDBRANCH  28  30
ENDBRANCH   5  28
TORSDOF 14
ENDMDL
MODEL 4
REMARK VINA RESULT: -5.903266950      1.285      1.797
REMARK  14 active torsions:
REMARK  status: ('A' for Active; 'I' for Inactive)
REMARK    1  A    between atoms: N2_4  and  C4_6 
REMARK    2  A    between atoms: C4_6  and  C5_7 
REMARK    3  A    between atoms: C5_7  and  C6_8 
REMARK    4  A    between atoms: C6_8  and  C7_9 
REMARK    5  A    between atoms: C7_9  and  N3_10 
REMARK    6  A    between atoms: C9_14  and  N5_15 
REMARK    7  A    between atoms: N5_15  and  C10_17 
REMARK    8  A    between atoms: N7_20  and  C11_21 
REMARK    9  A    between atoms: C11_21  and  C12_22 
REMARK   10  A    between atoms: C12_22  and  C13_23 
REMARK   11  A    between atoms: C13_23  and  C14_24 
REMARK   12  A    between atoms: C14_24  and  C15_25 
REMARK   13  A    between atoms: C15_25  and  C16_26 
REMARK   14  A    between atoms: C16_26  and  N8_27 
ROOT
HETATM    1  N3  UNL     1     -25.553   2.021  14.735  1.00  0.00    -0.260 N 
HETATM    2  C8  UNL     1     -26.777   2.158  14.216  1.00  0.00     0.219 A 
HETATM    3  N4  UNL     1     -26.694   2.700  13.007  1.00  0.00    -0.185 N 
ATOM      4  H4  UNL     1     -27.473   2.917  12.384  1.00  0.00     0.185 HD
HETATM    5  C9  UNL     1     -25.339   2.918  12.750  1.00  0.00     0.702 A 
HETATM    6  N7  UNL     1     -24.687   2.484  13.836  1.00  0.00    -0.120 N 
ENDROOT
BRANCH   1   7
HETATM    7  C7  UNL     1     -25.201   1.486  16.008  1.00  0.00     0.244 C 
BRANCH   7   8
HETATM    8  C6  UNL     1     -26.398   1.516  16.885  1.00  0.00    -0.083 C 
BRANCH   8   9
HETATM    9  C5  UNL     1     -27.360   1.547  17.615  1.00  0.00    -0.076 C 
BRANCH   9  10
HETATM   10  C4  UNL     1     -28.508   1.605  18.489  1.00  0.00     0.337 C 
BRANCH  10  11
HETATM   11  N2  UNL     1     -29.316   0.441  18.316  1.00  0.00    -0.026 N 
HETATM   12  C2  UNL     1     -30.436   0.437  19.187  1.00  0.00     0.292 C 
HETATM   13  N1  UNL     1     -30.339  -0.365  20.153  1.00  0.00    -0.373 N 
HETATM   14  C1  UNL     1     -31.295  -0.614  21.214  1.00  0.00     0.150 C 
HETATM   15  C18 UNL     1     -29.095  -1.056  20.091  1.00  0.00     0.151 C 
HETATM   16  C17 UNL     1     -28.608  -0.778  18.702  1.00  0.00     0.265 C 
HETATM   17  C3  UNL     1     -29.804   0.259  16.971  1.00  0.00     0.281 C 
ENDBRANCH  10  11
ENDBRANCH   9  10
ENDBRANCH   8   9
ENDBRANCH   7   8
ENDBRANCH   1   7
BRANCH   6  18
HETATM   18  C11 UNL     1     -23.283   2.491  13.997  1.00  0.00     0.168 C 
BRANCH  18  19
HETATM   19  C12 UNL     1     -22.520   1.299  13.547  1.00  0.00     0.022 C 
BRANCH  19  20
HETATM   20  C13 UNL     1     -21.956   0.636  14.787  1.00  0.00     0.002 C 
BRANCH  20  21
HETATM   21  C14 UNL     1     -20.843   1.382  15.433  1.00  0.00     0.002 C 
BRANCH  21  22
HETATM   22  C15 UNL     1     -21.162   1.709  16.871  1.00  0.00     0.027 C 
BRANCH  22  23
HETATM   23  C16 UNL     1     -20.007   1.292  17.770  1.00  0.00     0.229 C 
BRANCH  23  24
HETATM   24  N8  UNL     1     -19.059   0.466  17.062  1.00  0.00    -0.079 N 
ATOM     25  H83 UNL     1     -19.113   0.614  16.054  1.00  0.00     0.274 HD
ATOM     26  H82 UNL     1     -18.101   0.781  17.216  1.00  0.00     0.274 HD
ATOM     27  H81 UNL     1     -19.171  -0.519  17.301  1.00  0.00     0.274 HD
ENDBRANCH  23  24
ENDBRANCH  22  23
ENDBRANCH  21  22
ENDBRANCH  20  21
ENDBRANCH  19  20
ENDBRANCH  18  19
ENDBRANCH   6  18
BRANCH   5  28
HETATM   28  N5  UNL     1     -25.018   3.444  11.649  1.00  0.00    -0.167 N 
ATOM     29  H5  UNL     1     -24.016   3.630  11.599  1.00  0.00     0.186 HD
BRANCH  28  30
HETATM   30  C10 UNL     1     -25.658   3.828  10.505  1.00  0.00     0.199 C 
HETATM   31  N6  UNL     1     -26.476   2.960   9.690  1.00  0.00    -0.069 NA
HETATM   32  S1  UNL     1     -25.491   5.374   9.952  1.00  0.00    -0.044 SA
ENDBRANCH  28  30
ENDBRANCH   5  28
TORSDOF 14
ENDMDL
MODEL 5
REMARK VINA RESULT: -5.877386958      1.301      1.612
REMARK  14 active torsions:
REMARK  status: ('A' for Active; 'I' for Inactive)
REMARK    1  A    between atoms: N2_4  and  C4_6 
REMARK    2  A    between atoms: C4_6  and  C5_7 
REMARK    3  A    between atoms: C5_7  and  C6_8 
REMARK    4  A    between atoms: C6_8  and  C7_9 
REMARK    5  A    between atoms: C7_9  and  N3_10 
REMARK    6  A    between atoms: C9_14  and  N5_15 
REMARK    7  A    between atoms: N5_15  and  C10_17 
REMARK    8  A    between atoms: N7_20  and  C11_21 
REMARK    9  A    between atoms: C11_21  and  C12_22 
REMARK   10  A    between atoms: C12_22  and  C13_23 
REMARK   11  A    between atoms: C13_23  and  C14_24 
REMARK   12  A    between atoms: C14_24  and  C15_25 
REMARK   13  A    between atoms: C15_25  and  C16_26 
REMARK   14  A    between atoms: C16_26  and  N8_27 
ROOT
HETATM    1  N3  UNL     1     -26.320   2.195  15.304  1.00  0.00    -0.260 N 
HETATM    2  C8  UNL     1     -27.500   2.788  15.097  1.00  0.00     0.219 A 
HETATM    3  N4  UNL     1     -27.630   3.092  13.811  1.00  0.00    -0.185 N 
ATOM      4  H4  UNL     1     -28.431   3.549  13.374  1.00  0.00     0.185 HD
HETATM    5  C9  UNL     1     -26.464   2.667  13.172  1.00  0.00     0.702 A 
HETATM    6  N7  UNL     1     -25.699   2.126  14.128  1.00  0.00    -0.120 N 
ENDROOT
BRANCH   1   7
HETATM    7  C7  UNL     1     -25.790   1.716  16.537  1.00  0.00     0.244 C 
BRANCH   7   8
HETATM    8  C6  UNL     1     -26.916   1.441  17.465  1.00  0.00    -0.083 C 
BRANCH   8   9
HETATM    9  C5  UNL     1     -27.818   1.207  18.232  1.00  0.00    -0.076 C 
BRANCH   9  10
HETATM   10  C4  UNL     1     -28.905   0.945  19.146  1.00  0.00     0.337 C 
BRANCH  10  11
HETATM   11  N2  UNL     1     -29.610  -0.230  18.747  1.00  0.00    -0.026 N 
HETATM   12  C2  UNL     1     -29.995  -0.181  17.382  1.00  0.00     0.292 C 
HETATM   13  N1  UNL     1     -31.222   0.032  17.196  1.00  0.00    -0.373 N 
HETATM   14  C1  UNL     1     -31.936   0.140  15.939  1.00  0.00     0.150 C 
HETATM   15  C18 UNL     1     -31.888   0.168  18.448  1.00  0.00     0.151 C 
HETATM   16  C17 UNL     1     -30.893  -0.358  19.435  1.00  0.00     0.265 C 
HETATM   17  C3  UNL     1     -28.876  -1.455  18.952  1.00  0.00     0.281 C 
ENDBRANCH  10  11
ENDBRANCH   9  10
ENDBRANCH   8   9
ENDBRANCH   7   8
ENDBRANCH   1   7
BRANCH   6  18
HETATM   18  C11 UNL     1     -24.429   1.543  13.920  1.00  0.00     0.168 C 
BRANCH  18  19
HETATM   19  C12 UNL     1     -23.255   2.444  13.800  1.00  0.00     0.022 C 
BRANCH  19  20
HETATM   20  C13 UNL     1     -22.408   2.241  15.040  1.00  0.00     0.002 C 
BRANCH  20  21
HETATM   21  C14 UNL     1     -21.647   0.963  15.064  1.00  0.00     0.002 C 
BRANCH  21  22
HETATM   22  C15 UNL     1     -20.477   1.038  16.013  1.00  0.00     0.027 C 
BRANCH  22  23
HETATM   23  C16 UNL     1     -20.816   1.941  17.190  1.00  0.00     0.229 C 
BRANCH  23  24
HETATM   24  N8  UNL     1     -19.642   2.257  17.968  1.00  0.00    -0.079 N 
ATOM     25  H83 UNL     1     -18.841   1.694  17.681  1.00  0.00     0.274 HD
ATOM     26  H82 UNL     1     -19.277   3.180  17.735  1.00  0.00     0.274 HD
ATOM     27  H81 UNL     1     -19.822   2.167  18.968  1.00  0.00     0.274 HD
ENDBRANCH  23  24
ENDBRANCH  22  23
ENDBRANCH  21  22
ENDBRANCH  20  21
ENDBRANCH  19  20
ENDBRANCH  18  19
ENDBRANCH   6  18
BRANCH   5  28
HETATM   28  N5  UNL     1     -26.358   2.866  11.930  1.00  0.00    -0.167 N 
ATOM     29  H5  UNL     1     -26.658   2.052  11.393  1.00  0.00     0.186 HD
BRANCH  28  30
HETATM   30  C10 UNL     1     -25.950   3.883  11.116  1.00  0.00     0.199 C 
HETATM   31  N6  UNL     1     -24.655   3.956  10.478  1.00  0.00    -0.069 NA
HETATM   32  S1  UNL     1     -26.953   5.164  10.837  1.00  0.00    -0.044 SA
ENDBRANCH  28  30
ENDBRANCH   5  28
TORSDOF 14
ENDMDL
