MODEL 1
REMARK VINA RESULT: -9.129076540      0.000      0.000
REMARK  9 active torsions:
REMARK  status: ('A' for Active; 'I' for Inactive)
REMARK    1  A    between atoms: C2_4  and  O1_5 
REMARK    2  A    between atoms: C3_7  and  O2_8 
REMARK    3  A    between atoms: C4_10  and  N3_11 
REMARK    4  A    between atoms: N3_11  and  N4_13 
REMARK    5  A    between atoms: C7_21  and  N8_22 
REMARK    6  A    between atoms: N8_22  and  N9_24 
REMARK    7  A    between atoms: C8_27  and  C9_28 
REMARK    8  A    between atoms: N11_30  and  N12_32 
REMARK       I    between atoms: N12_32  and  C10_34 
REMARK       I    between atoms: C10_34  and  N13_36 
REMARK    9  A    between atoms: N13_36  and  N14_38 
ROOT
HETATM    1  N1  UNL     1     -14.556  11.805  31.431  1.00  0.00    -0.171 NA
HETATM    2  C1  UNL     1     -14.806  10.799  30.885  1.00  0.00     0.191 C 
HETATM    3  N2  UNL     1     -15.111   9.566  30.249  1.00  0.00    -0.220 N 
HETATM    4  C2  UNL     1     -15.477   8.482  30.916  1.00  0.00     0.193 A 
HETATM    5  C3  UNL     1     -15.695   7.475  29.945  1.00  0.00     0.149 A 
HETATM    6  C4  UNL     1     -15.446   7.997  28.689  1.00  0.00     0.117 A 
HETATM    7  C8  UNL     1     -15.076   9.330  28.904  1.00  0.00     0.125 A 
ENDROOT
BRANCH   4   8
HETATM    8  O1  UNL     1     -15.650   8.251  32.272  1.00  0.00    -0.343 OA
ATOM      9  H1  UNL     1     -16.424   8.282  32.823  1.00  0.00     0.219 HD
ENDBRANCH   4   8
BRANCH   7  10
HETATM   10  C9  UNL     1     -14.735  10.331  27.910  1.00  0.00     0.161 C 
HETATM   11  N10 UNL     1     -13.518  11.013  27.780  1.00  0.00    -0.079 NA
HETATM   12  N11 UNL     1     -15.648  10.643  27.018  1.00  0.00    -0.282 N 
ATOM     13  H11 UNL     1     -16.556  10.182  27.051  1.00  0.00     0.188 HD
BRANCH  12  14
HETATM   14  N12 UNL     1     -15.400  11.593  26.029  1.00  0.00    -0.249 N 
HETATM   15  C10 UNL     1     -14.965  11.152  24.753  1.00  0.00     0.358 C 
HETATM   16  O5  UNL     1     -14.814   9.926  24.540  1.00  0.00    -0.244 OA
HETATM   17  N13 UNL     1     -14.694  12.068  23.701  1.00  0.00    -0.190 N 
ATOM     18  H13 UNL     1     -14.811  13.070  23.852  1.00  0.00     0.198 HD
ATOM     19  H12 UNL     1     -15.529  12.586  26.219  1.00  0.00     0.192 HD
BRANCH  17  20
HETATM   20  N14 UNL     1     -14.271  11.599  22.471  1.00  0.00    -0.035 N 
HETATM   21  O6  UNL     1     -13.119  11.819  22.061  1.00  0.00    -0.516 OA
HETATM   22  O7  UNL     1     -15.116  10.877  21.672  1.00  0.00    -0.516 OA
ENDBRANCH  17  20
ENDBRANCH  12  14
ENDBRANCH   7  10
BRANCH   5  23
HETATM   23  O2  UNL     1     -16.089   6.198  30.249  1.00  0.00    -0.355 OA
ATOM     24  H2  UNL     1     -16.097   5.485  29.622  1.00  0.00     0.218 HD
ENDBRANCH   5  23
BRANCH   6  25
HETATM   25  N3  UNL     1     -15.561   7.391  27.420  1.00  0.00    -0.278 N 
ATOM     26  H3  UNL     1     -14.777   7.517  26.781  1.00  0.00     0.188 HD
BRANCH  25  27
HETATM   27  N4  UNL     1     -16.635   6.640  26.948  1.00  0.00    -0.103 N 
HETATM   28  C5  UNL     1     -16.470   5.192  26.910  1.00  0.00     0.292 A 
HETATM   29  N5  UNL     1     -17.653   4.520  26.479  1.00  0.00    -0.345 N 
HETATM   30  C6  UNL     1     -18.760   5.039  26.124  1.00  0.00     0.204 A 
ATOM     31  H5  UNL     1     -17.607   3.501  26.452  1.00  0.00     0.163 HD
HETATM   32  N6  UNL     1     -19.833   4.216  25.723  1.00  0.00    -0.063 NA
HETATM   33  N7  UNL     1     -18.883   6.461  26.154  1.00  0.00    -0.161 N 
HETATM   34  C7  UNL     1     -17.882   7.174  26.538  1.00  0.00     0.722 A 
ATOM     35  H7  UNL     1     -19.755   6.908  25.873  1.00  0.00     0.187 HD
BRANCH  34  36
HETATM   36  N8  UNL     1     -18.023   8.591  26.553  1.00  0.00    -0.070 N 
ATOM     37  H8  UNL     1     -17.394   9.152  25.979  1.00  0.00     0.212 HD
BRANCH  36  38
HETATM   38  N9  UNL     1     -18.991   9.243  27.325  1.00  0.00    -0.024 N 
HETATM   39  O3  UNL     1     -18.581  10.031  28.200  1.00  0.00    -0.516 OA
HETATM   40  O4  UNL     1     -20.339   9.071  27.181  1.00  0.00    -0.516 OA
ENDBRANCH  36  38
ENDBRANCH  34  36
ENDBRANCH  25  27
ENDBRANCH   6  25
TORSDOF 9
ENDMDL
MODEL 2
REMARK VINA RESULT: -9.098352383      2.488      5.898
REMARK  9 active torsions:
REMARK  status: ('A' for Active; 'I' for Inactive)
REMARK    1  A    between atoms: C2_4  and  O1_5 
REMARK    2  A    between atoms: C3_7  and  O2_8 
REMARK    3  A    between atoms: C4_10  and  N3_11 
REMARK    4  A    between atoms: N3_11  and  N4_13 
REMARK    5  A    between atoms: C7_21  and  N8_22 
REMARK    6  A    between atoms: N8_22  and  N9_24 
REMARK    7  A    between atoms: C8_27  and  C9_28 
REMARK    8  A    between atoms: N11_30  and  N12_32 
REMARK       I    between atoms: N12_32  and  C10_34 
REMARK       I    between atoms: C10_34  and  N13_36 
REMARK    9  A    between atoms: N13_36  and  N14_38 
ROOT
HETATM    1  N1  UNL     1     -17.046   9.421  33.239  1.00  0.00    -0.171 NA
HETATM    2  C1  UNL     1     -16.366   9.746  32.342  1.00  0.00     0.191 C 
HETATM    3  N2  UNL     1     -15.539  10.165  31.266  1.00  0.00    -0.220 N 
HETATM    4  C2  UNL     1     -14.921  11.336  31.246  1.00  0.00     0.193 A 
HETATM    5  C3  UNL     1     -14.201  11.383  30.028  1.00  0.00     0.149 A 
HETATM    6  C4  UNL     1     -14.413  10.207  29.332  1.00  0.00     0.117 A 
HETATM    7  C8  UNL     1     -15.268   9.444  30.138  1.00  0.00     0.125 A 
ENDROOT
BRANCH   4   8
HETATM    8  O1  UNL     1     -14.899  12.380  32.158  1.00  0.00    -0.343 OA
ATOM      9  H1  UNL     1     -14.369  13.168  32.201  1.00  0.00     0.219 HD
ENDBRANCH   4   8
BRANCH   7  10
HETATM   10  C9  UNL     1     -15.779   8.111  29.880  1.00  0.00     0.161 C 
HETATM   11  N10 UNL     1     -15.141   6.894  30.151  1.00  0.00    -0.079 NA
HETATM   12  N11 UNL     1     -16.973   8.007  29.341  1.00  0.00    -0.282 N 
ATOM     13  H11 UNL     1     -17.497   8.854  29.121  1.00  0.00     0.188 HD
BRANCH  12  14
HETATM   14  N12 UNL     1     -17.537   6.765  29.062  1.00  0.00    -0.249 N 
HETATM   15  C10 UNL     1     -18.650   6.701  28.186  1.00  0.00     0.358 C 
HETATM   16  O5  UNL     1     -19.102   7.755  27.681  1.00  0.00    -0.244 OA
HETATM   17  N13 UNL     1     -19.273   5.465  27.861  1.00  0.00    -0.190 N 
ATOM     18  H13 UNL     1     -18.922   4.595  28.260  1.00  0.00     0.198 HD
ATOM     19  H12 UNL     1     -17.157   5.916  29.481  1.00  0.00     0.192 HD
BRANCH  17  20
HETATM   20  N14 UNL     1     -20.358   5.445  27.003  1.00  0.00    -0.035 N 
HETATM   21  O6  UNL     1     -21.516   5.324  27.434  1.00  0.00    -0.516 OA
HETATM   22  O7  UNL     1     -20.178   5.558  25.651  1.00  0.00    -0.516 OA
ENDBRANCH  17  20
ENDBRANCH  12  14
ENDBRANCH   7  10
BRANCH   5  23
HETATM   23  O2  UNL     1     -13.429  12.448  29.641  1.00  0.00    -0.355 OA
ATOM     24  H2  UNL     1     -12.823  12.422  28.910  1.00  0.00     0.218 HD
ENDBRANCH   5  23
BRANCH   6  25
HETATM   25  N3  UNL     1     -13.883   9.780  28.096  1.00  0.00    -0.278 N 
ATOM     26  H3  UNL     1     -13.144   9.079  28.134  1.00  0.00     0.188 HD
BRANCH  25  27
HETATM   27  N4  UNL     1     -14.265  10.216  26.830  1.00  0.00    -0.103 N 
HETATM   28  C5  UNL     1     -14.342  11.656  26.615  1.00  0.00     0.292 A 
HETATM   29  N5  UNL     1     -14.672  11.990  25.267  1.00  0.00    -0.345 N 
HETATM   30  C6  UNL     1     -14.914  11.194  24.304  1.00  0.00     0.204 A 
ATOM     31  H5  UNL     1     -14.720  12.985  25.050  1.00  0.00     0.163 HD
HETATM   32  N6  UNL     1     -15.227  11.702  23.025  1.00  0.00    -0.063 NA
HETATM   33  N7  UNL     1     -14.849   9.790  24.551  1.00  0.00    -0.161 N 
HETATM   34  C7  UNL     1     -14.548   9.369  25.730  1.00  0.00     0.722 A 
ATOM     35  H7  UNL     1     -15.041   9.126  23.801  1.00  0.00     0.187 HD
BRANCH  34  36
HETATM   36  N8  UNL     1     -14.497   7.964  25.957  1.00  0.00    -0.070 N 
ATOM     37  H8  UNL     1     -13.586   7.509  26.013  1.00  0.00     0.212 HD
BRANCH  36  38
HETATM   38  N9  UNL     1     -15.649   7.183  26.106  1.00  0.00    -0.024 N 
HETATM   39  O3  UNL     1     -16.661   7.540  25.472  1.00  0.00    -0.516 OA
HETATM   40  O4  UNL     1     -15.730   6.069  26.893  1.00  0.00    -0.516 OA
ENDBRANCH  36  38
ENDBRANCH  34  36
ENDBRANCH  25  27
ENDBRANCH   6  25
TORSDOF 9
ENDMDL
MODEL 3
REMARK VINA RESULT: -9.084382877      1.938      5.403
REMARK  9 active torsions:
REMARK  status: ('A' for Active; 'I' for Inactive)
REMARK    1  A    between atoms: C2_4  and  O1_5 
REMARK    2  A    between atoms: C3_7  and  O2_8 
REMARK    3  A    between atoms: C4_10  and  N3_11 
REMARK    4  A    between atoms: N3_11  and  N4_13 
REMARK    5  A    between atoms: C7_21  and  N8_22 
REMARK    6  A    between atoms: N8_22  and  N9_24 
REMARK    7  A    between atoms: C8_27  and  C9_28 
REMARK    8  A    between atoms: N11_30  and  N12_32 
REMARK       I    between atoms: N12_32  and  C10_34 
REMARK       I    between atoms: C10_34  and  N13_36 
REMARK    9  A    between atoms: N13_36  and  N14_38 
ROOT
HETATM    1  N1  UNL     1     -18.343   6.423  25.939  1.00  0.00    -0.171 NA
HETATM    2  C1  UNL     1     -17.665   6.694  26.856  1.00  0.00     0.191 C 
HETATM    3  N2  UNL     1     -16.849   6.996  27.978  1.00  0.00    -0.220 N 
HETATM    4  C2  UNL     1     -16.505   6.094  28.884  1.00  0.00     0.193 A 
HETATM    5  C3  UNL     1     -15.696   6.769  29.829  1.00  0.00     0.149 A 
HETATM    6  C4  UNL     1     -15.574   8.095  29.454  1.00  0.00     0.117 A 
HETATM    7  C8  UNL     1     -16.315   8.219  28.272  1.00  0.00     0.125 A 
ENDROOT
BRANCH   4   8
HETATM    8  O1  UNL     1     -16.805   4.745  28.998  1.00  0.00    -0.343 OA
ATOM      9  H1  UNL     1     -16.657   4.124  29.701  1.00  0.00     0.219 HD
ENDBRANCH   4   8
BRANCH   7  10
HETATM   10  C9  UNL     1     -16.492   9.404  27.453  1.00  0.00     0.161 C 
HETATM   11  N10 UNL     1     -17.601  10.260  27.433  1.00  0.00    -0.079 NA
HETATM   12  N11 UNL     1     -15.516   9.736  26.638  1.00  0.00    -0.282 N 
ATOM     13  H11 UNL     1     -14.675   9.159  26.604  1.00  0.00     0.188 HD
BRANCH  12  14
HETATM   14  N12 UNL     1     -15.606  10.859  25.819  1.00  0.00    -0.249 N 
HETATM   15  C10 UNL     1     -14.974  10.831  24.550  1.00  0.00     0.358 C 
HETATM   16  O5  UNL     1     -14.352   9.804  24.190  1.00  0.00    -0.244 OA
HETATM   17  N13 UNL     1     -15.026  11.944  23.667  1.00  0.00    -0.190 N 
ATOM     18  H13 UNL     1     -15.527  12.789  23.939  1.00  0.00     0.198 HD
ATOM     19  H12 UNL     1     -16.117  11.686  26.127  1.00  0.00     0.192 HD
BRANCH  17  20
HETATM   20  N14 UNL     1     -14.395  11.878  22.438  1.00  0.00    -0.035 N 
HETATM   21  O6  UNL     1     -13.266  12.367  22.268  1.00  0.00    -0.516 OA
HETATM   22  O7  UNL     1     -15.005  11.269  21.374  1.00  0.00    -0.516 OA
ENDBRANCH  17  20
ENDBRANCH  12  14
ENDBRANCH   7  10
BRANCH   5  23
HETATM   23  O2  UNL     1     -15.144   6.164  30.928  1.00  0.00    -0.355 OA
ATOM     24  H2  UNL     1     -15.642   5.656  31.556  1.00  0.00     0.218 HD
ENDBRANCH   5  23
BRANCH   6  25
HETATM   25  N3  UNL     1     -14.843   9.141  30.056  1.00  0.00    -0.278 N 
ATOM     26  H3  UNL     1     -13.827   9.060  30.034  1.00  0.00     0.188 HD
BRANCH  25  27
HETATM   27  N4  UNL     1     -15.364  10.273  30.677  1.00  0.00    -0.103 N 
HETATM   28  C5  UNL     1     -16.685  10.152  31.284  1.00  0.00     0.292 A 
HETATM   29  N5  UNL     1     -17.089  11.346  31.952  1.00  0.00    -0.345 N 
HETATM   30  C6  UNL     1     -16.452  12.446  32.038  1.00  0.00     0.204 A 
ATOM     31  H5  UNL     1     -17.997  11.317  32.415  1.00  0.00     0.163 HD
HETATM   32  N6  UNL     1     -17.008  13.534  32.743  1.00  0.00    -0.063 NA
HETATM   33  N7  UNL     1     -15.171  12.538  31.416  1.00  0.00    -0.161 N 
HETATM   34  C7  UNL     1     -14.696  11.517  30.793  1.00  0.00     0.722 A 
ATOM     35  H7  UNL     1     -14.637  13.405  31.464  1.00  0.00     0.187 HD
BRANCH  34  36
HETATM   36  N8  UNL     1     -13.419  11.633  30.173  1.00  0.00    -0.070 N 
ATOM     37  H8  UNL     1     -12.583  11.503  30.743  1.00  0.00     0.212 HD
BRANCH  36  38
HETATM   38  N9  UNL     1     -13.267  11.918  28.811  1.00  0.00    -0.024 N 
HETATM   39  O3  UNL     1     -13.441  10.977  28.012  1.00  0.00    -0.516 OA
HETATM   40  O4  UNL     1     -12.944  13.148  28.311  1.00  0.00    -0.516 OA
ENDBRANCH  36  38
ENDBRANCH  34  36
ENDBRANCH  25  27
ENDBRANCH   6  25
TORSDOF 9
ENDMDL
MODEL 4
REMARK VINA RESULT: -9.010613287      2.382      6.758
REMARK  9 active torsions:
REMARK  status: ('A' for Active; 'I' for Inactive)
REMARK    1  A    between atoms: C2_4  and  O1_5 
REMARK    2  A    between atoms: C3_7  and  O2_8 
REMARK    3  A    between atoms: C4_10  and  N3_11 
REMARK    4  A    between atoms: N3_11  and  N4_13 
REMARK    5  A    between atoms: C7_21  and  N8_22 
REMARK    6  A    between atoms: N8_22  and  N9_24 
REMARK    7  A    between atoms: C8_27  and  C9_28 
REMARK    8  A    between atoms: N11_30  and  N12_32 
REMARK       I    between atoms: N12_32  and  C10_34 
REMARK       I    between atoms: C10_34  and  N13_36 
REMARK    9  A    between atoms: N13_36  and  N14_38 
ROOT
HETATM    1  N1  UNL     1     -15.285   8.405  23.695  1.00  0.00    -0.171 NA
HETATM    2  C1  UNL     1     -14.993   8.979  24.674  1.00  0.00     0.191 C 
HETATM    3  N2  UNL     1     -14.630   9.698  25.843  1.00  0.00    -0.220 N 
HETATM    4  C2  UNL     1     -14.193  10.947  25.816  1.00  0.00     0.193 A 
HETATM    5  C3  UNL     1     -13.943  11.310  27.161  1.00  0.00     0.149 A 
HETATM    6  C4  UNL     1     -14.245  10.238  27.981  1.00  0.00     0.117 A 
HETATM    7  C8  UNL     1     -14.682   9.221  27.122  1.00  0.00     0.125 A 
ENDROOT
BRANCH   4   8
HETATM    8  O1  UNL     1     -13.981  11.824  24.763  1.00  0.00    -0.343 OA
ATOM      9  H1  UNL     1     -13.187  12.218  24.421  1.00  0.00     0.219 HD
ENDBRANCH   4   8
BRANCH   7  10
HETATM   10  C9  UNL     1     -15.143   7.893  27.479  1.00  0.00     0.161 C 
HETATM   11  N10 UNL     1     -14.961   7.234  28.702  1.00  0.00    -0.079 NA
HETATM   12  N11 UNL     1     -15.815   7.215  26.576  1.00  0.00    -0.282 N 
ATOM     13  H11 UNL     1     -15.989   7.636  25.663  1.00  0.00     0.188 HD
BRANCH  12  14
HETATM   14  N12 UNL     1     -16.295   5.934  26.838  1.00  0.00    -0.249 N 
HETATM   15  C10 UNL     1     -17.555   5.555  26.311  1.00  0.00     0.358 C 
HETATM   16  O5  UNL     1     -18.210   6.372  25.622  1.00  0.00    -0.244 OA
HETATM   17  N13 UNL     1     -18.103   4.263  26.543  1.00  0.00    -0.190 N 
ATOM     18  H13 UNL     1     -17.587   3.582  27.099  1.00  0.00     0.198 HD
ATOM     19  H12 UNL     1     -15.749   5.280  27.400  1.00  0.00     0.192 HD
BRANCH  17  20
HETATM   20  N14 UNL     1     -19.336   3.933  26.011  1.00  0.00    -0.035 N 
HETATM   21  O6  UNL     1     -19.431   3.366  24.910  1.00  0.00    -0.516 OA
HETATM   22  O7  UNL     1     -20.488   4.224  26.691  1.00  0.00    -0.516 OA
ENDBRANCH  17  20
ENDBRANCH  12  14
ENDBRANCH   7  10
BRANCH   5  23
HETATM   23  O2  UNL     1     -13.475  12.540  27.544  1.00  0.00    -0.355 OA
ATOM     24  H2  UNL     1     -13.596  13.332  27.034  1.00  0.00     0.218 HD
ENDBRANCH   5  23
BRANCH   6  25
HETATM   25  N3  UNL     1     -14.193  10.132  29.387  1.00  0.00    -0.278 N 
ATOM     26  H3  UNL     1     -13.523   9.466  29.771  1.00  0.00     0.188 HD
BRANCH  25  27
HETATM   27  N4  UNL     1     -14.959  10.845  30.306  1.00  0.00    -0.103 N 
HETATM   28  C5  UNL     1     -14.294  11.913  31.043  1.00  0.00     0.292 A 
HETATM   29  N5  UNL     1     -15.188  12.621  31.902  1.00  0.00    -0.345 N 
HETATM   30  C6  UNL     1     -16.428  12.400  32.089  1.00  0.00     0.204 A 
ATOM     31  H5  UNL     1     -14.786  13.395  32.429  1.00  0.00     0.163 HD
HETATM   32  N6  UNL     1     -17.164  13.205  32.984  1.00  0.00    -0.063 NA
HETATM   33  N7  UNL     1     -17.044  11.334  31.368  1.00  0.00    -0.161 N 
HETATM   34  C7  UNL     1     -16.338  10.632  30.552  1.00  0.00     0.722 A 
ATOM     35  H7  UNL     1     -18.035  11.130  31.498  1.00  0.00     0.187 HD
BRANCH  34  36
HETATM   36  N8  UNL     1     -16.971   9.568  29.848  1.00  0.00    -0.070 N 
ATOM     37  H8  UNL     1     -16.731   8.607  30.092  1.00  0.00     0.212 HD
BRANCH  36  38
HETATM   38  N9  UNL     1     -17.909   9.790  28.834  1.00  0.00    -0.024 N 
HETATM   39  O3  UNL     1     -18.455  10.911  28.801  1.00  0.00    -0.516 OA
HETATM   40  O4  UNL     1     -18.260   8.866  27.890  1.00  0.00    -0.516 OA
ENDBRANCH  36  38
ENDBRANCH  34  36
ENDBRANCH  25  27
ENDBRANCH   6  25
TORSDOF 9
ENDMDL
MODEL 5
REMARK VINA RESULT: -8.987549943      2.529      6.609
REMARK  9 active torsions:
REMARK  status: ('A' for Active; 'I' for Inactive)
REMARK    1  A    between atoms: C2_4  and  O1_5 
REMARK    2  A    between atoms: C3_7  and  O2_8 
REMARK    3  A    between atoms: C4_10  and  N3_11 
REMARK    4  A    between atoms: N3_11  and  N4_13 
REMARK    5  A    between atoms: C7_21  and  N8_22 
REMARK    6  A    between atoms: N8_22  and  N9_24 
REMARK    7  A    between atoms: C8_27  and  C9_28 
REMARK    8  A    between atoms: N11_30  and  N12_32 
REMARK       I    between atoms: N12_32  and  C10_34 
REMARK       I    between atoms: C10_34  and  N13_36 
REMARK    9  A    between atoms: N13_36  and  N14_38 
ROOT
HETATM    1  N1  UNL     1     -14.914   9.452  23.633  1.00  0.00    -0.171 NA
HETATM    2  C1  UNL     1     -14.935   9.566  24.800  1.00  0.00     0.191 C 
HETATM    3  N2  UNL     1     -14.943   9.728  26.210  1.00  0.00    -0.220 N 
HETATM    4  C2  UNL     1     -14.428  10.786  26.818  1.00  0.00     0.193 A 
HETATM    5  C3  UNL     1     -14.630  10.584  28.204  1.00  0.00     0.149 A 
HETATM    6  C4  UNL     1     -15.278   9.377  28.395  1.00  0.00     0.117 A 
HETATM    7  C8  UNL     1     -15.468   8.847  27.113  1.00  0.00     0.125 A 
ENDROOT
BRANCH   4   8
HETATM    8  O1  UNL     1     -13.800  11.917  26.320  1.00  0.00    -0.343 OA
ATOM      9  H1  UNL     1     -12.938  12.044  25.942  1.00  0.00     0.219 HD
ENDBRANCH   4   8
BRANCH   7  10
HETATM   10  C9  UNL     1     -16.125   7.605  26.752  1.00  0.00     0.161 C 
HETATM   11  N10 UNL     1     -15.514   6.376  26.473  1.00  0.00    -0.079 NA
HETATM   12  N11 UNL     1     -17.437   7.605  26.681  1.00  0.00    -0.282 N 
ATOM     13  H11 UNL     1     -17.949   8.465  26.877  1.00  0.00     0.188 HD
BRANCH  12  14
HETATM   14  N12 UNL     1     -18.145   6.453  26.343  1.00  0.00    -0.249 N 
HETATM   15  C10 UNL     1     -19.551   6.438  26.524  1.00  0.00     0.358 C 
HETATM   16  O5  UNL     1     -20.128   7.453  26.980  1.00  0.00    -0.244 OA
HETATM   17  N13 UNL     1     -20.332   5.295  26.200  1.00  0.00    -0.190 N 
ATOM     18  H13 UNL     1     -19.884   4.459  25.826  1.00  0.00     0.198 HD
ATOM     19  H12 UNL     1     -17.660   5.636  25.971  1.00  0.00     0.192 HD
BRANCH  17  20
HETATM   20  N14 UNL     1     -21.701   5.320  26.392  1.00  0.00    -0.035 N 
HETATM   21  O6  UNL     1     -22.223   4.762  27.372  1.00  0.00    -0.516 OA
HETATM   22  O7  UNL     1     -22.519   5.963  25.502  1.00  0.00    -0.516 OA
ENDBRANCH  17  20
ENDBRANCH  12  14
ENDBRANCH   7  10
BRANCH   5  23
HETATM   23  O2  UNL     1     -14.229  11.472  29.169  1.00  0.00    -0.355 OA
ATOM     24  H2  UNL     1     -14.396  11.354  30.096  1.00  0.00     0.218 HD
ENDBRANCH   5  23
BRANCH   6  25
HETATM   25  N3  UNL     1     -15.721   8.769  29.589  1.00  0.00    -0.278 N 
ATOM     26  H3  UNL     1     -16.714   8.852  29.803  1.00  0.00     0.188 HD
BRANCH  25  27
HETATM   27  N4  UNL     1     -14.943   8.065  30.505  1.00  0.00    -0.103 N 
HETATM   28  C5  UNL     1     -14.188   8.847  31.477  1.00  0.00     0.292 A 
HETATM   29  N5  UNL     1     -13.485   8.026  32.409  1.00  0.00    -0.345 N 
HETATM   30  C6  UNL     1     -13.441   6.754  32.450  1.00  0.00     0.204 A 
ATOM     31  H5  UNL     1     -12.954   8.516  33.129  1.00  0.00     0.163 HD
HETATM   32  N6  UNL     1     -12.689   6.102  33.450  1.00  0.00    -0.063 NA
HETATM   33  N7  UNL     1     -14.176   6.018  31.472  1.00  0.00    -0.161 N 
HETATM   34  C7  UNL     1     -14.860   6.653  30.586  1.00  0.00     0.722 A 
ATOM     35  H7  UNL     1     -14.159   4.999  31.476  1.00  0.00     0.187 HD
BRANCH  34  36
HETATM   36  N8  UNL     1     -15.579   5.900  29.614  1.00  0.00    -0.070 N 
ATOM     37  H8  UNL     1     -15.062   5.456  28.856  1.00  0.00     0.212 HD
BRANCH  36  38
HETATM   38  N9  UNL     1     -16.969   5.745  29.661  1.00  0.00    -0.024 N 
HETATM   39  O3  UNL     1     -17.407   4.582  29.756  1.00  0.00    -0.516 OA
HETATM   40  O4  UNL     1     -17.863   6.777  29.609  1.00  0.00    -0.516 OA
ENDBRANCH  36  38
ENDBRANCH  34  36
ENDBRANCH  25  27
ENDBRANCH   6  25
TORSDOF 9
ENDMDL
