MODEL 1
REMARK VINA RESULT: -8.209205837      0.000      0.000
REMARK  9 active torsions:
REMARK  status: ('A' for Active; 'I' for Inactive)
REMARK    1  A    between atoms: C4_4  and  C5_5 
REMARK    2  A    between atoms: C8_8  and  C9_9 
REMARK    3  A    between atoms: C9_9  and  C10_10 
REMARK    4  A    between atoms: C10_10  and  C13_13 
REMARK    5  A    between atoms: C13_13  and  O1_14 
REMARK    6  A    between atoms: C17_19  and  O2_20 
REMARK    7  A    between atoms: C21_28  and  N3_29 
REMARK    8  A    between atoms: C22_32  and  C23_33 
REMARK    9  A    between atoms: C23_33  and  C24_34 
ROOT
HETATM    1  C1  UNL     1      45.946  11.339   2.715  1.00  0.00     0.018 C 
HETATM    2  C2  UNL     1      45.730  11.792   1.611  1.00  0.00    -0.074 C 
HETATM    3  C3  UNL     1      45.511  12.233   0.274  1.00  0.00     0.058 A 
HETATM    4  C4  UNL     1      46.015  11.428  -0.763  1.00  0.00     0.030 A 
HETATM    5  C17 UNL     1      45.872  11.714  -2.091  1.00  0.00     0.097 A 
HETATM    6  C19 UNL     1      45.187  12.867  -2.393  1.00  0.00     0.139 A 
HETATM    7  N1  UNL     1      44.683  13.674  -1.416  1.00  0.00    -0.270 N 
HETATM    8  C20 UNL     1      44.035  14.780  -1.803  1.00  0.00     0.332 A 
HETATM    9  O3  UNL     1      43.934  14.990  -3.057  1.00  0.00    -0.246 OA
HETATM   10  N2  UNL     1      43.519  15.623  -0.922  1.00  0.00    -0.294 N 
ATOM     11  H2  UNL     1      43.027  16.463  -1.226  1.00  0.00     0.172 HD
HETATM   12  C21 UNL     1      43.659  15.346   0.363  1.00  0.00     0.111 A 
HETATM   13  C22 UNL     1      44.324  14.206   0.883  1.00  0.00     0.019 A 
HETATM   14  C30 UNL     1      44.840  13.365  -0.072  1.00  0.00     0.073 A 
ENDROOT
BRANCH   4  15
HETATM   15  C5  UNL     1      46.727  10.229  -0.417  1.00  0.00    -0.016 A 
HETATM   16  C6  UNL     1      48.116  10.345  -0.264  1.00  0.00     0.013 A 
HETATM   17  C7  UNL     1      48.866   9.237   0.068  1.00  0.00     0.008 A 
HETATM   18  C8  UNL     1      48.271   7.996   0.257  1.00  0.00    -0.057 A 
HETATM   19  C14 UNL     1      46.913   7.934   0.099  1.00  0.00     0.014 A 
HETATM   20  C15 UNL     1      46.127   9.008  -0.231  1.00  0.00    -0.050 A 
HETATM   21  C16 UNL     1      44.647   8.888  -0.394  1.00  0.00     0.049 C 
BRANCH  18  22
HETATM   22  C9  UNL     1      49.147   6.875   0.609  1.00  0.00     0.049 C 
BRANCH  22  23
HETATM   23  C10 UNL     1      49.505   6.854   2.072  1.00  0.00    -0.022 C 
HETATM   24  C11 UNL     1      48.621   7.799   2.826  1.00  0.00     0.017 C 
HETATM   25  C12 UNL     1      49.225   5.456   2.591  1.00  0.00     0.017 C 
BRANCH  23  26
HETATM   26  C13 UNL     1      50.972   7.133   2.259  1.00  0.00     0.173 C 
BRANCH  26  27
HETATM   27  O1  UNL     1      51.090   8.443   2.731  1.00  0.00    -0.400 OA
ATOM     28  H1  UNL     1      51.979   8.729   2.554  1.00  0.00     0.209 HD
ENDBRANCH  26  27
ENDBRANCH  23  26
ENDBRANCH  22  23
ENDBRANCH  18  22
ENDBRANCH   4  15
BRANCH   5  29
HETATM   29  O2  UNL     1      46.381  10.898  -3.088  1.00  0.00    -0.354 OA
HETATM   30  C18 UNL     1      45.543  10.141  -3.948  1.00  0.00     0.210 C 
ENDBRANCH   5  29
BRANCH  13  31
HETATM   31  C23 UNL     1      44.436  14.035   2.307  1.00  0.00     0.083 C 
BRANCH  31  32
HETATM   32  C24 UNL     1      45.394  14.939   2.992  1.00  0.00    -0.054 A 
HETATM   33  C25 UNL     1      45.018  15.755   4.013  1.00  0.00     0.009 A 
HETATM   34  C26 UNL     1      45.914  16.573   4.666  1.00  0.00     0.024 A 
HETATM   35  C27 UNL     1      47.265  16.597   4.300  1.00  0.00     0.034 A 
HETATM   36 CL1  UNL     1      48.419  17.632   5.119  1.00  0.00    -0.084 Cl
HETATM   37  C28 UNL     1      47.662  15.778   3.269  1.00  0.00     0.024 A 
HETATM   38  C29 UNL     1      46.720  14.959   2.628  1.00  0.00     0.009 A 
ENDBRANCH  31  32
ENDBRANCH  13  31
BRANCH  12  39
HETATM   39  N3  UNL     1      43.160  16.134   1.283  1.00  0.00    -0.385 N 
ATOM     40  H32 UNL     1      42.345  16.665   0.975  1.00  0.00     0.157 HD
ATOM     41  H31 UNL     1      43.581  16.193   2.210  1.00  0.00     0.157 HD
ENDBRANCH  12  39
TORSDOF 9
ENDMDL
MODEL 2
REMARK VINA RESULT: -8.016984022      1.172      1.298
REMARK  9 active torsions:
REMARK  status: ('A' for Active; 'I' for Inactive)
REMARK    1  A    between atoms: C4_4  and  C5_5 
REMARK    2  A    between atoms: C8_8  and  C9_9 
REMARK    3  A    between atoms: C9_9  and  C10_10 
REMARK    4  A    between atoms: C10_10  and  C13_13 
REMARK    5  A    between atoms: C13_13  and  O1_14 
REMARK    6  A    between atoms: C17_19  and  O2_20 
REMARK    7  A    between atoms: C21_28  and  N3_29 
REMARK    8  A    between atoms: C22_32  and  C23_33 
REMARK    9  A    between atoms: C23_33  and  C24_34 
ROOT
HETATM    1  C1  UNL     1      45.721  11.139   2.693  1.00  0.00     0.018 C 
HETATM    2  C2  UNL     1      45.721  11.460   1.523  1.00  0.00    -0.074 C 
HETATM    3  C3  UNL     1      45.758  11.740   0.127  1.00  0.00     0.058 A 
HETATM    4  C4  UNL     1      46.414  10.813  -0.701  1.00  0.00     0.030 A 
HETATM    5  C17 UNL     1      46.519  10.940  -2.058  1.00  0.00     0.097 A 
HETATM    6  C19 UNL     1      45.935  12.055  -2.610  1.00  0.00     0.139 A 
HETATM    7  N1  UNL     1      45.290  12.978  -1.840  1.00  0.00    -0.270 N 
HETATM    8  C20 UNL     1      44.757  14.036  -2.463  1.00  0.00     0.332 A 
HETATM    9  O3  UNL     1      44.889  14.097  -3.730  1.00  0.00    -0.246 OA
HETATM   10  N2  UNL     1      44.119  14.983  -1.794  1.00  0.00    -0.294 N 
ATOM     11  H2  UNL     1      43.716  15.786  -2.277  1.00  0.00     0.172 HD
HETATM   12  C21 UNL     1      44.018  14.860  -0.481  1.00  0.00     0.111 A 
HETATM   13  C22 UNL     1      44.544  13.784   0.279  1.00  0.00     0.019 A 
HETATM   14  C30 UNL     1      45.195  12.830  -0.463  1.00  0.00     0.073 A 
ENDROOT
BRANCH   4  15
HETATM   15  C5  UNL     1      47.014   9.657  -0.096  1.00  0.00    -0.016 A 
HETATM   16  C6  UNL     1      48.354   9.778   0.299  1.00  0.00     0.013 A 
HETATM   17  C7  UNL     1      48.997   8.711   0.887  1.00  0.00     0.008 A 
HETATM   18  C8  UNL     1      48.341   7.505   1.101  1.00  0.00    -0.057 A 
HETATM   19  C14 UNL     1      47.035   7.436   0.700  1.00  0.00     0.014 A 
HETATM   20  C15 UNL     1      46.354   8.469   0.111  1.00  0.00    -0.050 A 
HETATM   21  C16 UNL     1      44.927   8.343  -0.310  1.00  0.00     0.049 C 
BRANCH  18  22
HETATM   22  C9  UNL     1      49.105   6.425   1.734  1.00  0.00     0.049 C 
BRANCH  22  23
HETATM   23  C10 UNL     1      49.148   6.546   3.235  1.00  0.00    -0.022 C 
HETATM   24  C11 UNL     1      50.021   7.699   3.628  1.00  0.00     0.017 C 
HETATM   25  C12 UNL     1      47.741   6.858   3.709  1.00  0.00     0.017 C 
BRANCH  23  26
HETATM   26  C13 UNL     1      49.568   5.242   3.856  1.00  0.00     0.173 C 
BRANCH  26  27
HETATM   27  O1  UNL     1      49.456   5.385   5.242  1.00  0.00    -0.400 OA
ATOM     28  H1  UNL     1      49.216   4.536   5.595  1.00  0.00     0.209 HD
ENDBRANCH  26  27
ENDBRANCH  23  26
ENDBRANCH  22  23
ENDBRANCH  18  22
ENDBRANCH   4  15
BRANCH   5  29
HETATM   29  O2  UNL     1      47.172  10.006  -2.844  1.00  0.00    -0.354 OA
HETATM   30  C18 UNL     1      46.474   9.129  -3.716  1.00  0.00     0.210 C 
ENDBRANCH   5  29
BRANCH  13  31
HETATM   31  C23 UNL     1      44.394  13.782   1.710  1.00  0.00     0.083 C 
BRANCH  31  32
HETATM   32  C24 UNL     1      45.289  14.705   2.453  1.00  0.00    -0.054 A 
HETATM   33  C25 UNL     1      44.829  15.838   3.049  1.00  0.00     0.009 A 
HETATM   34  C26 UNL     1      45.655  16.679   3.762  1.00  0.00     0.024 A 
HETATM   35  C27 UNL     1      47.019  16.398   3.902  1.00  0.00     0.034 A 
HETATM   36 CL1  UNL     1      48.086  17.457   4.805  1.00  0.00    -0.084 Cl
HETATM   37  C28 UNL     1      47.501  15.257   3.304  1.00  0.00     0.024 A 
HETATM   38  C29 UNL     1      46.628  14.425   2.587  1.00  0.00     0.009 A 
ENDBRANCH  31  32
ENDBRANCH  13  31
BRANCH  12  39
HETATM   39  N3  UNL     1      43.388  15.758   0.236  1.00  0.00    -0.385 N 
ATOM     40  H32 UNL     1      43.740  16.707   0.111  1.00  0.00     0.157 HD
ATOM     41  H31 UNL     1      42.625  15.493   0.859  1.00  0.00     0.157 HD
ENDBRANCH  12  39
TORSDOF 9
ENDMDL
MODEL 3
REMARK VINA RESULT: -7.695524889      0.464      1.180
REMARK  9 active torsions:
REMARK  status: ('A' for Active; 'I' for Inactive)
REMARK    1  A    between atoms: C4_4  and  C5_5 
REMARK    2  A    between atoms: C8_8  and  C9_9 
REMARK    3  A    between atoms: C9_9  and  C10_10 
REMARK    4  A    between atoms: C10_10  and  C13_13 
REMARK    5  A    between atoms: C13_13  and  O1_14 
REMARK    6  A    between atoms: C17_19  and  O2_20 
REMARK    7  A    between atoms: C21_28  and  N3_29 
REMARK    8  A    between atoms: C22_32  and  C23_33 
REMARK    9  A    between atoms: C23_33  and  C24_34 
ROOT
HETATM    1  C1  UNL     1      45.847  11.362   2.687  1.00  0.00     0.018 C 
HETATM    2  C2  UNL     1      45.618  11.827   1.590  1.00  0.00    -0.074 C 
HETATM    3  C3  UNL     1      45.379  12.280   0.261  1.00  0.00     0.058 A 
HETATM    4  C4  UNL     1      45.837  11.467  -0.791  1.00  0.00     0.030 A 
HETATM    5  C17 UNL     1      45.669  11.764  -2.115  1.00  0.00     0.097 A 
HETATM    6  C19 UNL     1      45.007  12.935  -2.395  1.00  0.00     0.139 A 
HETATM    7  N1  UNL     1      44.547  13.750  -1.402  1.00  0.00    -0.270 N 
HETATM    8  C20 UNL     1      43.919  14.873  -1.770  1.00  0.00     0.332 A 
HETATM    9  O3  UNL     1      43.794  15.093  -3.020  1.00  0.00    -0.246 OA
HETATM   10  N2  UNL     1      43.446  15.725  -0.873  1.00  0.00    -0.294 N 
ATOM     11  H2  UNL     1      42.969  16.579  -1.162  1.00  0.00     0.172 HD
HETATM   12  C21 UNL     1      43.609  15.438   0.407  1.00  0.00     0.111 A 
HETATM   13  C22 UNL     1      44.257  14.279   0.907  1.00  0.00     0.019 A 
HETATM   14  C30 UNL     1      44.728  13.430  -0.064  1.00  0.00     0.073 A 
ENDROOT
BRANCH   4  15
HETATM   15  C5  UNL     1      46.526  10.249  -0.467  1.00  0.00    -0.016 A 
HETATM   16  C6  UNL     1      45.728   9.134  -0.175  1.00  0.00     0.013 A 
HETATM   17  C7  UNL     1      46.318   7.930   0.144  1.00  0.00     0.008 A 
HETATM   18  C8  UNL     1      47.700   7.795   0.182  1.00  0.00    -0.057 A 
HETATM   19  C14 UNL     1      48.436   8.910  -0.111  1.00  0.00     0.014 A 
HETATM   20  C15 UNL     1      47.894  10.128  -0.433  1.00  0.00    -0.050 A 
HETATM   21  C16 UNL     1      48.742  11.317  -0.745  1.00  0.00     0.049 C 
BRANCH  18  22
HETATM   22  C9  UNL     1      48.239   6.477   0.531  1.00  0.00     0.049 C 
BRANCH  22  23
HETATM   23  C10 UNL     1      48.786   6.425   1.934  1.00  0.00    -0.022 C 
HETATM   24  C11 UNL     1      47.880   7.176   2.861  1.00  0.00     0.017 C 
HETATM   25  C12 UNL     1      48.782   4.972   2.372  1.00  0.00     0.017 C 
BRANCH  23  26
HETATM   26  C13 UNL     1      50.208   6.915   1.963  1.00  0.00     0.173 C 
BRANCH  26  27
HETATM   27  O1  UNL     1      50.234   8.070   2.749  1.00  0.00    -0.400 OA
ATOM     28  H1  UNL     1      49.471   8.045   3.315  1.00  0.00     0.209 HD
ENDBRANCH  26  27
ENDBRANCH  23  26
ENDBRANCH  22  23
ENDBRANCH  18  22
ENDBRANCH   4  15
BRANCH   5  29
HETATM   29  O2  UNL     1      46.134  10.940  -3.126  1.00  0.00    -0.354 OA
HETATM   30  C18 UNL     1      45.257  10.200  -3.962  1.00  0.00     0.210 C 
ENDBRANCH   5  29
BRANCH  13  31
HETATM   31  C23 UNL     1      44.398  14.098   2.327  1.00  0.00     0.083 C 
BRANCH  31  32
HETATM   32  C24 UNL     1      45.378  14.990   2.996  1.00  0.00    -0.054 A 
HETATM   33  C25 UNL     1      45.026  15.819   4.016  1.00  0.00     0.009 A 
HETATM   34  C26 UNL     1      45.943  16.626   4.655  1.00  0.00     0.024 A 
HETATM   35  C27 UNL     1      47.290  16.624   4.275  1.00  0.00     0.034 A 
HETATM   36 CL1  UNL     1      48.470  17.644   5.076  1.00  0.00    -0.084 Cl
HETATM   37  C28 UNL     1      47.663  15.792   3.245  1.00  0.00     0.024 A 
HETATM   38  C29 UNL     1      46.701  14.985   2.620  1.00  0.00     0.009 A 
ENDBRANCH  31  32
ENDBRANCH  13  31
BRANCH  12  39
HETATM   39  N3  UNL     1      43.153  16.235   1.343  1.00  0.00    -0.385 N 
ATOM     40  H32 UNL     1      43.882  16.742   1.845  1.00  0.00     0.157 HD
ATOM     41  H31 UNL     1      42.153  16.309   1.529  1.00  0.00     0.157 HD
ENDBRANCH  12  39
TORSDOF 9
ENDMDL
MODEL 4
REMARK VINA RESULT: -7.638976000      1.371      1.639
REMARK  9 active torsions:
REMARK  status: ('A' for Active; 'I' for Inactive)
REMARK    1  A    between atoms: C4_4  and  C5_5 
REMARK    2  A    between atoms: C8_8  and  C9_9 
REMARK    3  A    between atoms: C9_9  and  C10_10 
REMARK    4  A    between atoms: C10_10  and  C13_13 
REMARK    5  A    between atoms: C13_13  and  O1_14 
REMARK    6  A    between atoms: C17_19  and  O2_20 
REMARK    7  A    between atoms: C21_28  and  N3_29 
REMARK    8  A    between atoms: C22_32  and  C23_33 
REMARK    9  A    between atoms: C23_33  and  C24_34 
ROOT
HETATM    1  C1  UNL     1      45.634  11.160   2.685  1.00  0.00     0.018 C 
HETATM    2  C2  UNL     1      45.659  11.473   1.513  1.00  0.00    -0.074 C 
HETATM    3  C3  UNL     1      45.725  11.743   0.116  1.00  0.00     0.058 A 
HETATM    4  C4  UNL     1      46.387  10.803  -0.694  1.00  0.00     0.030 A 
HETATM    5  C17 UNL     1      46.519  10.920  -2.049  1.00  0.00     0.097 A 
HETATM    6  C19 UNL     1      45.957  12.037  -2.619  1.00  0.00     0.139 A 
HETATM    7  N1  UNL     1      45.307  12.971  -1.868  1.00  0.00    -0.270 N 
HETATM    8  C20 UNL     1      44.796  14.030  -2.508  1.00  0.00     0.332 A 
HETATM    9  O3  UNL     1      44.952  14.081  -3.773  1.00  0.00    -0.246 OA
HETATM   10  N2  UNL     1      44.155  14.988  -1.857  1.00  0.00    -0.294 N 
ATOM     11  H2  UNL     1      43.769  15.792  -2.353  1.00  0.00     0.172 HD
HETATM   12  C21 UNL     1      44.028  14.875  -0.546  1.00  0.00     0.111 A 
HETATM   13  C22 UNL     1      44.529  13.799   0.232  1.00  0.00     0.019 A 
HETATM   14  C30 UNL     1      45.184  12.834  -0.492  1.00  0.00     0.073 A 
ENDROOT
BRANCH   4  15
HETATM   15  C5  UNL     1      46.965   9.645  -0.069  1.00  0.00    -0.016 A 
HETATM   16  C6  UNL     1      48.308   9.745   0.319  1.00  0.00     0.013 A 
HETATM   17  C7  UNL     1      48.930   8.675   0.925  1.00  0.00     0.008 A 
HETATM   18  C8  UNL     1      48.249   7.488   1.163  1.00  0.00    -0.057 A 
HETATM   19  C14 UNL     1      46.940   7.439   0.767  1.00  0.00     0.014 A 
HETATM   20  C15 UNL     1      46.280   8.477   0.161  1.00  0.00    -0.050 A 
HETATM   21  C16 UNL     1      44.849   8.374  -0.254  1.00  0.00     0.049 C 
BRANCH  18  22
HETATM   22  C9  UNL     1      48.991   6.403   1.812  1.00  0.00     0.049 C 
BRANCH  22  23
HETATM   23  C10 UNL     1      49.332   5.282   0.865  1.00  0.00    -0.022 C 
HETATM   24  C11 UNL     1      49.564   5.832  -0.510  1.00  0.00     0.017 C 
HETATM   25  C12 UNL     1      50.635   4.666   1.335  1.00  0.00     0.017 C 
BRANCH  23  26
HETATM   26  C13 UNL     1      48.271   4.216   0.909  1.00  0.00     0.173 C 
BRANCH  26  27
HETATM   27  O1  UNL     1      47.776   4.174   2.215  1.00  0.00    -0.400 OA
ATOM     28  H1  UNL     1      47.487   5.052   2.436  1.00  0.00     0.209 HD
ENDBRANCH  26  27
ENDBRANCH  23  26
ENDBRANCH  22  23
ENDBRANCH  18  22
ENDBRANCH   4  15
BRANCH   5  29
HETATM   29  O2  UNL     1      47.178   9.974  -2.816  1.00  0.00    -0.354 OA
HETATM   30  C18 UNL     1      46.494   9.140  -3.741  1.00  0.00     0.210 C 
ENDBRANCH   5  29
BRANCH  13  31
HETATM   31  C23 UNL     1      44.352  13.809   1.659  1.00  0.00     0.083 C 
BRANCH  31  32
HETATM   32  C24 UNL     1      45.257  14.712   2.414  1.00  0.00    -0.054 A 
HETATM   33  C25 UNL     1      44.811  15.848   3.016  1.00  0.00     0.009 A 
HETATM   34  C26 UNL     1      45.647  16.671   3.740  1.00  0.00     0.024 A 
HETATM   35  C27 UNL     1      47.005  16.366   3.887  1.00  0.00     0.034 A 
HETATM   36 CL1  UNL     1      48.082  17.401   4.804  1.00  0.00    -0.084 Cl
HETATM   37  C28 UNL     1      47.472  15.221   3.285  1.00  0.00     0.024 A 
HETATM   38  C29 UNL     1      46.590  14.409   2.556  1.00  0.00     0.009 A 
ENDBRANCH  31  32
ENDBRANCH  13  31
BRANCH  12  39
HETATM   39  N3  UNL     1      43.394  15.784   0.153  1.00  0.00    -0.385 N 
ATOM     40  H32 UNL     1      43.879  16.680   0.203  1.00  0.00     0.157 HD
ATOM     41  H31 UNL     1      42.501  15.576   0.600  1.00  0.00     0.157 HD
ENDBRANCH  12  39
TORSDOF 9
ENDMDL
MODEL 5
REMARK VINA RESULT: -7.519192227      3.894      7.202
REMARK  9 active torsions:
REMARK  status: ('A' for Active; 'I' for Inactive)
REMARK    1  A    between atoms: C4_4  and  C5_5 
REMARK    2  A    between atoms: C8_8  and  C9_9 
REMARK    3  A    between atoms: C9_9  and  C10_10 
REMARK    4  A    between atoms: C10_10  and  C13_13 
REMARK    5  A    between atoms: C13_13  and  O1_14 
REMARK    6  A    between atoms: C17_19  and  O2_20 
REMARK    7  A    between atoms: C21_28  and  N3_29 
REMARK    8  A    between atoms: C22_32  and  C23_33 
REMARK    9  A    between atoms: C23_33  and  C24_34 
ROOT
HETATM    1  C1  UNL     1      44.458  13.660  -1.622  1.00  0.00     0.018 C 
HETATM    2  C2  UNL     1      44.419  12.457  -1.778  1.00  0.00    -0.074 C 
HETATM    3  C3  UNL     1      44.407  11.035  -1.861  1.00  0.00     0.058 A 
HETATM    4  C4  UNL     1      44.988  10.321  -0.798  1.00  0.00     0.030 A 
HETATM    5  C17 UNL     1      45.039   8.957  -0.731  1.00  0.00     0.097 A 
HETATM    6  C19 UNL     1      44.478   8.277  -1.785  1.00  0.00     0.139 A 
HETATM    7  N1  UNL     1      43.905   8.933  -2.835  1.00  0.00    -0.270 N 
HETATM    8  C20 UNL     1      43.389   8.188  -3.820  1.00  0.00     0.332 A 
HETATM    9  O3  UNL     1      43.467   6.921  -3.699  1.00  0.00    -0.246 OA
HETATM   10  N2  UNL     1      42.819   8.742  -4.879  1.00  0.00    -0.294 N 
ATOM     11  H2  UNL     1      42.428   8.167  -5.625  1.00  0.00     0.172 HD
HETATM   12  C21 UNL     1      42.770  10.062  -4.943  1.00  0.00     0.111 A 
HETATM   13  C22 UNL     1      43.285  10.945  -3.959  1.00  0.00     0.019 A 
HETATM   14  C30 UNL     1      43.864  10.320  -2.883  1.00  0.00     0.073 A 
ENDROOT
BRANCH   4  15
HETATM   15  C5  UNL     1      45.568  11.059   0.290  1.00  0.00    -0.016 A 
HETATM   16  C6  UNL     1      44.712  11.393   1.349  1.00  0.00     0.013 A 
HETATM   17  C7  UNL     1      45.196  12.100   2.428  1.00  0.00     0.008 A 
HETATM   18  C8  UNL     1      46.527  12.493   2.491  1.00  0.00    -0.057 A 
HETATM   19  C14 UNL     1      47.323  12.143   1.434  1.00  0.00     0.014 A 
HETATM   20  C15 UNL     1      46.886  11.441   0.341  1.00  0.00    -0.050 A 
HETATM   21  C16 UNL     1      47.796  11.084  -0.789  1.00  0.00     0.049 C 
BRANCH  18  22
HETATM   22  C9  UNL     1      46.954  13.242   3.677  1.00  0.00     0.049 C 
BRANCH  22  23
HETATM   23  C10 UNL     1      46.609  14.706   3.596  1.00  0.00    -0.022 C 
HETATM   24  C11 UNL     1      47.848  15.506   3.331  1.00  0.00     0.017 C 
HETATM   25  C12 UNL     1      45.685  14.893   2.407  1.00  0.00     0.017 C 
BRANCH  23  26
HETATM   26  C13 UNL     1      45.870  15.142   4.832  1.00  0.00     0.173 C 
BRANCH  26  27
HETATM   27  O1  UNL     1      44.592  15.543   4.433  1.00  0.00    -0.400 OA
ATOM     28  H1  UNL     1      43.988  15.293   5.123  1.00  0.00     0.209 HD
ENDBRANCH  26  27
ENDBRANCH  23  26
ENDBRANCH  22  23
ENDBRANCH  18  22
ENDBRANCH   4  15
BRANCH   5  29
HETATM   29  O2  UNL     1      45.620   8.285   0.331  1.00  0.00    -0.354 OA
HETATM   30  C18 UNL     1      46.882   7.643   0.222  1.00  0.00     0.210 C 
ENDBRANCH   5  29
BRANCH  13  31
HETATM   31  C23 UNL     1      43.197  12.366  -4.163  1.00  0.00     0.083 C 
BRANCH  31  32
HETATM   32  C24 UNL     1      41.866  12.973  -3.909  1.00  0.00    -0.054 A 
HETATM   33  C25 UNL     1      40.737  12.223  -3.793  1.00  0.00     0.009 A 
HETATM   34  C26 UNL     1      39.507  12.785  -3.530  1.00  0.00     0.024 A 
HETATM   35  C27 UNL     1      39.368  14.169  -3.369  1.00  0.00     0.034 A 
HETATM   36 CL1  UNL     1      37.811  14.901  -3.034  1.00  0.00    -0.084 Cl
HETATM   37  C28 UNL     1      40.500  14.942  -3.483  1.00  0.00     0.024 A 
HETATM   38  C29 UNL     1      41.735  14.333  -3.751  1.00  0.00     0.009 A 
ENDBRANCH  31  32
ENDBRANCH  13  31
BRANCH  12  39
HETATM   39  N3  UNL     1      42.209  10.669  -5.960  1.00  0.00    -0.385 N 
ATOM     40  H32 UNL     1      42.326  10.182  -6.848  1.00  0.00     0.157 HD
ATOM     41  H31 UNL     1      41.715  11.553  -5.837  1.00  0.00     0.157 HD
ENDBRANCH  12  39
TORSDOF 9
ENDMDL
