MODEL 1
REMARK VINA RESULT: -7.626178827      0.000      0.000
REMARK  11 active torsions:
REMARK  status: ('A' for Active; 'I' for Inactive)
REMARK    1  A    between atoms: C3_5  and  C4_6 
REMARK    2  A    between atoms: C3_5  and  N7_27 
REMARK    3  A    between atoms: C4_6  and  N2_7 
REMARK    4  A    between atoms: N2_7  and  C7_10 
REMARK    5  A    between atoms: N3_14  and  C11_15 
REMARK    6  A    between atoms: C11_15  and  C12_16 
REMARK    7  A    between atoms: C12_16  and  C13_17 
REMARK    8  A    between atoms: C13_17  and  C14_18 
REMARK    9  A    between atoms: C14_18  and  N4_19 
REMARK   10  A    between atoms: N7_27  and  C18_29 
REMARK   11  A    between atoms: C21_34  and  N9_35 
ROOT
HETATM    1  C1  UNL     1      21.693 -12.053   9.005  1.00  0.00     0.037 C 
HETATM    2  C2  UNL     1      20.722 -11.528   9.495  1.00  0.00     0.000 C 
HETATM    3  N1  UNL     1      19.603 -10.901  10.055  1.00  0.00    -0.304 N 
ATOM      4  H1  UNL     1      19.504  -9.892   9.945  1.00  0.00     0.177 HD
HETATM    5  C3  UNL     1      18.694 -11.538  10.702  1.00  0.00     0.117 C 
ENDROOT
BRANCH   5   6
HETATM    6  C4  UNL     1      17.499 -10.931  11.309  1.00  0.00     0.320 C 
BRANCH   6   7
HETATM    7  N2  UNL     1      17.643 -10.527  12.680  1.00  0.00    -0.037 N 
HETATM    8  C5  UNL     1      19.006 -10.357  13.118  1.00  0.00     0.279 C 
HETATM    9  C6  UNL     1      16.929 -11.491  13.508  1.00  0.00     0.279 C 
BRANCH   7  10
HETATM   10  C7  UNL     1      17.039  -9.233  12.824  1.00  0.00     0.151 A 
HETATM   11  C8  UNL     1      16.008  -9.042  13.712  1.00  0.00     0.040 A 
HETATM   12  C9  UNL     1      15.463  -7.774  13.809  1.00  0.00     0.019 A 
HETATM   13  C10 UNL     1      15.983  -6.782  13.016  1.00  0.00     0.090 A 
HETATM   14  N3  UNL     1      17.002  -7.008  12.149  1.00  0.00    -0.364 N 
HETATM   15  C17 UNL     1      17.544  -8.232  12.041  1.00  0.00     0.127 A 
BRANCH  14  16
HETATM   16  C11 UNL     1      17.464  -5.885  11.365  1.00  0.00     0.128 C 
BRANCH  16  17
HETATM   17  C12 UNL     1      16.621  -4.652  11.594  1.00  0.00     0.022 C 
BRANCH  17  18
HETATM   18  C13 UNL     1      16.790  -3.644  10.486  1.00  0.00     0.023 C 
BRANCH  18  19
HETATM   19  C14 UNL     1      18.234  -3.655  10.052  1.00  0.00     0.150 C 
BRANCH  19  20
HETATM   20  N4  UNL     1      18.335  -3.702   8.608  1.00  0.00    -0.287 N 
HETATM   21  C15 UNL     1      17.335  -3.391   7.777  1.00  0.00     0.201 A 
HETATM   22  N5  UNL     1      17.830  -3.562   6.529  1.00  0.00    -0.346 N 
HETATM   23  C16 UNL     1      19.102  -3.966   6.646  1.00  0.00     0.198 A 
ATOM     24  H5  UNL     1      17.325  -3.409   5.656  1.00  0.00     0.167 HD
HETATM   25  N6  UNL     1      19.410  -4.051   7.941  1.00  0.00    -0.293 N 
ATOM     26  H6  UNL     1      20.307  -4.333   8.336  1.00  0.00     0.188 HD
ENDBRANCH  19  20
ENDBRANCH  18  19
ENDBRANCH  17  18
ENDBRANCH  16  17
ENDBRANCH  14  16
ENDBRANCH   7  10
ENDBRANCH   6   7
ENDBRANCH   5   6
BRANCH   5  27
HETATM   27  N7  UNL     1      18.856 -12.943  10.840  1.00  0.00    -0.330 N 
ATOM     28  H7  UNL     1      19.415 -13.283  11.623  1.00  0.00     0.168 HD
BRANCH  27  29
HETATM   29  C18 UNL     1      18.351 -13.804  10.055  1.00  0.00     0.123 A 
HETATM   30  C19 UNL     1      17.147 -13.591   9.425  1.00  0.00     0.066 A 
HETATM   31  C20 UNL     1      16.598 -14.541   8.562  1.00  0.00     0.110 A 
HETATM   32  N8  UNL     1      17.244 -15.696   8.329  1.00  0.00    -0.202 N 
HETATM   33  C21 UNL     1      18.419 -15.885   8.955  1.00  0.00     0.677 A 
ATOM     34  H8  UNL     1      16.858 -16.402   7.701  1.00  0.00     0.183 HD
HETATM   35  N10 UNL     1      18.968 -14.969   9.798  1.00  0.00    -0.177 N 
ATOM     36  H10 UNL     1      19.863 -15.170  10.242  1.00  0.00     0.185 HD
BRANCH  33  37
HETATM   37  N9  UNL     1      19.038 -16.990   8.732  1.00  0.00    -0.234 N 
ATOM     38  H92 UNL     1      18.502 -17.847   8.598  1.00  0.00     0.174 HD
ATOM     39  H91 UNL     1      20.057 -16.960   8.698  1.00  0.00     0.174 HD
ENDBRANCH  33  37
ENDBRANCH  27  29
ENDBRANCH   5  27
TORSDOF 11
ENDMDL
MODEL 2
REMARK VINA RESULT: -7.589539804      2.066      9.062
REMARK  11 active torsions:
REMARK  status: ('A' for Active; 'I' for Inactive)
REMARK    1  A    between atoms: C3_5  and  C4_6 
REMARK    2  A    between atoms: C3_5  and  N7_27 
REMARK    3  A    between atoms: C4_6  and  N2_7 
REMARK    4  A    between atoms: N2_7  and  C7_10 
REMARK    5  A    between atoms: N3_14  and  C11_15 
REMARK    6  A    between atoms: C11_15  and  C12_16 
REMARK    7  A    between atoms: C12_16  and  C13_17 
REMARK    8  A    between atoms: C13_17  and  C14_18 
REMARK    9  A    between atoms: C14_18  and  N4_19 
REMARK   10  A    between atoms: N7_27  and  C18_29 
REMARK   11  A    between atoms: C21_34  and  N9_35 
ROOT
HETATM    1  C1  UNL     1      16.106  -3.526  15.184  1.00  0.00     0.037 C 
HETATM    2  C2  UNL     1      16.216  -4.622  14.689  1.00  0.00     0.000 C 
HETATM    3  N1  UNL     1      16.346  -5.901  14.135  1.00  0.00    -0.304 N 
ATOM      4  H1  UNL     1      16.567  -6.680  14.755  1.00  0.00     0.177 HD
HETATM    5  C3  UNL     1      16.200  -6.140  12.882  1.00  0.00     0.117 C 
ENDROOT
BRANCH   5   6
HETATM    6  C4  UNL     1      16.324  -7.461  12.246  1.00  0.00     0.320 C 
BRANCH   6   7
HETATM    7  N2  UNL     1      17.446  -8.247  12.677  1.00  0.00    -0.037 N 
HETATM    8  C5  UNL     1      18.140  -7.728  13.829  1.00  0.00     0.279 C 
HETATM    9  C6  UNL     1      18.342  -8.409  11.538  1.00  0.00     0.279 C 
BRANCH   7  10
HETATM   10  C7  UNL     1      16.954  -9.533  13.084  1.00  0.00     0.151 A 
HETATM   11  C8  UNL     1      16.206  -9.660  14.228  1.00  0.00     0.040 A 
HETATM   12  C9  UNL     1      15.758 -10.924  14.572  1.00  0.00     0.019 A 
HETATM   13  C10 UNL     1      16.085 -11.974  13.752  1.00  0.00     0.090 A 
HETATM   14  N3  UNL     1      16.828 -11.810  12.629  1.00  0.00    -0.364 N 
HETATM   15  C17 UNL     1      17.272 -10.592  12.278  1.00  0.00     0.127 A 
BRANCH  14  16
HETATM   16  C11 UNL     1      17.111 -12.991  11.844  1.00  0.00     0.128 C 
BRANCH  16  17
HETATM   17  C12 UNL     1      17.110 -12.697  10.362  1.00  0.00     0.022 C 
BRANCH  17  18
HETATM   18  C13 UNL     1      16.215 -13.644   9.603  1.00  0.00     0.023 C 
BRANCH  18  19
HETATM   19  C14 UNL     1      17.045 -14.347   8.558  1.00  0.00     0.150 C 
BRANCH  19  20
HETATM   20  N4  UNL     1      16.492 -15.650   8.256  1.00  0.00    -0.287 N 
HETATM   21  C15 UNL     1      16.937 -16.794   8.786  1.00  0.00     0.201 A 
HETATM   22  N5  UNL     1      16.166 -17.769   8.253  1.00  0.00    -0.346 N 
HETATM   23  C16 UNL     1      15.287 -17.188   7.425  1.00  0.00     0.198 A 
ATOM     24  H5  UNL     1      16.240 -18.768   8.447  1.00  0.00     0.167 HD
HETATM   25  N6  UNL     1      15.495 -15.870   7.431  1.00  0.00    -0.293 N 
ATOM     26  H6  UNL     1      14.979 -15.170   6.899  1.00  0.00     0.188 HD
ENDBRANCH  19  20
ENDBRANCH  18  19
ENDBRANCH  17  18
ENDBRANCH  16  17
ENDBRANCH  14  16
ENDBRANCH   7  10
ENDBRANCH   6   7
ENDBRANCH   5   6
BRANCH   5  27
HETATM   27  N7  UNL     1      15.892  -5.036  12.040  1.00  0.00    -0.330 N 
ATOM     28  H7  UNL     1      15.050  -4.501  12.246  1.00  0.00     0.168 HD
BRANCH  27  29
HETATM   29  C18 UNL     1      16.596  -4.673  11.047  1.00  0.00     0.123 A 
HETATM   30  C19 UNL     1      16.112  -3.810  10.092  1.00  0.00     0.066 A 
HETATM   31  C20 UNL     1      16.891  -3.414   9.004  1.00  0.00     0.110 A 
HETATM   32  N8  UNL     1      18.146  -3.876   8.869  1.00  0.00    -0.202 N 
HETATM   33  C21 UNL     1      18.602  -4.718   9.813  1.00  0.00     0.677 A 
ATOM     34  H8  UNL     1      18.731  -3.597   8.080  1.00  0.00     0.183 HD
HETATM   35  N10 UNL     1      17.854  -5.113  10.879  1.00  0.00    -0.177 N 
ATOM     36  H10 UNL     1      18.256  -5.753  11.563  1.00  0.00     0.185 HD
BRANCH  33  37
HETATM   37  N9  UNL     1      19.802  -5.159   9.684  1.00  0.00    -0.234 N 
ATOM     38  H92 UNL     1      20.437  -4.704   9.027  1.00  0.00     0.174 HD
ATOM     39  H91 UNL     1      20.073  -5.960  10.255  1.00  0.00     0.174 HD
ENDBRANCH  33  37
ENDBRANCH  27  29
ENDBRANCH   5  27
TORSDOF 11
ENDMDL
MODEL 3
REMARK VINA RESULT: -7.395000284      1.602      2.757
REMARK  11 active torsions:
REMARK  status: ('A' for Active; 'I' for Inactive)
REMARK    1  A    between atoms: C3_5  and  C4_6 
REMARK    2  A    between atoms: C3_5  and  N7_27 
REMARK    3  A    between atoms: C4_6  and  N2_7 
REMARK    4  A    between atoms: N2_7  and  C7_10 
REMARK    5  A    between atoms: N3_14  and  C11_15 
REMARK    6  A    between atoms: C11_15  and  C12_16 
REMARK    7  A    between atoms: C12_16  and  C13_17 
REMARK    8  A    between atoms: C13_17  and  C14_18 
REMARK    9  A    between atoms: C14_18  and  N4_19 
REMARK   10  A    between atoms: N7_27  and  C18_29 
REMARK   11  A    between atoms: C21_34  and  N9_35 
ROOT
HETATM    1  C1  UNL     1      16.982 -15.999  15.018  1.00  0.00     0.037 C 
HETATM    2  C2  UNL     1      16.773 -14.894  14.579  1.00  0.00     0.000 C 
HETATM    3  N1  UNL     1      16.517 -13.610  14.085  1.00  0.00    -0.304 N 
ATOM      4  H1  UNL     1      15.826 -13.033  14.564  1.00  0.00     0.177 HD
HETATM    5  C3  UNL     1      17.112 -13.123  13.057  1.00  0.00     0.117 C 
ENDROOT
BRANCH   5   6
HETATM    6  C4  UNL     1      16.884 -11.781  12.496  1.00  0.00     0.320 C 
BRANCH   6   7
HETATM    7  N2  UNL     1      17.797 -10.766  12.940  1.00  0.00    -0.037 N 
HETATM    8  C5  UNL     1      18.923 -10.544  12.067  1.00  0.00     0.279 C 
HETATM    9  C6  UNL     1      18.224 -11.108  14.291  1.00  0.00     0.279 C 
BRANCH   7  10
HETATM   10  C7  UNL     1      17.090  -9.517  12.965  1.00  0.00     0.151 A 
HETATM   11  C8  UNL     1      15.939  -9.384  13.703  1.00  0.00     0.040 A 
HETATM   12  C9  UNL     1      15.299  -8.157  13.689  1.00  0.00     0.019 A 
HETATM   13  C10 UNL     1      15.849  -7.146  12.943  1.00  0.00     0.090 A 
HETATM   14  N3  UNL     1      16.988  -7.315  12.225  1.00  0.00    -0.364 N 
HETATM   15  C17 UNL     1      17.624  -8.498  12.225  1.00  0.00     0.127 A 
BRANCH  14  16
HETATM   16  C11 UNL     1      17.472  -6.177  11.475  1.00  0.00     0.128 C 
BRANCH  16  17
HETATM   17  C12 UNL     1      16.581  -4.969  11.647  1.00  0.00     0.022 C 
BRANCH  17  18
HETATM   18  C13 UNL     1      17.149  -3.751  10.962  1.00  0.00     0.023 C 
BRANCH  18  19
HETATM   19  C14 UNL     1      16.551  -3.664   9.580  1.00  0.00     0.150 C 
BRANCH  19  20
HETATM   20  N4  UNL     1      17.591  -3.623   8.573  1.00  0.00    -0.287 N 
HETATM   21  C15 UNL     1      18.899  -3.602   8.848  1.00  0.00     0.201 A 
HETATM   22  N5  UNL     1      19.525  -3.565   7.649  1.00  0.00    -0.346 N 
HETATM   23  C16 UNL     1      18.582  -3.565   6.697  1.00  0.00     0.198 A 
ATOM     24  H5  UNL     1      20.533  -3.541   7.498  1.00  0.00     0.167 HD
HETATM   25  N6  UNL     1      17.382  -3.601   7.278  1.00  0.00    -0.293 N 
ATOM     26  H6  UNL     1      16.478  -3.610   6.806  1.00  0.00     0.188 HD
ENDBRANCH  19  20
ENDBRANCH  18  19
ENDBRANCH  17  18
ENDBRANCH  16  17
ENDBRANCH  14  16
ENDBRANCH   7  10
ENDBRANCH   6   7
ENDBRANCH   5   6
BRANCH   5  27
HETATM   27  N7  UNL     1      18.071 -13.947  12.408  1.00  0.00    -0.330 N 
ATOM     28  H7  UNL     1      18.765 -14.418  12.988  1.00  0.00     0.168 HD
BRANCH  27  29
HETATM   29  C18 UNL     1      18.122 -14.137  11.153  1.00  0.00     0.123 A 
HETATM   30  C19 UNL     1      19.282 -13.946  10.438  1.00  0.00     0.066 A 
HETATM   31  C20 UNL     1      19.332 -14.156   9.059  1.00  0.00     0.110 A 
HETATM   32  N8  UNL     1      18.232 -14.554   8.397  1.00  0.00    -0.202 N 
HETATM   33  C21 UNL     1      17.109 -14.736   9.113  1.00  0.00     0.677 A 
ATOM     34  H8  UNL     1      18.250 -14.713   7.389  1.00  0.00     0.183 HD
HETATM   35  N10 UNL     1      17.045 -14.535  10.457  1.00  0.00    -0.177 N 
ATOM     36  H10 UNL     1      16.163 -14.690  10.946  1.00  0.00     0.185 HD
BRANCH  33  37
HETATM   37  N9  UNL     1      16.057 -15.117   8.480  1.00  0.00    -0.234 N 
ATOM     38  H92 UNL     1      15.340 -14.432   8.239  1.00  0.00     0.174 HD
ATOM     39  H91 UNL     1      15.984 -16.106   8.240  1.00  0.00     0.174 HD
ENDBRANCH  33  37
ENDBRANCH  27  29
ENDBRANCH   5  27
TORSDOF 11
ENDMDL
MODEL 4
REMARK VINA RESULT: -7.226681251      1.306      2.755
REMARK  11 active torsions:
REMARK  status: ('A' for Active; 'I' for Inactive)
REMARK    1  A    between atoms: C3_5  and  C4_6 
REMARK    2  A    between atoms: C3_5  and  N7_27 
REMARK    3  A    between atoms: C4_6  and  N2_7 
REMARK    4  A    between atoms: N2_7  and  C7_10 
REMARK    5  A    between atoms: N3_14  and  C11_15 
REMARK    6  A    between atoms: C11_15  and  C12_16 
REMARK    7  A    between atoms: C12_16  and  C13_17 
REMARK    8  A    between atoms: C13_17  and  C14_18 
REMARK    9  A    between atoms: C14_18  and  N4_19 
REMARK   10  A    between atoms: N7_27  and  C18_29 
REMARK   11  A    between atoms: C21_34  and  N9_35 
ROOT
HETATM    1  C1  UNL     1      17.063 -15.110   9.063  1.00  0.00     0.037 C 
HETATM    2  C2  UNL     1      17.044 -13.983   9.496  1.00  0.00     0.000 C 
HETATM    3  N1  UNL     1      17.003 -12.675   9.993  1.00  0.00    -0.304 N 
ATOM      4  H1  UNL     1      16.146 -12.135   9.873  1.00  0.00     0.177 HD
HETATM    5  C3  UNL     1      17.995 -12.122  10.593  1.00  0.00     0.117 C 
ENDROOT
BRANCH   5   6
HETATM    6  C4  UNL     1      18.006 -10.753  11.135  1.00  0.00     0.320 C 
BRANCH   6   7
HETATM    7  N2  UNL     1      17.692 -10.643  12.532  1.00  0.00    -0.037 N 
HETATM    8  C5  UNL     1      18.835 -10.650  13.410  1.00  0.00     0.279 C 
HETATM    9  C6  UNL     1      16.751 -11.705  12.864  1.00  0.00     0.279 C 
BRANCH   7  10
HETATM   10  C7  UNL     1      17.065  -9.368  12.743  1.00  0.00     0.151 A 
HETATM   11  C8  UNL     1      16.009  -9.248  13.613  1.00  0.00     0.040 A 
HETATM   12  C9  UNL     1      15.445  -7.995  13.777  1.00  0.00     0.019 A 
HETATM   13  C10 UNL     1      15.970  -6.948  13.064  1.00  0.00     0.090 A 
HETATM   14  N3  UNL     1      17.015  -7.105  12.212  1.00  0.00    -0.364 N 
HETATM   15  C17 UNL     1      17.576  -8.312  12.039  1.00  0.00     0.127 A 
BRANCH  14  16
HETATM   16  C11 UNL     1      17.482  -5.927  11.515  1.00  0.00     0.128 C 
BRANCH  16  17
HETATM   17  C12 UNL     1      16.569  -4.743  11.735  1.00  0.00     0.022 C 
BRANCH  17  18
HETATM   18  C13 UNL     1      16.671  -3.741  10.612  1.00  0.00     0.023 C 
BRANCH  18  19
HETATM   19  C14 UNL     1      18.100  -3.711  10.132  1.00  0.00     0.150 C 
BRANCH  19  20
HETATM   20  N4  UNL     1      18.154  -3.651   8.687  1.00  0.00    -0.287 N 
HETATM   21  C15 UNL     1      17.077  -3.578   7.899  1.00  0.00     0.201 A 
HETATM   22  N5  UNL     1      17.550  -3.541   6.633  1.00  0.00    -0.346 N 
HETATM   23  C16 UNL     1      18.888  -3.594   6.695  1.00  0.00     0.198 A 
ATOM     24  H5  UNL     1      16.990  -3.484   5.782  1.00  0.00     0.167 HD
HETATM   25  N6  UNL     1      19.257  -3.662   7.975  1.00  0.00    -0.293 N 
ATOM     26  H6  UNL     1      20.212  -3.712   8.331  1.00  0.00     0.188 HD
ENDBRANCH  19  20
ENDBRANCH  18  19
ENDBRANCH  17  18
ENDBRANCH  16  17
ENDBRANCH  14  16
ENDBRANCH   7  10
ENDBRANCH   6   7
ENDBRANCH   5   6
BRANCH   5  27
HETATM   27  N7  UNL     1      19.177 -12.895  10.748  1.00  0.00    -0.330 N 
ATOM     28  H7  UNL     1      19.132 -13.720  11.346  1.00  0.00     0.168 HD
BRANCH  27  29
HETATM   29  C18 UNL     1      20.286 -12.629  10.190  1.00  0.00     0.123 A 
HETATM   30  C19 UNL     1      21.295 -11.974  10.858  1.00  0.00     0.066 A 
HETATM   31  C20 UNL     1      22.512 -11.685  10.239  1.00  0.00     0.110 A 
HETATM   32  N8  UNL     1      22.723 -12.046   8.962  1.00  0.00    -0.202 N 
HETATM   33  C21 UNL     1      21.725 -12.685   8.326  1.00  0.00     0.677 A 
ATOM     34  H8  UNL     1      23.606 -11.843   8.494  1.00  0.00     0.183 HD
HETATM   35  N10 UNL     1      20.534 -12.975   8.916  1.00  0.00    -0.177 N 
ATOM     36  H10 UNL     1      19.816 -13.463   8.381  1.00  0.00     0.185 HD
BRANCH  33  37
HETATM   37  N9  UNL     1      21.927 -13.031   7.104  1.00  0.00    -0.234 N 
ATOM     38  H92 UNL     1      22.856 -12.919   6.697  1.00  0.00     0.174 HD
ATOM     39  H91 UNL     1      21.135 -13.411   6.586  1.00  0.00     0.174 HD
ENDBRANCH  33  37
ENDBRANCH  27  29
ENDBRANCH   5  27
TORSDOF 11
ENDMDL
MODEL 5
REMARK VINA RESULT: -7.144419252      2.212      3.054
REMARK  11 active torsions:
REMARK  status: ('A' for Active; 'I' for Inactive)
REMARK    1  A    between atoms: C3_5  and  C4_6 
REMARK    2  A    between atoms: C3_5  and  N7_27 
REMARK    3  A    between atoms: C4_6  and  N2_7 
REMARK    4  A    between atoms: N2_7  and  C7_10 
REMARK    5  A    between atoms: N3_14  and  C11_15 
REMARK    6  A    between atoms: C11_15  and  C12_16 
REMARK    7  A    between atoms: C12_16  and  C13_17 
REMARK    8  A    between atoms: C13_17  and  C14_18 
REMARK    9  A    between atoms: C14_18  and  N4_19 
REMARK   10  A    between atoms: N7_27  and  C18_29 
REMARK   11  A    between atoms: C21_34  and  N9_35 
ROOT
HETATM    1  C1  UNL     1      16.833 -14.334   8.782  1.00  0.00     0.037 C 
HETATM    2  C2  UNL     1      16.727 -13.526   9.674  1.00  0.00     0.000 C 
HETATM    3  N1  UNL     1      16.588 -12.582  10.698  1.00  0.00    -0.304 N 
ATOM      4  H1  UNL     1      15.846 -11.886  10.620  1.00  0.00     0.177 HD
HETATM    5  C3  UNL     1      17.349 -12.552  11.731  1.00  0.00     0.117 C 
ENDROOT
BRANCH   5   6
HETATM    6  C4  UNL     1      17.247 -11.585  12.836  1.00  0.00     0.320 C 
BRANCH   6   7
HETATM    7  N2  UNL     1      18.145 -10.467  12.760  1.00  0.00    -0.037 N 
HETATM    8  C5  UNL     1      18.899 -10.382  11.534  1.00  0.00     0.279 C 
HETATM    9  C6  UNL     1      19.019 -10.515  13.926  1.00  0.00     0.279 C 
BRANCH   7  10
HETATM   10  C7  UNL     1      17.360  -9.266  12.800  1.00  0.00     0.151 A 
HETATM   11  C8  UNL     1      16.221  -9.206  13.566  1.00  0.00     0.040 A 
HETATM   12  C9  UNL     1      15.503  -8.023  13.567  1.00  0.00     0.019 A 
HETATM   13  C10 UNL     1      15.968  -6.981  12.806  1.00  0.00     0.090 A 
HETATM   14  N3  UNL     1      17.098  -7.078  12.061  1.00  0.00    -0.364 N 
HETATM   15  C17 UNL     1      17.809  -8.217  12.047  1.00  0.00     0.127 A 
BRANCH  14  16
HETATM   16  C11 UNL     1      17.489  -5.913  11.299  1.00  0.00     0.128 C 
BRANCH  16  17
HETATM   17  C12 UNL     1      16.662  -4.700  11.658  1.00  0.00     0.022 C 
BRANCH  17  18
HETATM   18  C13 UNL     1      16.866  -3.572  10.678  1.00  0.00     0.023 C 
BRANCH  18  19
HETATM   19  C14 UNL     1      18.250  -3.699  10.093  1.00  0.00     0.150 C 
BRANCH  19  20
HETATM   20  N4  UNL     1      18.200  -3.658   8.646  1.00  0.00    -0.287 N 
HETATM   21  C15 UNL     1      17.071  -3.560   7.938  1.00  0.00     0.201 A 
HETATM   22  N5  UNL     1      17.451  -3.554   6.640  1.00  0.00    -0.346 N 
HETATM   23  C16 UNL     1      18.788  -3.649   6.606  1.00  0.00     0.198 A 
ATOM     24  H5  UNL     1      16.832  -3.489   5.832  1.00  0.00     0.167 HD
HETATM   25  N6  UNL     1      19.247  -3.714   7.856  1.00  0.00    -0.293 N 
ATOM     26  H6  UNL     1      20.223  -3.790   8.143  1.00  0.00     0.188 HD
ENDBRANCH  19  20
ENDBRANCH  18  19
ENDBRANCH  17  18
ENDBRANCH  16  17
ENDBRANCH  14  16
ENDBRANCH   7  10
ENDBRANCH   6   7
ENDBRANCH   5   6
BRANCH   5  27
HETATM   27  N7  UNL     1      18.374 -13.534  11.815  1.00  0.00    -0.330 N 
ATOM     28  H7  UNL     1      19.002 -13.635  11.019  1.00  0.00     0.168 HD
BRANCH  27  29
HETATM   29  C18 UNL     1      18.558 -14.294  12.816  1.00  0.00     0.123 A 
HETATM   30  C19 UNL     1      19.730 -14.270  13.537  1.00  0.00     0.066 A 
HETATM   31  C20 UNL     1      19.926 -15.106  14.636  1.00  0.00     0.110 A 
HETATM   32  N8  UNL     1      18.962 -15.962  15.015  1.00  0.00    -0.202 N 
HETATM   33  C21 UNL     1      17.824 -15.970  14.298  1.00  0.00     0.677 A 
ATOM     34  H8  UNL     1      19.088 -16.581  15.816  1.00  0.00     0.183 HD
HETATM   35  N10 UNL     1      17.618 -15.160  13.224  1.00  0.00    -0.177 N 
ATOM     36  H10 UNL     1      16.732 -15.213  12.720  1.00  0.00     0.185 HD
BRANCH  33  37
HETATM   37  N9  UNL     1      16.901 -16.789  14.660  1.00  0.00    -0.234 N 
ATOM     38  H92 UNL     1      16.369 -16.601  15.510  1.00  0.00     0.174 HD
ATOM     39  H91 UNL     1      16.738 -17.605  14.070  1.00  0.00     0.174 HD
ENDBRANCH  33  37
ENDBRANCH  27  29
ENDBRANCH   5  27
TORSDOF 11
ENDMDL
