MODEL 1
REMARK VINA RESULT: -6.836248407      0.000      0.000
REMARK  3 active torsions:
REMARK  status: ('A' for Active; 'I' for Inactive)
REMARK    1  A    between atoms: C2_2  and  N1_3 
REMARK    2  A    between atoms: C2_2  and  C5_11 
REMARK       I    between atoms: N1_3  and  C3_5 
REMARK       I    between atoms: C3_5  and  N2_7 
REMARK       I    between atoms: C5_11  and  N4_13 
REMARK    3  A    between atoms: N4_13  and  C6_15 
ROOT
HETATM    1  N1  UNL     1      -5.652  26.613  28.766  1.00  0.00    -0.329 N 
ATOM      2  H1  UNL     1      -4.999  25.868  28.523  1.00  0.00     0.165 HD
HETATM    3  C3  UNL     1      -6.267  27.353  27.733  1.00  0.00     0.329 C 
HETATM    4  O1  UNL     1      -7.087  28.289  27.994  1.00  0.00    -0.246 OA
HETATM    5  N2  UNL     1      -5.995  27.081  26.373  1.00  0.00    -0.245 N 
ATOM      6  H2  UNL     1      -5.339  26.333  26.146  1.00  0.00     0.183 HD
HETATM    7  C4  UNL     1      -6.578  27.785  25.336  1.00  0.00     0.185 C 
HETATM    8  N3  UNL     1      -7.079  28.364  24.467  1.00  0.00    -0.172 NA
ENDROOT
BRANCH   1   9
HETATM    9  C2  UNL     1      -5.927  26.886  30.165  1.00  0.00     0.174 C 
HETATM   10  C1  UNL     1      -7.063  25.952  30.572  1.00  0.00     0.042 C 
BRANCH   9  11
HETATM   11  C5  UNL     1      -4.717  26.657  30.978  1.00  0.00     0.240 C 
HETATM   12  O2  UNL     1      -4.828  26.486  32.219  1.00  0.00    -0.271 OA
HETATM   13  N4  UNL     1      -3.443  26.638  30.334  1.00  0.00    -0.355 N 
ATOM     14  H4  UNL     1      -3.383  26.781  29.326  1.00  0.00     0.162 HD
BRANCH  13  15
HETATM   15  C6  UNL     1      -2.217  26.413  31.113  1.00  0.00     0.086 C 
HETATM   16  C7  UNL     1      -1.273  25.638  30.288  1.00  0.00     0.025 C 
HETATM   17  C8  UNL     1      -1.353  24.161  30.385  1.00  0.00     0.004 C 
HETATM   18  C9  UNL     1      -1.705  23.583  31.700  1.00  0.00     0.020 C 
HETATM   19  C10 UNL     1      -0.599  23.540  32.716  1.00  0.00     0.122 C 
HETATM   20  N5  UNL     1       0.561  24.328  32.365  1.00  0.00    -0.360 N 
HETATM   21  C11 UNL     1       1.142  25.327  33.191  1.00  0.00     0.243 C 
ATOM     22  H5  UNL     1       0.995  24.154  31.459  1.00  0.00     0.162 HD
HETATM   23  O3  UNL     1       2.392  25.465  33.263  1.00  0.00    -0.272 OA
HETATM   24  C12 UNL     1       0.328  26.266  34.017  1.00  0.00     0.334 C 
HETATM   25  N6  UNL     1      -0.859  26.694  33.302  1.00  0.00    -0.067 N 
HETATM   26  C13 UNL     1      -0.600  27.820  32.437  1.00  0.00     0.235 C 
ATOM     27  H62 UNL     1      -1.277  25.920  32.786  1.00  0.00     0.277 HD
ATOM     28  H61 UNL     1      -1.625  26.892  33.946  1.00  0.00     0.277 HD
HETATM   29  C14 UNL     1      -1.643  27.817  31.343  1.00  0.00     0.052 C 
ENDBRANCH  13  15
ENDBRANCH   9  11
ENDBRANCH   1   9
TORSDOF 3
ENDMDL
MODEL 2
REMARK VINA RESULT: -6.807852673      3.169      4.023
REMARK  3 active torsions:
REMARK  status: ('A' for Active; 'I' for Inactive)
REMARK    1  A    between atoms: C2_2  and  N1_3 
REMARK    2  A    between atoms: C2_2  and  C5_11 
REMARK       I    between atoms: N1_3  and  C3_5 
REMARK       I    between atoms: C3_5  and  N2_7 
REMARK       I    between atoms: C5_11  and  N4_13 
REMARK    3  A    between atoms: N4_13  and  C6_15 
ROOT
HETATM    1  N1  UNL     1      -1.610  26.260  27.705  1.00  0.00    -0.329 N 
ATOM      2  H1  UNL     1      -0.695  25.813  27.756  1.00  0.00     0.165 HD
HETATM    3  C3  UNL     1      -2.135  26.611  26.442  1.00  0.00     0.329 C 
HETATM    4  O1  UNL     1      -3.273  27.169  26.335  1.00  0.00    -0.246 OA
HETATM    5  N2  UNL     1      -1.417  26.354  25.252  1.00  0.00    -0.245 N 
ATOM      6  H2  UNL     1      -0.504  25.907  25.320  1.00  0.00     0.183 HD
HETATM    7  C4  UNL     1      -1.900  26.684  23.999  1.00  0.00     0.185 C 
HETATM    8  N3  UNL     1      -2.311  26.946  22.949  1.00  0.00    -0.172 NA
ENDROOT
BRANCH   1   9
HETATM    9  C2  UNL     1      -2.342  26.519  28.931  1.00  0.00     0.174 C 
HETATM   10  C1  UNL     1      -3.699  25.840  28.777  1.00  0.00     0.042 C 
BRANCH   9  11
HETATM   11  C5  UNL     1      -1.599  25.991  30.092  1.00  0.00     0.240 C 
HETATM   12  O2  UNL     1      -0.781  26.733  30.694  1.00  0.00    -0.271 OA
HETATM   13  N4  UNL     1      -1.826  24.644  30.504  1.00  0.00    -0.355 N 
ATOM     14  H4  UNL     1      -2.495  24.065  29.996  1.00  0.00     0.162 HD
BRANCH  13  15
HETATM   15  C6  UNL     1      -1.104  24.084  31.655  1.00  0.00     0.086 C 
HETATM   16  C7  UNL     1      -2.083  23.734  32.699  1.00  0.00     0.025 C 
HETATM   17  C8  UNL     1      -2.415  24.788  33.688  1.00  0.00     0.004 C 
HETATM   18  C9  UNL     1      -1.332  25.714  34.086  1.00  0.00     0.020 C 
HETATM   19  C10 UNL     1      -0.334  25.172  35.070  1.00  0.00     0.122 C 
HETATM   20  N5  UNL     1      -0.406  23.742  35.265  1.00  0.00    -0.360 N 
HETATM   21  C11 UNL     1       0.689  22.849  35.126  1.00  0.00     0.243 C 
ATOM     22  H5  UNL     1      -1.310  23.344  35.522  1.00  0.00     0.162 HD
HETATM   23  O3  UNL     1       0.838  21.876  35.912  1.00  0.00    -0.272 OA
HETATM   24  C12 UNL     1       1.720  22.997  34.058  1.00  0.00     0.334 C 
HETATM   25  N6  UNL     1       1.119  23.409  32.805  1.00  0.00    -0.067 N 
HETATM   26  C13 UNL     1       0.621  22.288  32.044  1.00  0.00     0.235 C 
ATOM     27  H62 UNL     1       0.389  24.105  32.957  1.00  0.00     0.277 HD
ATOM     28  H61 UNL     1       1.767  23.970  32.252  1.00  0.00     0.277 HD
HETATM   29  C14 UNL     1      -0.463  22.797  31.120  1.00  0.00     0.052 C 
ENDBRANCH  13  15
ENDBRANCH   9  11
ENDBRANCH   1   9
TORSDOF 3
ENDMDL
MODEL 3
REMARK VINA RESULT: -6.759077273      2.060      8.160
REMARK  3 active torsions:
REMARK  status: ('A' for Active; 'I' for Inactive)
REMARK    1  A    between atoms: C2_2  and  N1_3 
REMARK    2  A    between atoms: C2_2  and  C5_11 
REMARK       I    between atoms: N1_3  and  C3_5 
REMARK       I    between atoms: C3_5  and  N2_7 
REMARK       I    between atoms: C5_11  and  N4_13 
REMARK    3  A    between atoms: N4_13  and  C6_15 
ROOT
HETATM    1  N1  UNL     1      -0.113  24.197  33.001  1.00  0.00    -0.329 N 
ATOM      2  H1  UNL     1      -0.963  23.877  33.465  1.00  0.00     0.165 HD
HETATM    3  C3  UNL     1       0.962  24.669  33.784  1.00  0.00     0.329 C 
HETATM    4  O1  UNL     1       2.040  25.076  33.244  1.00  0.00    -0.246 OA
HETATM    5  N2  UNL     1       0.883  24.705  35.195  1.00  0.00    -0.245 N 
ATOM      6  H2  UNL     1       0.026  24.382  35.644  1.00  0.00     0.183 HD
HETATM    7  C4  UNL     1       1.916  25.161  35.993  1.00  0.00     0.185 C 
HETATM    8  N3  UNL     1       2.786  25.527  36.662  1.00  0.00    -0.172 NA
ENDROOT
BRANCH   1   9
HETATM    9  C2  UNL     1      -0.038  24.156  31.552  1.00  0.00     0.174 C 
HETATM   10  C1  UNL     1       0.303  22.716  31.178  1.00  0.00     0.042 C 
BRANCH   9  11
HETATM   11  C5  UNL     1      -1.322  24.581  30.961  1.00  0.00     0.240 C 
HETATM   12  O2  UNL     1      -2.361  23.910  31.188  1.00  0.00    -0.271 OA
HETATM   13  N4  UNL     1      -1.353  25.749  30.140  1.00  0.00    -0.355 N 
ATOM     14  H4  UNL     1      -0.494  26.272  29.972  1.00  0.00     0.162 HD
BRANCH  13  15
HETATM   15  C6  UNL     1      -2.613  26.202  29.535  1.00  0.00     0.086 C 
HETATM   16  C7  UNL     1      -2.932  27.541  30.060  1.00  0.00     0.025 C 
HETATM   17  C8  UNL     1      -3.749  27.601  31.295  1.00  0.00     0.004 C 
HETATM   18  C9  UNL     1      -4.783  26.560  31.479  1.00  0.00     0.020 C 
HETATM   19  C10 UNL     1      -6.049  26.747  30.691  1.00  0.00     0.122 C 
HETATM   20  N5  UNL     1      -5.962  27.752  29.655  1.00  0.00    -0.360 N 
HETATM   21  C11 UNL     1      -6.281  27.535  28.288  1.00  0.00     0.243 C 
ATOM     22  H5  UNL     1      -5.650  28.684  29.925  1.00  0.00     0.162 HD
HETATM   23  O3  UNL     1      -6.875  28.417  27.612  1.00  0.00    -0.272 OA
HETATM   24  C12 UNL     1      -5.940  26.273  27.570  1.00  0.00     0.334 C 
HETATM   25  N6  UNL     1      -4.634  25.783  27.966  1.00  0.00    -0.067 N 
HETATM   26  C13 UNL     1      -3.568  26.396  27.211  1.00  0.00     0.235 C 
ATOM     27  H62 UNL     1      -4.487  25.896  28.970  1.00  0.00     0.277 HD
ATOM     28  H61 UNL     1      -4.589  24.766  27.908  1.00  0.00     0.277 HD
HETATM   29  C14 UNL     1      -2.304  26.313  28.036  1.00  0.00     0.052 C 
ENDBRANCH  13  15
ENDBRANCH   9  11
ENDBRANCH   1   9
TORSDOF 3
ENDMDL
MODEL 4
REMARK VINA RESULT: -6.678942800      3.136      4.144
REMARK  3 active torsions:
REMARK  status: ('A' for Active; 'I' for Inactive)
REMARK    1  A    between atoms: C2_2  and  N1_3 
REMARK    2  A    between atoms: C2_2  and  C5_11 
REMARK       I    between atoms: N1_3  and  C3_5 
REMARK       I    between atoms: C3_5  and  N2_7 
REMARK       I    between atoms: C5_11  and  N4_13 
REMARK    3  A    between atoms: N4_13  and  C6_15 
ROOT
HETATM    1  N1  UNL     1      -3.075  26.840  30.185  1.00  0.00    -0.329 N 
ATOM      2  H1  UNL     1      -4.082  26.994  30.240  1.00  0.00     0.165 HD
HETATM    3  C3  UNL     1      -2.519  26.348  28.984  1.00  0.00     0.329 C 
HETATM    4  O1  UNL     1      -1.269  26.142  28.874  1.00  0.00    -0.246 OA
HETATM    5  N2  UNL     1      -3.330  26.066  27.861  1.00  0.00    -0.245 N 
ATOM      6  H2  UNL     1      -4.335  26.226  27.933  1.00  0.00     0.183 HD
HETATM    7  C4  UNL     1      -2.821  25.584  26.670  1.00  0.00     0.185 C 
HETATM    8  N3  UNL     1      -2.392  25.195  25.668  1.00  0.00    -0.172 NA
ENDROOT
BRANCH   1   9
HETATM    9  C2  UNL     1      -2.248  27.132  31.342  1.00  0.00     0.174 C 
HETATM   10  C1  UNL     1      -3.105  27.973  32.284  1.00  0.00     0.042 C 
BRANCH   9  11
HETATM   11  C5  UNL     1      -1.805  25.879  31.983  1.00  0.00     0.240 C 
HETATM   12  O2  UNL     1      -2.635  25.182  32.621  1.00  0.00    -0.271 OA
HETATM   13  N4  UNL     1      -0.437  25.487  31.865  1.00  0.00    -0.355 N 
ATOM     14  H4  UNL     1       0.214  26.073  31.343  1.00  0.00     0.162 HD
BRANCH  13  15
HETATM   15  C6  UNL     1       0.040  24.246  32.491  1.00  0.00     0.086 C 
HETATM   16  C7  UNL     1       0.342  23.270  31.429  1.00  0.00     0.025 C 
HETATM   17  C8  UNL     1      -0.764  22.380  31.001  1.00  0.00     0.004 C 
HETATM   18  C9  UNL     1      -1.730  21.949  32.035  1.00  0.00     0.020 C 
HETATM   19  C10 UNL     1      -1.266  20.851  32.950  1.00  0.00     0.122 C 
HETATM   20  N5  UNL     1       0.152  20.575  32.877  1.00  0.00    -0.360 N 
HETATM   21  C11 UNL     1       1.033  20.565  33.990  1.00  0.00     0.243 C 
ATOM     22  H5  UNL     1       0.548  20.373  31.959  1.00  0.00     0.162 HD
HETATM   23  O3  UNL     1       1.954  19.710  34.082  1.00  0.00    -0.272 OA
HETATM   24  C12 UNL     1       0.932  21.547  35.108  1.00  0.00     0.334 C 
HETATM   25  N6  UNL     1       0.607  22.870  34.614  1.00  0.00    -0.067 N 
HETATM   26  C13 UNL     1       1.780  23.601  34.196  1.00  0.00     0.235 C 
ATOM     27  H62 UNL     1      -0.085  22.824  33.866  1.00  0.00     0.277 HD
ATOM     28  H61 UNL     1       0.069  23.399  35.300  1.00  0.00     0.277 HD
HETATM   29  C14 UNL     1       1.346  24.644  33.190  1.00  0.00     0.052 C 
ENDBRANCH  13  15
ENDBRANCH   9  11
ENDBRANCH   1   9
TORSDOF 3
ENDMDL
MODEL 5
REMARK VINA RESULT: -6.653658528      3.868      5.837
REMARK  3 active torsions:
REMARK  status: ('A' for Active; 'I' for Inactive)
REMARK    1  A    between atoms: C2_2  and  N1_3 
REMARK    2  A    between atoms: C2_2  and  C5_11 
REMARK       I    between atoms: N1_3  and  C3_5 
REMARK       I    between atoms: C3_5  and  N2_7 
REMARK       I    between atoms: C5_11  and  N4_13 
REMARK    3  A    between atoms: N4_13  and  C6_15 
ROOT
HETATM    1  N1  UNL     1      -2.016  26.787  27.239  1.00  0.00    -0.329 N 
ATOM      2  H1  UNL     1      -1.691  27.614  27.740  1.00  0.00     0.165 HD
HETATM    3  C3  UNL     1      -1.782  26.688  25.851  1.00  0.00     0.329 C 
HETATM    4  O1  UNL     1      -2.170  25.674  25.189  1.00  0.00    -0.246 OA
HETATM    5  N2  UNL     1      -1.107  27.711  25.145  1.00  0.00    -0.245 N 
ATOM      6  H2  UNL     1      -0.789  28.531  25.661  1.00  0.00     0.183 HD
HETATM    7  C4  UNL     1      -0.861  27.647  23.786  1.00  0.00     0.185 C 
HETATM    8  N3  UNL     1      -0.641  27.587  22.652  1.00  0.00    -0.172 NA
ENDROOT
BRANCH   1   9
HETATM    9  C2  UNL     1      -2.707  25.741  27.971  1.00  0.00     0.174 C 
HETATM   10  C1  UNL     1      -1.630  24.934  28.690  1.00  0.00     0.042 C 
BRANCH   9  11
HETATM   11  C5  UNL     1      -3.669  26.331  28.921  1.00  0.00     0.240 C 
HETATM   12  O2  UNL     1      -4.460  27.226  28.527  1.00  0.00    -0.271 OA
HETATM   13  N4  UNL     1      -3.678  25.871  30.273  1.00  0.00    -0.355 N 
ATOM     14  H4  UNL     1      -3.024  25.145  30.565  1.00  0.00     0.162 HD
BRANCH  13  15
HETATM   15  C6  UNL     1      -4.623  26.437  31.247  1.00  0.00     0.086 C 
HETATM   16  C7  UNL     1      -4.921  25.411  32.262  1.00  0.00     0.025 C 
HETATM   17  C8  UNL     1      -6.066  24.510  31.990  1.00  0.00     0.004 C 
HETATM   18  C9  UNL     1      -7.227  25.082  31.273  1.00  0.00     0.020 C 
HETATM   19  C10 UNL     1      -8.153  25.932  32.097  1.00  0.00     0.122 C 
HETATM   20  N5  UNL     1      -7.626  26.305  33.391  1.00  0.00    -0.360 N 
HETATM   21  C11 UNL     1      -7.529  27.637  33.873  1.00  0.00     0.243 C 
ATOM     22  H5  UNL     1      -7.301  25.556  34.002  1.00  0.00     0.162 HD
HETATM   23  O3  UNL     1      -7.771  27.911  35.078  1.00  0.00    -0.272 OA
HETATM   24  C12 UNL     1      -7.141  28.784  33.002  1.00  0.00     0.334 C 
HETATM   25  N6  UNL     1      -6.093  28.404  32.074  1.00  0.00    -0.067 N 
HETATM   26  C13 UNL     1      -4.778  28.518  32.658  1.00  0.00     0.235 C 
ATOM     27  H62 UNL     1      -6.252  27.468  31.702  1.00  0.00     0.277 HD
ATOM     28  H61 UNL     1      -6.158  28.937  31.206  1.00  0.00     0.277 HD
HETATM   29  C14 UNL     1      -3.853  27.586  31.909  1.00  0.00     0.052 C 
ENDBRANCH  13  15
ENDBRANCH   9  11
ENDBRANCH   1   9
TORSDOF 3
ENDMDL
