MODEL 1
REMARK VINA RESULT: -7.793384927      0.000      0.000
REMARK  4 active torsions:
REMARK  status: ('A' for Active; 'I' for Inactive)
REMARK    1  A    between atoms: C3_3  and  C4_4 
REMARK    2  A    between atoms: N4_16  and  C9_17 
REMARK    3  A    between atoms: C9_17  and  C10_18 
REMARK    4  A    between atoms: C12_21  and  N5_22 
ROOT
HETATM    1  C1  UNL     1      -2.643  27.033  30.417  1.00  0.00     0.032 C 
HETATM    2  C2  UNL     1      -2.985  26.877  29.133  1.00  0.00     0.052 A 
HETATM    3  C3  UNL     1      -4.179  27.277  28.573  1.00  0.00     0.064 A 
HETATM    4  N3  UNL     1      -4.114  26.936  27.283  1.00  0.00    -0.294 N 
ATOM      5  H3  UNL     1      -4.860  27.107  26.608  1.00  0.00     0.187 HD
HETATM    6  N4  UNL     1      -2.965  26.350  26.986  1.00  0.00    -0.251 N 
HETATM    7  C13 UNL     1      -2.236  26.299  28.131  1.00  0.00     0.274 A 
HETATM    8  O2  UNL     1      -1.082  25.822  28.299  1.00  0.00    -0.266 OA
ENDROOT
BRANCH   3   9
HETATM    9  C4  UNL     1      -5.186  27.885  29.220  1.00  0.00     0.051 C 
HETATM   10  C5  UNL     1      -6.038  27.196  30.156  1.00  0.00     0.059 A 
HETATM   11  C6  UNL     1      -6.085  27.464  31.499  1.00  0.00     0.037 A 
HETATM   12  C8  UNL     1      -6.925  26.186  29.899  1.00  0.00     0.272 A 
HETATM   13  C7  UNL     1      -5.280  28.503  32.249  1.00  0.00     0.070 C 
HETATM   14  N1  UNL     1      -6.989  26.623  32.025  1.00  0.00    -0.301 N 
HETATM   15  N2  UNL     1      -7.488  25.863  31.072  1.00  0.00    -0.266 N 
ATOM     16  H1  UNL     1      -7.249  26.579  33.010  1.00  0.00     0.186 HD
ATOM     17  H2  UNL     1      -8.194  25.139  31.205  1.00  0.00     0.190 HD
HETATM   18  O1  UNL     1      -7.175  25.648  28.758  1.00  0.00    -0.266 OA
ENDBRANCH   3   9
BRANCH   6  19
HETATM   19  C9  UNL     1      -2.554  25.852  25.688  1.00  0.00     0.210 C 
BRANCH  19  20
HETATM   20  C10 UNL     1      -1.593  26.833  25.024  1.00  0.00     0.037 A 
HETATM   21  C11 UNL     1      -1.858  27.253  23.743  1.00  0.00     0.080 A 
HETATM   22  S1  UNL     1      -0.555  28.310  23.432  1.00  0.00    -0.064 SA
HETATM   23  C12 UNL     1       0.246  28.161  24.930  1.00  0.00     0.142 A 
HETATM   24  N6  UNL     1      -0.525  27.307  25.599  1.00  0.00    -0.338 N 
ATOM     25  H6  UNL     1      -0.283  27.028  26.550  1.00  0.00     0.168 HD
BRANCH  23  26
HETATM   26  N5  UNL     1       1.355  28.741  25.345  1.00  0.00    -0.380 N 
ATOM     27  H52 UNL     1       2.207  28.911  24.811  1.00  0.00     0.158 HD
ATOM     28  H51 UNL     1       1.579  29.125  26.262  1.00  0.00     0.158 HD
ENDBRANCH  23  26
ENDBRANCH  19  20
ENDBRANCH   6  19
TORSDOF 4
ENDMDL
MODEL 2
REMARK VINA RESULT: -7.702516145      2.236      2.758
REMARK  4 active torsions:
REMARK  status: ('A' for Active; 'I' for Inactive)
REMARK    1  A    between atoms: C3_3  and  C4_4 
REMARK    2  A    between atoms: N4_16  and  C9_17 
REMARK    3  A    between atoms: C9_17  and  C10_18 
REMARK    4  A    between atoms: C12_21  and  N5_22 
ROOT
HETATM    1  C1  UNL     1      -6.007  28.355  27.990  1.00  0.00     0.032 C 
HETATM    2  C2  UNL     1      -4.879  27.672  27.767  1.00  0.00     0.052 A 
HETATM    3  C3  UNL     1      -3.932  27.367  28.721  1.00  0.00     0.064 A 
HETATM    4  N3  UNL     1      -2.976  26.684  28.086  1.00  0.00    -0.294 N 
ATOM      5  H3  UNL     1      -2.136  26.322  28.537  1.00  0.00     0.187 HD
HETATM    6  N4  UNL     1      -3.250  26.533  26.800  1.00  0.00    -0.251 N 
HETATM    7  C13 UNL     1      -4.441  27.144  26.571  1.00  0.00     0.274 A 
HETATM    8  O2  UNL     1      -5.071  27.240  25.486  1.00  0.00    -0.266 OA
ENDROOT
BRANCH   3   9
HETATM    9  C4  UNL     1      -3.987  27.705  30.019  1.00  0.00     0.051 C 
HETATM   10  C5  UNL     1      -3.444  26.873  31.063  1.00  0.00     0.059 A 
HETATM   11  C6  UNL     1      -2.377  27.219  31.849  1.00  0.00     0.037 A 
HETATM   12  C8  UNL     1      -3.869  25.632  31.455  1.00  0.00     0.272 A 
HETATM   13  C7  UNL     1      -1.577  28.502  31.785  1.00  0.00     0.070 C 
HETATM   14  N1  UNL     1      -2.177  26.195  32.693  1.00  0.00    -0.301 N 
HETATM   15  N2  UNL     1      -3.065  25.252  32.457  1.00  0.00    -0.266 N 
ATOM     16  H1  UNL     1      -1.449  26.154  33.408  1.00  0.00     0.186 HD
ATOM     17  H2  UNL     1      -3.131  24.367  32.961  1.00  0.00     0.190 HD
HETATM   18  O1  UNL     1      -4.847  24.958  30.962  1.00  0.00    -0.266 OA
ENDBRANCH   3   9
BRANCH   6  19
HETATM   19  C9  UNL     1      -2.439  25.847  25.813  1.00  0.00     0.210 C 
BRANCH  19  20
HETATM   20  C10 UNL     1      -1.502  26.831  25.119  1.00  0.00     0.037 A 
HETATM   21  C11 UNL     1      -1.807  27.247  23.847  1.00  0.00     0.080 A 
HETATM   22  S1  UNL     1      -0.518  28.310  23.495  1.00  0.00    -0.064 SA
HETATM   23  C12 UNL     1       0.327  28.167  24.969  1.00  0.00     0.142 A 
HETATM   24  N6  UNL     1      -0.420  27.311  25.662  1.00  0.00    -0.338 N 
ATOM     25  H6  UNL     1      -0.148  27.034  26.605  1.00  0.00     0.168 HD
BRANCH  23  26
HETATM   26  N5  UNL     1       1.446  28.752  25.350  1.00  0.00    -0.380 N 
ATOM     27  H52 UNL     1       2.227  29.046  24.764  1.00  0.00     0.158 HD
ATOM     28  H51 UNL     1       1.748  29.019  26.286  1.00  0.00     0.158 HD
ENDBRANCH  23  26
ENDBRANCH  19  20
ENDBRANCH   6  19
TORSDOF 4
ENDMDL
MODEL 3
REMARK VINA RESULT: -7.657363029      2.402      3.544
REMARK  4 active torsions:
REMARK  status: ('A' for Active; 'I' for Inactive)
REMARK    1  A    between atoms: C3_3  and  C4_4 
REMARK    2  A    between atoms: N4_16  and  C9_17 
REMARK    3  A    between atoms: C9_17  and  C10_18 
REMARK    4  A    between atoms: C12_21  and  N5_22 
ROOT
HETATM    1  C1  UNL     1      -5.391  28.010  28.807  1.00  0.00     0.032 C 
HETATM    2  C2  UNL     1      -4.378  27.311  28.283  1.00  0.00     0.052 A 
HETATM    3  C3  UNL     1      -3.342  26.752  29.000  1.00  0.00     0.064 A 
HETATM    4  N3  UNL     1      -2.557  26.149  28.103  1.00  0.00    -0.294 N 
ATOM      5  H3  UNL     1      -1.702  25.645  28.339  1.00  0.00     0.187 HD
HETATM    6  N4  UNL     1      -3.020  26.286  26.871  1.00  0.00    -0.251 N 
HETATM    7  C13 UNL     1      -4.165  27.012  26.954  1.00  0.00     0.274 A 
HETATM    8  O2  UNL     1      -4.928  27.373  26.019  1.00  0.00    -0.266 OA
ENDROOT
BRANCH   3   9
HETATM    9  C4  UNL     1      -3.182  26.817  30.330  1.00  0.00     0.051 C 
HETATM   10  C5  UNL     1      -1.979  26.381  30.992  1.00  0.00     0.059 A 
HETATM   11  C6  UNL     1      -1.119  27.214  31.658  1.00  0.00     0.037 A 
HETATM   12  C8  UNL     1      -1.482  25.109  31.080  1.00  0.00     0.272 A 
HETATM   13  C7  UNL     1      -1.252  28.712  31.830  1.00  0.00     0.070 C 
HETATM   14  N1  UNL     1      -0.129  26.442  32.133  1.00  0.00    -0.301 N 
HETATM   15  N2  UNL     1      -0.347  25.189  31.788  1.00  0.00    -0.266 N 
ATOM     16  H1  UNL     1       0.668  26.774  32.677  1.00  0.00     0.186 HD
ATOM     17  H2  UNL     1       0.257  24.401  32.024  1.00  0.00     0.190 HD
HETATM   18  O1  UNL     1      -1.998  24.041  30.584  1.00  0.00    -0.266 OA
ENDBRANCH   3   9
BRANCH   6  19
HETATM   19  C9  UNL     1      -2.427  25.763  25.656  1.00  0.00     0.210 C 
BRANCH  19  20
HETATM   20  C10 UNL     1      -1.500  26.802  25.029  1.00  0.00     0.037 A 
HETATM   21  C11 UNL     1      -1.803  27.289  23.782  1.00  0.00     0.080 A 
HETATM   22  S1  UNL     1      -0.528  28.389  23.504  1.00  0.00    -0.064 SA
HETATM   23  C12 UNL     1       0.310  28.170  24.973  1.00  0.00     0.142 A 
HETATM   24  N6  UNL     1      -0.429  27.263  25.608  1.00  0.00    -0.338 N 
ATOM     25  H6  UNL     1      -0.160  26.935  26.535  1.00  0.00     0.168 HD
BRANCH  23  26
HETATM   26  N5  UNL     1       1.417  28.748  25.397  1.00  0.00    -0.380 N 
ATOM     27  H52 UNL     1       2.206  29.071  24.837  1.00  0.00     0.158 HD
ATOM     28  H51 UNL     1       1.700  28.980  26.348  1.00  0.00     0.158 HD
ENDBRANCH  23  26
ENDBRANCH  19  20
ENDBRANCH   6  19
TORSDOF 4
ENDMDL
MODEL 4
REMARK VINA RESULT: -7.468614946      5.367      7.142
REMARK  4 active torsions:
REMARK  status: ('A' for Active; 'I' for Inactive)
REMARK    1  A    between atoms: C3_3  and  C4_4 
REMARK    2  A    between atoms: N4_16  and  C9_17 
REMARK    3  A    between atoms: C9_17  and  C10_18 
REMARK    4  A    between atoms: C12_21  and  N5_22 
ROOT
HETATM    1  C1  UNL     1      -1.617  23.169  33.227  1.00  0.00     0.032 C 
HETATM    2  C2  UNL     1      -1.435  24.361  32.648  1.00  0.00     0.052 A 
HETATM    3  C3  UNL     1      -0.211  24.947  32.403  1.00  0.00     0.064 A 
HETATM    4  N3  UNL     1      -0.474  26.119  31.818  1.00  0.00    -0.294 N 
ATOM      5  H3  UNL     1       0.241  26.782  31.519  1.00  0.00     0.187 HD
HETATM    6  N4  UNL     1      -1.774  26.316  31.674  1.00  0.00    -0.251 N 
HETATM    7  C13 UNL     1      -2.403  25.227  32.186  1.00  0.00     0.274 A 
HETATM    8  O2  UNL     1      -3.640  25.001  32.254  1.00  0.00    -0.266 OA
ENDROOT
BRANCH   3   9
HETATM    9  C4  UNL     1       0.986  24.421  32.705  1.00  0.00     0.051 C 
HETATM   10  C5  UNL     1       1.783  24.884  33.813  1.00  0.00     0.059 A 
HETATM   11  C6  UNL     1       2.075  24.133  34.920  1.00  0.00     0.037 A 
HETATM   12  C8  UNL     1       2.375  26.108  33.968  1.00  0.00     0.272 A 
HETATM   13  C7  UNL     1       1.637  22.711  35.198  1.00  0.00     0.070 C 
HETATM   14  N1  UNL     1       2.830  24.905  35.717  1.00  0.00    -0.301 N 
HETATM   15  N2  UNL     1       3.008  26.080  35.150  1.00  0.00    -0.266 N 
ATOM     16  H1  UNL     1       3.208  24.624  36.623  1.00  0.00     0.186 HD
ATOM     17  H2  UNL     1       3.545  26.850  35.548  1.00  0.00     0.190 HD
HETATM   18  O1  UNL     1       2.337  27.096  33.146  1.00  0.00    -0.266 OA
ENDBRANCH   3   9
BRANCH   6  19
HETATM   19  C9  UNL     1      -2.418  27.473  31.082  1.00  0.00     0.210 C 
BRANCH  19  20
HETATM   20  C10 UNL     1      -2.772  27.195  29.624  1.00  0.00     0.037 A 
HETATM   21  C11 UNL     1      -4.008  27.575  29.161  1.00  0.00     0.080 A 
HETATM   22  S1  UNL     1      -3.950  27.079  27.529  1.00  0.00    -0.064 SA
HETATM   23  C12 UNL     1      -2.377  26.422  27.527  1.00  0.00     0.142 A 
HETATM   24  N6  UNL     1      -1.968  26.615  28.778  1.00  0.00    -0.338 N 
ATOM     25  H6  UNL     1      -1.039  26.314  29.072  1.00  0.00     0.168 HD
BRANCH  23  26
HETATM   26  N5  UNL     1      -1.709  25.858  26.539  1.00  0.00    -0.380 N 
ATOM     27  H52 UNL     1      -0.856  26.194  26.091  1.00  0.00     0.158 HD
ATOM     28  H51 UNL     1      -1.908  24.994  26.036  1.00  0.00     0.158 HD
ENDBRANCH  23  26
ENDBRANCH  19  20
ENDBRANCH   6  19
TORSDOF 4
ENDMDL
MODEL 5
REMARK VINA RESULT: -7.093091663      7.185      8.860
REMARK  4 active torsions:
REMARK  status: ('A' for Active; 'I' for Inactive)
REMARK    1  A    between atoms: C3_3  and  C4_4 
REMARK    2  A    between atoms: N4_16  and  C9_17 
REMARK    3  A    between atoms: C9_17  and  C10_18 
REMARK    4  A    between atoms: C12_21  and  N5_22 
ROOT
HETATM    1  C1  UNL     1      -1.332  27.059  31.590  1.00  0.00     0.032 C 
HETATM    2  C2  UNL     1      -0.352  26.324  32.125  1.00  0.00     0.052 A 
HETATM    3  C3  UNL     1      -0.084  25.008  31.813  1.00  0.00     0.064 A 
HETATM    4  N3  UNL     1       0.963  24.658  32.565  1.00  0.00    -0.294 N 
ATOM      5  H3  UNL     1       1.392  23.732  32.552  1.00  0.00     0.187 HD
HETATM    6  N4  UNL     1       1.377  25.655  33.330  1.00  0.00    -0.251 N 
HETATM    7  C13 UNL     1       0.568  26.716  33.074  1.00  0.00     0.274 A 
HETATM    8  O2  UNL     1       0.608  27.867  33.583  1.00  0.00    -0.266 OA
ENDROOT
BRANCH   3   9
HETATM    9  C4  UNL     1      -0.757  24.257  30.928  1.00  0.00     0.051 C 
HETATM   10  C5  UNL     1      -1.313  22.971  31.262  1.00  0.00     0.059 A 
HETATM   11  C6  UNL     1      -2.655  22.695  31.298  1.00  0.00     0.037 A 
HETATM   12  C8  UNL     1      -0.642  21.826  31.595  1.00  0.00     0.272 A 
HETATM   13  C7  UNL     1      -3.789  23.653  31.002  1.00  0.00     0.070 C 
HETATM   14  N1  UNL     1      -2.771  21.404  31.646  1.00  0.00    -0.301 N 
HETATM   15  N2  UNL     1      -1.572  20.888  31.823  1.00  0.00    -0.266 N 
ATOM     16  H1  UNL     1      -3.652  20.901  31.757  1.00  0.00     0.186 HD
ATOM     17  H2  UNL     1      -1.381  19.923  32.091  1.00  0.00     0.190 HD
HETATM   18  O1  UNL     1       0.633  21.671  31.675  1.00  0.00    -0.266 OA
ENDBRANCH   3   9
BRANCH   6  19
HETATM   19  C9  UNL     1       2.483  25.631  34.267  1.00  0.00     0.210 C 
BRANCH  19  20
HETATM   20  C10 UNL     1       2.226  24.603  35.364  1.00  0.00     0.037 A 
HETATM   21  C11 UNL     1       1.094  24.725  36.131  1.00  0.00     0.080 A 
HETATM   22  S1  UNL     1       1.228  23.391  37.188  1.00  0.00    -0.064 SA
HETATM   23  C12 UNL     1       2.700  22.761  36.603  1.00  0.00     0.142 A 
HETATM   24  N6  UNL     1       3.019  23.602  35.623  1.00  0.00    -0.338 N 
ATOM     25  H6  UNL     1       3.873  23.467  35.082  1.00  0.00     0.168 HD
BRANCH  23  26
HETATM   26  N5  UNL     1       3.373  21.700  37.006  1.00  0.00    -0.380 N 
ATOM     27  H52 UNL     1       3.026  20.911  37.551  1.00  0.00     0.158 HD
ATOM     28  H51 UNL     1       4.354  21.464  36.858  1.00  0.00     0.158 HD
ENDBRANCH  23  26
ENDBRANCH  19  20
ENDBRANCH   6  19
TORSDOF 4
ENDMDL
