MODEL 1
REMARK VINA RESULT: -9.193575342      0.000      0.000
REMARK  15 active torsions:
REMARK  status: ('A' for Active; 'I' for Inactive)
REMARK    1  A    between atoms: C2_2  and  O1_3 
REMARK    2  A    between atoms: O1_3  and  C3_4 
REMARK    3  A    between atoms: C3_4  and  C4_6 
REMARK    4  A    between atoms: C8_15  and  C9_16 
REMARK    5  A    between atoms: C13_25  and  N5_26 
REMARK       I    between atoms: N5_26  and  C14_28 
REMARK    6  A    between atoms: C14_28  and  C15_30 
REMARK    7  A    between atoms: C15_30  and  S2_31 
REMARK    8  A    between atoms: C15_30  and  C20_46 
REMARK    9  A    between atoms: S2_31  and  C16_32 
REMARK   10  A    between atoms: C16_32  and  C17_33 
REMARK   11  A    between atoms: C17_33  and  C18_35 
REMARK   12  A    between atoms: C18_35  and  O7_36 
REMARK   13  A    between atoms: C18_35  and  N6_38 
REMARK   14  A    between atoms: N6_38  and  C19_40 
REMARK   15  A    between atoms: C19_40  and  O8_44 
ROOT
HETATM    1  N5  UNL     1       9.285   5.075  27.232  1.00  0.00    -0.326 N 
ATOM      2  H5  UNL     1       8.299   5.216  27.454  1.00  0.00     0.165 HD
HETATM    3  C14 UNL     1       9.729   3.818  26.812  1.00  0.00     0.238 C 
HETATM    4  O5  UNL     1      10.942   3.630  26.537  1.00  0.00    -0.272 OA
ENDROOT
BRANCH   3   5
HETATM    5  C15 UNL     1       8.819   2.657  26.671  1.00  0.00     0.179 C 
BRANCH   5   6
HETATM    6  S2  UNL     1       9.724   1.140  26.287  1.00  0.00    -0.142 SA
BRANCH   6   7
HETATM    7  C16 UNL     1       9.145  -0.202  27.338  1.00  0.00     0.158 C 
BRANCH   7   8
HETATM    8  C17 UNL     1       9.272   0.217  28.763  1.00  0.00     0.184 C 
HETATM    9  O6  UNL     1      10.403   0.558  29.125  1.00  0.00    -0.292 OA
BRANCH   8  10
HETATM   10  C18 UNL     1       8.125   0.230  29.703  1.00  0.00     0.292 C 
BRANCH  10  11
HETATM   11  O7  UNL     1       8.469  -0.565  30.803  1.00  0.00    -0.370 OA
ATOM     12  H7  UNL     1       8.001  -0.229  31.559  1.00  0.00     0.212 HD
ENDBRANCH  10  11
BRANCH  10  13
HETATM   13  N6  UNL     1       6.979  -0.309  29.030  1.00  0.00    -0.324 N 
ATOM     14  H6  UNL     1       6.557   0.202  28.254  1.00  0.00     0.166 HD
BRANCH  13  15
HETATM   15  C19 UNL     1       6.426  -1.561  29.443  1.00  0.00     0.212 C 
HETATM   16  N7  UNL     1       6.848  -2.644  28.898  1.00  0.00    -0.366 N 
ATOM     17  H72 UNL     1       7.569  -2.610  28.177  1.00  0.00     0.159 HD
ATOM     18  H71 UNL     1       6.453  -3.537  29.192  1.00  0.00     0.159 HD
BRANCH  15  19
HETATM   19  O8  UNL     1       5.449  -1.607  30.419  1.00  0.00    -0.333 OA
ATOM     20  H8  UNL     1       5.309  -2.400  30.922  1.00  0.00     0.220 HD
ENDBRANCH  15  19
ENDBRANCH  13  15
ENDBRANCH  10  13
ENDBRANCH   8  10
ENDBRANCH   7   8
ENDBRANCH   6   7
ENDBRANCH   5   6
BRANCH   5  21
HETATM   21  C20 UNL     1       7.863   2.924  25.585  1.00  0.00     0.049 A 
HETATM   22  C21 UNL     1       8.173   3.820  24.591  1.00  0.00     0.109 A 
HETATM   23  N8  UNL     1       7.287   4.049  23.611  1.00  0.00    -0.313 N 
HETATM   24  C22 UNL     1       7.646   5.000  22.574  1.00  0.00     0.160 C 
HETATM   25  C23 UNL     1       6.096   3.424  23.571  1.00  0.00     0.328 A 
HETATM   26  O9  UNL     1       5.278   3.667  22.624  1.00  0.00    -0.246 OA
HETATM   27  N9  UNL     1       5.792   2.548  24.543  1.00  0.00    -0.275 N 
HETATM   28  C24 UNL     1       6.648   2.286  25.546  1.00  0.00     0.258 A 
ATOM     29  H9  UNL     1       4.891   2.070  24.519  1.00  0.00     0.173 HD
HETATM   30  O10 UNL     1       6.298   1.456  26.422  1.00  0.00    -0.267 OA
ENDBRANCH   5  21
ENDBRANCH   3   5
BRANCH   1  31
HETATM   31  C13 UNL     1      10.209   6.172  27.355  1.00  0.00     0.305 C 
HETATM   32  C6  UNL     1      10.169   6.784  28.732  1.00  0.00     0.175 A 
HETATM   33  O3  UNL     1      11.213   6.611  29.629  1.00  0.00    -0.278 OA
HETATM   34  N2  UNL     1       9.224   7.499  29.225  1.00  0.00    -0.336 N 
HETATM   35  C5  UNL     1      10.887   7.280  30.790  1.00  0.00     0.152 A 
HETATM   36  C4  UNL     1       9.574   7.884  30.559  1.00  0.00     0.261 A 
HETATM   37  N1  UNL     1      11.643   7.331  31.856  1.00  0.00    -0.381 N 
ATOM     38  H12 UNL     1      11.402   7.826  32.714  1.00  0.00     0.158 HD
ATOM     39  H11 UNL     1      12.558   6.910  32.017  1.00  0.00     0.158 HD
HETATM   40  C7  UNL     1       7.963   7.890  28.582  1.00  0.00     0.169 C 
HETATM   41  C8  UNL     1       8.133   8.440  27.243  1.00  0.00     0.015 C 
HETATM   42  C12 UNL     1       8.992   8.079  26.309  1.00  0.00     0.149 C 
HETATM   43  O4  UNL     1       9.955   7.091  26.338  1.00  0.00    -0.329 OA
BRANCH  36  44
HETATM   44  C3  UNL     1       9.555   9.347  30.775  1.00  0.00     0.290 C 
HETATM   45  O2  UNL     1       8.661   9.929  31.395  1.00  0.00    -0.262 OA
BRANCH  44  46
HETATM   46  O1  UNL     1      10.602  10.085  30.248  1.00  0.00    -0.320 OA
BRANCH  46  47
HETATM   47  C2  UNL     1      10.446  11.115  29.303  1.00  0.00     0.174 C 
HETATM   48  C1  UNL     1      11.190  12.375  29.681  1.00  0.00     0.034 C 
ENDBRANCH  46  47
ENDBRANCH  44  46
ENDBRANCH  36  44
BRANCH  41  49
HETATM   49  C9  UNL     1       7.244   9.559  26.833  1.00  0.00     0.085 A 
HETATM   50  N3  UNL     1       6.347  10.207  27.542  1.00  0.00    -0.338 N 
HETATM   51  C10 UNL     1       5.661  11.165  27.007  1.00  0.00     0.123 A 
ATOM     52  H3  UNL     1       6.189   9.953  28.518  1.00  0.00     0.167 HD
HETATM   53  N4  UNL     1       4.659  11.918  27.732  1.00  0.00    -0.082 NA
HETATM   54  C11 UNL     1       5.910  11.466  25.690  1.00  0.00     0.097 A 
HETATM   55  S1  UNL     1       7.137  10.327  25.312  1.00  0.00    -0.080 SA
ENDBRANCH  41  49
ENDBRANCH   1  31
TORSDOF 15
ENDMDL
MODEL 2
REMARK VINA RESULT: -9.127032957      0.666      1.111
REMARK  15 active torsions:
REMARK  status: ('A' for Active; 'I' for Inactive)
REMARK    1  A    between atoms: C2_2  and  O1_3 
REMARK    2  A    between atoms: O1_3  and  C3_4 
REMARK    3  A    between atoms: C3_4  and  C4_6 
REMARK    4  A    between atoms: C8_15  and  C9_16 
REMARK    5  A    between atoms: C13_25  and  N5_26 
REMARK       I    between atoms: N5_26  and  C14_28 
REMARK    6  A    between atoms: C14_28  and  C15_30 
REMARK    7  A    between atoms: C15_30  and  S2_31 
REMARK    8  A    between atoms: C15_30  and  C20_46 
REMARK    9  A    between atoms: S2_31  and  C16_32 
REMARK   10  A    between atoms: C16_32  and  C17_33 
REMARK   11  A    between atoms: C17_33  and  C18_35 
REMARK   12  A    between atoms: C18_35  and  O7_36 
REMARK   13  A    between atoms: C18_35  and  N6_38 
REMARK   14  A    between atoms: N6_38  and  C19_40 
REMARK   15  A    between atoms: C19_40  and  O8_44 
ROOT
HETATM    1  N5  UNL     1       9.296   5.023  27.239  1.00  0.00    -0.326 N 
ATOM      2  H5  UNL     1       8.312   5.166  27.469  1.00  0.00     0.165 HD
HETATM    3  C14 UNL     1       9.732   3.767  26.808  1.00  0.00     0.238 C 
HETATM    4  O5  UNL     1      10.942   3.576  26.521  1.00  0.00    -0.272 OA
ENDROOT
BRANCH   3   5
HETATM    5  C15 UNL     1       8.817   2.610  26.665  1.00  0.00     0.179 C 
BRANCH   5   6
HETATM    6  S2  UNL     1       9.713   1.093  26.264  1.00  0.00    -0.142 SA
BRANCH   6   7
HETATM    7  C16 UNL     1       9.179  -0.240  27.351  1.00  0.00     0.158 C 
BRANCH   7   8
HETATM    8  C17 UNL     1       9.293   0.218  28.764  1.00  0.00     0.184 C 
HETATM    9  O6  UNL     1      10.418   0.588  29.121  1.00  0.00    -0.292 OA
BRANCH   8  10
HETATM   10  C18 UNL     1       8.143   0.235  29.699  1.00  0.00     0.292 C 
BRANCH  10  11
HETATM   11  O7  UNL     1       8.484  -0.551  30.806  1.00  0.00    -0.370 OA
ATOM     12  H7  UNL     1       9.020  -0.020  31.384  1.00  0.00     0.212 HD
ENDBRANCH  10  11
BRANCH  10  13
HETATM   13  N6  UNL     1       7.000  -0.310  29.026  1.00  0.00    -0.324 N 
ATOM     14  H6  UNL     1       6.582   0.195  28.245  1.00  0.00     0.166 HD
BRANCH  13  15
HETATM   15  C19 UNL     1       6.446  -1.559  29.447  1.00  0.00     0.212 C 
HETATM   16  N7  UNL     1       6.865  -2.645  28.906  1.00  0.00    -0.366 N 
ATOM     17  H72 UNL     1       7.585  -2.616  28.183  1.00  0.00     0.159 HD
ATOM     18  H71 UNL     1       6.470  -3.536  29.206  1.00  0.00     0.159 HD
BRANCH  15  19
HETATM   19  O8  UNL     1       5.472  -1.598  30.425  1.00  0.00    -0.333 OA
ATOM     20  H8  UNL     1       4.552  -1.630  30.187  1.00  0.00     0.220 HD
ENDBRANCH  15  19
ENDBRANCH  13  15
ENDBRANCH  10  13
ENDBRANCH   8  10
ENDBRANCH   7   8
ENDBRANCH   6   7
ENDBRANCH   5   6
BRANCH   5  21
HETATM   21  C20 UNL     1       7.854   2.887  25.589  1.00  0.00     0.049 A 
HETATM   22  C21 UNL     1       8.157   3.791  24.600  1.00  0.00     0.109 A 
HETATM   23  N8  UNL     1       7.265   4.030  23.629  1.00  0.00    -0.313 N 
HETATM   24  C22 UNL     1       7.618   4.990  22.598  1.00  0.00     0.160 C 
HETATM   25  C23 UNL     1       6.073   3.407  23.593  1.00  0.00     0.328 A 
HETATM   26  O9  UNL     1       5.249   3.658  22.653  1.00  0.00    -0.246 OA
HETATM   27  N9  UNL     1       5.774   2.523  24.559  1.00  0.00    -0.275 N 
HETATM   28  C24 UNL     1       6.638   2.252  25.553  1.00  0.00     0.258 A 
ATOM     29  H9  UNL     1       4.873   2.046  24.537  1.00  0.00     0.173 HD
HETATM   30  O10 UNL     1       6.293   1.414  26.425  1.00  0.00    -0.267 OA
ENDBRANCH   5  21
ENDBRANCH   3   5
BRANCH   1  31
HETATM   31  C13 UNL     1      10.225   6.116  27.362  1.00  0.00     0.305 C 
HETATM   32  C6  UNL     1      10.178   6.735  28.735  1.00  0.00     0.175 A 
HETATM   33  O3  UNL     1      11.215   6.562  29.640  1.00  0.00    -0.278 OA
HETATM   34  N2  UNL     1       9.234   7.458  29.218  1.00  0.00    -0.336 N 
HETATM   35  C5  UNL     1      10.885   7.240  30.795  1.00  0.00     0.152 A 
HETATM   36  C4  UNL     1       9.577   7.849  30.551  1.00  0.00     0.261 A 
HETATM   37  N1  UNL     1      11.634   7.293  31.865  1.00  0.00    -0.381 N 
ATOM     38  H12 UNL     1      11.391   7.794  32.720  1.00  0.00     0.158 HD
ATOM     39  H11 UNL     1      12.546   6.869  32.035  1.00  0.00     0.158 HD
HETATM   40  C7  UNL     1       7.980   7.852  28.564  1.00  0.00     0.169 C 
HETATM   41  C8  UNL     1       8.161   8.394  27.223  1.00  0.00     0.015 C 
HETATM   42  C12 UNL     1       9.024   8.023  26.296  1.00  0.00     0.149 C 
HETATM   43  O4  UNL     1       9.983   7.030  26.338  1.00  0.00    -0.329 OA
BRANCH  36  44
HETATM   44  C3  UNL     1       9.564   9.313  30.759  1.00  0.00     0.290 C 
HETATM   45  O2  UNL     1      10.138  10.110  30.012  1.00  0.00    -0.262 OA
BRANCH  44  46
HETATM   46  O1  UNL     1       8.866   9.797  31.854  1.00  0.00    -0.320 OA
BRANCH  46  47
HETATM   47  C2  UNL     1       7.491   9.593  32.069  1.00  0.00     0.174 C 
HETATM   48  C1  UNL     1       6.626  10.329  31.072  1.00  0.00     0.034 C 
ENDBRANCH  46  47
ENDBRANCH  44  46
ENDBRANCH  36  44
BRANCH  41  49
HETATM   49  C9  UNL     1       7.281   9.515  26.801  1.00  0.00     0.085 A 
HETATM   50  N3  UNL     1       6.384  10.173  27.500  1.00  0.00    -0.338 N 
HETATM   51  C10 UNL     1       5.707  11.131  26.955  1.00  0.00     0.123 A 
ATOM     52  H3  UNL     1       6.220   9.927  28.477  1.00  0.00     0.167 HD
HETATM   53  N4  UNL     1       4.705  11.895  27.669  1.00  0.00    -0.082 NA
HETATM   54  C11 UNL     1       5.963  11.421  25.637  1.00  0.00     0.097 A 
HETATM   55  S1  UNL     1       7.185  10.272  25.274  1.00  0.00    -0.080 SA
ENDBRANCH  41  49
ENDBRANCH   1  31
TORSDOF 15
ENDMDL
MODEL 3
REMARK VINA RESULT: -8.938395168      0.930      1.296
REMARK  15 active torsions:
REMARK  status: ('A' for Active; 'I' for Inactive)
REMARK    1  A    between atoms: C2_2  and  O1_3 
REMARK    2  A    between atoms: O1_3  and  C3_4 
REMARK    3  A    between atoms: C3_4  and  C4_6 
REMARK    4  A    between atoms: C8_15  and  C9_16 
REMARK    5  A    between atoms: C13_25  and  N5_26 
REMARK       I    between atoms: N5_26  and  C14_28 
REMARK    6  A    between atoms: C14_28  and  C15_30 
REMARK    7  A    between atoms: C15_30  and  S2_31 
REMARK    8  A    between atoms: C15_30  and  C20_46 
REMARK    9  A    between atoms: S2_31  and  C16_32 
REMARK   10  A    between atoms: C16_32  and  C17_33 
REMARK   11  A    between atoms: C17_33  and  C18_35 
REMARK   12  A    between atoms: C18_35  and  O7_36 
REMARK   13  A    between atoms: C18_35  and  N6_38 
REMARK   14  A    between atoms: N6_38  and  C19_40 
REMARK   15  A    between atoms: C19_40  and  O8_44 
ROOT
HETATM    1  N5  UNL     1       9.229   5.141  27.171  1.00  0.00    -0.326 N 
ATOM      2  H5  UNL     1       8.237   5.293  27.358  1.00  0.00     0.165 HD
HETATM    3  C14 UNL     1       9.676   3.876  26.779  1.00  0.00     0.238 C 
HETATM    4  O5  UNL     1      10.896   3.675  26.546  1.00  0.00    -0.272 OA
ENDROOT
BRANCH   3   5
HETATM    5  C15 UNL     1       8.761   2.721  26.619  1.00  0.00     0.179 C 
BRANCH   5   6
HETATM    6  S2  UNL     1       9.662   1.202  26.237  1.00  0.00    -0.142 SA
BRANCH   6   7
HETATM    7  C16 UNL     1       9.102  -0.130  27.311  1.00  0.00     0.158 C 
BRANCH   7   8
HETATM    8  C17 UNL     1       8.104  -0.955  26.573  1.00  0.00     0.184 C 
HETATM    9  O6  UNL     1       8.194  -0.931  25.340  1.00  0.00    -0.292 OA
BRANCH   8  10
HETATM   10  C18 UNL     1       7.064  -1.761  27.254  1.00  0.00     0.292 C 
BRANCH  10  11
HETATM   11  O7  UNL     1       5.817  -1.312  26.804  1.00  0.00    -0.370 OA
ATOM     12  H7  UNL     1       5.153  -1.692  27.367  1.00  0.00     0.212 HD
ENDBRANCH  10  11
BRANCH  10  13
HETATM   13  N6  UNL     1       7.190  -1.564  28.669  1.00  0.00    -0.324 N 
ATOM     14  H6  UNL     1       8.055  -1.823  29.144  1.00  0.00     0.166 HD
BRANCH  13  15
HETATM   15  C19 UNL     1       6.106  -1.006  29.417  1.00  0.00     0.212 C 
HETATM   16  N7  UNL     1       5.722   0.192  29.165  1.00  0.00    -0.366 N 
ATOM     17  H72 UNL     1       6.185   0.740  28.439  1.00  0.00     0.159 HD
ATOM     18  H71 UNL     1       4.949   0.590  29.698  1.00  0.00     0.159 HD
BRANCH  15  19
HETATM   19  O8  UNL     1       5.479  -1.748  30.399  1.00  0.00    -0.333 OA
ATOM     20  H8  UNL     1       5.987  -2.169  31.082  1.00  0.00     0.220 HD
ENDBRANCH  15  19
ENDBRANCH  13  15
ENDBRANCH  10  13
ENDBRANCH   8  10
ENDBRANCH   7   8
ENDBRANCH   6   7
ENDBRANCH   5   6
BRANCH   5  21
HETATM   21  C20 UNL     1       7.820   3.000  25.524  1.00  0.00     0.049 A 
HETATM   22  C21 UNL     1       8.173   3.850  24.504  1.00  0.00     0.109 A 
HETATM   23  N8  UNL     1       7.300   4.090  23.515  1.00  0.00    -0.313 N 
HETATM   24  C22 UNL     1       7.705   4.992  22.451  1.00  0.00     0.160 C 
HETATM   25  C23 UNL     1       6.081   3.522  23.492  1.00  0.00     0.328 A 
HETATM   26  O9  UNL     1       5.277   3.774  22.535  1.00  0.00    -0.246 OA
HETATM   27  N9  UNL     1       5.734   2.691  24.489  1.00  0.00    -0.275 N 
HETATM   28  C24 UNL     1       6.576   2.419  25.501  1.00  0.00     0.258 A 
ATOM     29  H9  UNL     1       4.812   2.255  24.477  1.00  0.00     0.173 HD
HETATM   30  O10 UNL     1       6.187   1.634  26.401  1.00  0.00    -0.267 OA
ENDBRANCH   5  21
ENDBRANCH   3   5
BRANCH   1  31
HETATM   31  C13 UNL     1      10.158   6.232  27.313  1.00  0.00     0.305 C 
HETATM   32  C6  UNL     1      10.113   6.826  28.698  1.00  0.00     0.175 A 
HETATM   33  O3  UNL     1      11.151   6.636  29.598  1.00  0.00    -0.278 OA
HETATM   34  N2  UNL     1       9.169   7.539  29.195  1.00  0.00    -0.336 N 
HETATM   35  C5  UNL     1      10.822   7.292  30.765  1.00  0.00     0.152 A 
HETATM   36  C4  UNL     1       9.513   7.905  30.535  1.00  0.00     0.261 A 
HETATM   37  N1  UNL     1      11.573   7.325  31.836  1.00  0.00    -0.381 N 
ATOM     38  H12 UNL     1      11.330   7.810  32.700  1.00  0.00     0.158 HD
ATOM     39  H11 UNL     1      12.484   6.898  31.996  1.00  0.00     0.158 HD
HETATM   40  C7  UNL     1       7.913   7.945  28.550  1.00  0.00     0.169 C 
HETATM   41  C8  UNL     1       8.093   8.512  27.220  1.00  0.00     0.015 C 
HETATM   42  C12 UNL     1       8.955   8.159  26.285  1.00  0.00     0.149 C 
HETATM   43  O4  UNL     1       9.914   7.165  26.306  1.00  0.00    -0.329 OA
BRANCH  36  44
HETATM   44  C3  UNL     1       9.500   9.365  30.770  1.00  0.00     0.290 C 
HETATM   45  O2  UNL     1       8.598   9.946  31.379  1.00  0.00    -0.262 OA
BRANCH  44  46
HETATM   46  O1  UNL     1      10.563  10.103  30.274  1.00  0.00    -0.320 OA
BRANCH  46  47
HETATM   47  C2  UNL     1      10.439  11.117  29.308  1.00  0.00     0.174 C 
HETATM   48  C1  UNL     1      11.221  12.362  29.660  1.00  0.00     0.034 C 
ENDBRANCH  46  47
ENDBRANCH  44  46
ENDBRANCH  36  44
BRANCH  41  49
HETATM   49  C9  UNL     1       7.212   9.640  26.819  1.00  0.00     0.085 A 
HETATM   50  N3  UNL     1       6.298  10.268  27.524  1.00  0.00    -0.338 N 
HETATM   51  C10 UNL     1       5.623  11.239  26.999  1.00  0.00     0.123 A 
ATOM     52  H3  UNL     1       6.118   9.988  28.489  1.00  0.00     0.167 HD
HETATM   53  N4  UNL     1       4.603  11.972  27.721  1.00  0.00    -0.082 NA
HETATM   54  C11 UNL     1       5.901  11.576  25.697  1.00  0.00     0.097 A 
HETATM   55  S1  UNL     1       7.138  10.448  25.317  1.00  0.00    -0.080 SA
ENDBRANCH  41  49
ENDBRANCH   1  31
TORSDOF 15
ENDMDL
MODEL 4
REMARK VINA RESULT: -8.809494211      3.157      7.492
REMARK  15 active torsions:
REMARK  status: ('A' for Active; 'I' for Inactive)
REMARK    1  A    between atoms: C2_2  and  O1_3 
REMARK    2  A    between atoms: O1_3  and  C3_4 
REMARK    3  A    between atoms: C3_4  and  C4_6 
REMARK    4  A    between atoms: C8_15  and  C9_16 
REMARK    5  A    between atoms: C13_25  and  N5_26 
REMARK       I    between atoms: N5_26  and  C14_28 
REMARK    6  A    between atoms: C14_28  and  C15_30 
REMARK    7  A    between atoms: C15_30  and  S2_31 
REMARK    8  A    between atoms: C15_30  and  C20_46 
REMARK    9  A    between atoms: S2_31  and  C16_32 
REMARK   10  A    between atoms: C16_32  and  C17_33 
REMARK   11  A    between atoms: C17_33  and  C18_35 
REMARK   12  A    between atoms: C18_35  and  O7_36 
REMARK   13  A    between atoms: C18_35  and  N6_38 
REMARK   14  A    between atoms: N6_38  and  C19_40 
REMARK   15  A    between atoms: C19_40  and  O8_44 
ROOT
HETATM    1  N5  UNL     1       9.874   6.869  28.727  1.00  0.00    -0.326 N 
ATOM      2  H5  UNL     1      10.867   6.721  28.545  1.00  0.00     0.165 HD
HETATM    3  C14 UNL     1       8.961   6.823  27.669  1.00  0.00     0.238 C 
HETATM    4  O5  UNL     1       7.734   7.005  27.878  1.00  0.00    -0.272 OA
ENDROOT
BRANCH   3   5
HETATM    5  C15 UNL     1       9.374   6.565  26.269  1.00  0.00     0.179 C 
BRANCH   5   6
HETATM    6  S2  UNL     1       8.796   7.861  25.151  1.00  0.00    -0.142 SA
BRANCH   6   7
HETATM    7  C16 UNL     1       8.854   9.458  25.981  1.00  0.00     0.158 C 
BRANCH   7   8
HETATM    8  C17 UNL     1       7.469  10.000  26.077  1.00  0.00     0.184 C 
HETATM    9  O6  UNL     1       6.617   9.422  25.393  1.00  0.00    -0.292 OA
BRANCH   8  10
HETATM   10  C18 UNL     1       7.116  11.158  26.932  1.00  0.00     0.292 C 
BRANCH  10  11
HETATM   11  O7  UNL     1       5.842  10.922  27.462  1.00  0.00    -0.370 OA
ATOM     12  H7  UNL     1       5.953  10.595  28.347  1.00  0.00     0.212 HD
ENDBRANCH  10  11
BRANCH  10  13
HETATM   13  N6  UNL     1       7.113  12.340  26.120  1.00  0.00    -0.324 N 
ATOM     14  H6  UNL     1       7.972  12.879  26.003  1.00  0.00     0.166 HD
BRANCH  13  15
HETATM   15  C19 UNL     1       5.911  12.765  25.473  1.00  0.00     0.212 C 
HETATM   16  N7  UNL     1       5.881  13.911  24.896  1.00  0.00    -0.366 N 
ATOM     17  H72 UNL     1       6.706  14.512  24.900  1.00  0.00     0.159 HD
ATOM     18  H71 UNL     1       5.023  14.214  24.435  1.00  0.00     0.159 HD
BRANCH  15  19
HETATM   19  O8  UNL     1       4.794  11.952  25.468  1.00  0.00    -0.333 OA
ATOM     20  H8  UNL     1       4.408  11.670  24.647  1.00  0.00     0.220 HD
ENDBRANCH  15  19
ENDBRANCH  13  15
ENDBRANCH  10  13
ENDBRANCH   8  10
ENDBRANCH   7   8
ENDBRANCH   6   7
ENDBRANCH   5   6
BRANCH   5  21
HETATM   21  C20 UNL     1       8.812   5.278  25.832  1.00  0.00     0.049 A 
HETATM   22  C21 UNL     1       7.747   5.243  24.965  1.00  0.00     0.109 A 
HETATM   23  N8  UNL     1       7.250   4.060  24.579  1.00  0.00    -0.313 N 
HETATM   24  C22 UNL     1       6.125   4.058  23.660  1.00  0.00     0.160 C 
HETATM   25  C23 UNL     1       7.766   2.897  25.017  1.00  0.00     0.328 A 
HETATM   26  O9  UNL     1       7.268   1.790  24.628  1.00  0.00    -0.246 OA
HETATM   27  N9  UNL     1       8.808   2.929  25.864  1.00  0.00    -0.275 N 
HETATM   28  C24 UNL     1       9.339   4.092  26.279  1.00  0.00     0.258 A 
ATOM     29  H9  UNL     1       9.205   2.052  26.200  1.00  0.00     0.173 HD
HETATM   30  O10 UNL     1      10.312   4.049  27.074  1.00  0.00    -0.267 OA
ENDBRANCH   5  21
ENDBRANCH   3   5
BRANCH   1  31
HETATM   31  C13 UNL     1       9.422   7.125  30.070  1.00  0.00     0.305 C 
HETATM   32  C6  UNL     1       8.846   8.511  30.210  1.00  0.00     0.175 A 
HETATM   33  O3  UNL     1       7.483   8.712  30.372  1.00  0.00    -0.278 OA
HETATM   34  N2  UNL     1       9.498   9.616  30.198  1.00  0.00    -0.336 N 
HETATM   35  C5  UNL     1       7.266  10.070  30.470  1.00  0.00     0.152 A 
HETATM   36  C4  UNL     1       8.581  10.703  30.360  1.00  0.00     0.261 A 
HETATM   37  N1  UNL     1       6.093  10.626  30.629  1.00  0.00    -0.381 N 
ATOM     38  H12 UNL     1       5.932  11.631  30.701  1.00  0.00     0.158 HD
ATOM     39  H11 UNL     1       5.177  10.185  30.705  1.00  0.00     0.158 HD
HETATM   40  C7  UNL     1      10.946   9.804  30.042  1.00  0.00     0.169 C 
HETATM   41  C8  UNL     1      11.745   8.956  30.917  1.00  0.00     0.015 C 
HETATM   42  C12 UNL     1      11.517   7.710  31.287  1.00  0.00     0.149 C 
HETATM   43  O4  UNL     1      10.471   6.874  30.953  1.00  0.00    -0.329 OA
BRANCH  36  44
HETATM   44  C3  UNL     1       8.906  11.584  31.503  1.00  0.00     0.290 C 
HETATM   45  O2  UNL     1       9.033  11.174  32.660  1.00  0.00    -0.262 OA
BRANCH  44  46
HETATM   46  O1  UNL     1       9.071  12.935  31.243  1.00  0.00    -0.320 OA
BRANCH  46  47
HETATM   47  C2  UNL     1      10.320  13.567  31.111  1.00  0.00     0.174 C 
HETATM   48  C1  UNL     1      10.869  13.495  29.704  1.00  0.00     0.034 C 
ENDBRANCH  46  47
ENDBRANCH  44  46
ENDBRANCH  36  44
BRANCH  41  49
HETATM   49  C9  UNL     1      12.991   9.528  31.492  1.00  0.00     0.085 A 
HETATM   50  N3  UNL     1      14.242   9.212  31.238  1.00  0.00    -0.338 N 
HETATM   51  C10 UNL     1      15.205   9.829  31.844  1.00  0.00     0.123 A 
ATOM     52  H3  UNL     1      14.454   8.479  30.562  1.00  0.00     0.167 HD
HETATM   53  N4  UNL     1      16.603   9.530  31.611  1.00  0.00    -0.082 NA
HETATM   54  C11 UNL     1      14.866  10.807  32.747  1.00  0.00     0.097 A 
HETATM   55  S1  UNL     1      13.152  10.768  32.654  1.00  0.00    -0.080 SA
ENDBRANCH  41  49
ENDBRANCH   1  31
TORSDOF 15
ENDMDL
MODEL 5
REMARK VINA RESULT: -8.730720380      3.225      7.631
REMARK  15 active torsions:
REMARK  status: ('A' for Active; 'I' for Inactive)
REMARK    1  A    between atoms: C2_2  and  O1_3 
REMARK    2  A    between atoms: O1_3  and  C3_4 
REMARK    3  A    between atoms: C3_4  and  C4_6 
REMARK    4  A    between atoms: C8_15  and  C9_16 
REMARK    5  A    between atoms: C13_25  and  N5_26 
REMARK       I    between atoms: N5_26  and  C14_28 
REMARK    6  A    between atoms: C14_28  and  C15_30 
REMARK    7  A    between atoms: C15_30  and  S2_31 
REMARK    8  A    between atoms: C15_30  and  C20_46 
REMARK    9  A    between atoms: S2_31  and  C16_32 
REMARK   10  A    between atoms: C16_32  and  C17_33 
REMARK   11  A    between atoms: C17_33  and  C18_35 
REMARK   12  A    between atoms: C18_35  and  O7_36 
REMARK   13  A    between atoms: C18_35  and  N6_38 
REMARK   14  A    between atoms: N6_38  and  C19_40 
REMARK   15  A    between atoms: C19_40  and  O8_44 
ROOT
HETATM    1  N5  UNL     1       9.595   8.334  28.348  1.00  0.00    -0.326 N 
ATOM      2  H5  UNL     1      10.455   8.758  27.999  1.00  0.00     0.165 HD
HETATM    3  C14 UNL     1       8.892   7.430  27.546  1.00  0.00     0.238 C 
HETATM    4  O5  UNL     1       7.830   6.900  27.963  1.00  0.00    -0.272 OA
ENDROOT
BRANCH   3   5
HETATM    5  C15 UNL     1       9.344   7.050  26.186  1.00  0.00     0.179 C 
BRANCH   5   6
HETATM    6  S2  UNL     1       8.802   8.244  24.943  1.00  0.00    -0.142 SA
BRANCH   6   7
HETATM    7  C16 UNL     1       7.394   9.178  25.564  1.00  0.00     0.158 C 
BRANCH   7   8
HETATM    8  C17 UNL     1       7.852  10.546  25.938  1.00  0.00     0.184 C 
HETATM    9  O6  UNL     1       9.028  10.637  26.308  1.00  0.00    -0.292 OA
BRANCH   8  10
HETATM   10  C18 UNL     1       6.969  11.735  25.877  1.00  0.00     0.292 C 
BRANCH  10  11
HETATM   11  O7  UNL     1       7.395  12.631  26.865  1.00  0.00    -0.370 OA
ATOM     12  H7  UNL     1       8.344  12.654  26.843  1.00  0.00     0.212 HD
ENDBRANCH  10  11
BRANCH  10  13
HETATM   13  N6  UNL     1       5.621  11.314  26.125  1.00  0.00    -0.324 N 
ATOM     14  H6  UNL     1       5.124  10.760  25.427  1.00  0.00     0.166 HD
BRANCH  13  15
HETATM   15  C19 UNL     1       4.971  11.667  27.349  1.00  0.00     0.212 C 
HETATM   16  N7  UNL     1       4.227  12.713  27.385  1.00  0.00    -0.366 N 
ATOM     17  H72 UNL     1       4.102  13.285  26.549  1.00  0.00     0.159 HD
ATOM     18  H71 UNL     1       3.764  12.965  28.258  1.00  0.00     0.159 HD
BRANCH  15  19
HETATM   19  O8  UNL     1       5.140  10.893  28.481  1.00  0.00    -0.333 OA
ATOM     20  H8  UNL     1       4.418  10.379  28.824  1.00  0.00     0.220 HD
ENDBRANCH  15  19
ENDBRANCH  13  15
ENDBRANCH  10  13
ENDBRANCH   8  10
ENDBRANCH   7   8
ENDBRANCH   6   7
ENDBRANCH   5   6
BRANCH   5  21
HETATM   21  C20 UNL     1       8.791   5.730  25.847  1.00  0.00     0.049 A 
HETATM   22  C21 UNL     1       7.678   5.627  25.048  1.00  0.00     0.109 A 
HETATM   23  N8  UNL     1       7.191   4.414  24.751  1.00  0.00    -0.313 N 
HETATM   24  C22 UNL     1       6.013   4.340  23.903  1.00  0.00     0.160 C 
HETATM   25  C23 UNL     1       7.761   3.288  25.213  1.00  0.00     0.328 A 
HETATM   26  O9  UNL     1       7.270   2.151  24.910  1.00  0.00    -0.246 OA
HETATM   27  N9  UNL     1       8.850   3.386  25.994  1.00  0.00    -0.275 N 
HETATM   28  C24 UNL     1       9.375   4.581  26.319  1.00  0.00     0.258 A 
ATOM     29  H9  UNL     1       9.289   2.536  26.348  1.00  0.00     0.173 HD
HETATM   30  O10 UNL     1      10.394   4.600  27.055  1.00  0.00    -0.267 OA
ENDBRANCH   5  21
ENDBRANCH   3   5
BRANCH   1  31
HETATM   31  C13 UNL     1       9.113   8.671  29.662  1.00  0.00     0.305 C 
HETATM   32  C6  UNL     1       8.934  10.159  29.825  1.00  0.00     0.175 A 
HETATM   33  O3  UNL     1       7.672  10.731  29.890  1.00  0.00    -0.278 OA
HETATM   34  N2  UNL     1       9.865  11.037  29.920  1.00  0.00    -0.336 N 
HETATM   35  C5  UNL     1       7.832  12.092  30.037  1.00  0.00     0.152 A 
HETATM   36  C4  UNL     1       9.276  12.333  30.063  1.00  0.00     0.261 A 
HETATM   37  N1  UNL     1       6.851  12.950  30.131  1.00  0.00    -0.381 N 
ATOM     38  H12 UNL     1       6.969  13.958  30.240  1.00  0.00     0.158 HD
ATOM     39  H11 UNL     1       5.845  12.783  30.113  1.00  0.00     0.158 HD
HETATM   40  C7  UNL     1      11.317  10.814  29.889  1.00  0.00     0.169 C 
HETATM   41  C8  UNL     1      11.768   9.753  30.780  1.00  0.00     0.015 C 
HETATM   42  C12 UNL     1      11.170   8.613  31.069  1.00  0.00     0.149 C 
HETATM   43  O4  UNL     1       9.967   8.112  30.612  1.00  0.00    -0.329 OA
BRANCH  36  44
HETATM   44  C3  UNL     1       9.728  13.057  31.271  1.00  0.00     0.290 C 
HETATM   45  O2  UNL     1      10.644  13.883  31.263  1.00  0.00    -0.262 OA
BRANCH  44  46
HETATM   46  O1  UNL     1       9.078  12.780  32.463  1.00  0.00    -0.320 OA
BRANCH  46  47
HETATM   47  C2  UNL     1       9.494  11.798  33.381  1.00  0.00     0.174 C 
HETATM   48  C1  UNL     1       8.553  10.617  33.442  1.00  0.00     0.034 C 
ENDBRANCH  46  47
ENDBRANCH  44  46
ENDBRANCH  36  44
BRANCH  41  49
HETATM   49  C9  UNL     1      13.067   9.937  31.479  1.00  0.00     0.085 A 
HETATM   50  N3  UNL     1      14.259   9.500  31.141  1.00  0.00    -0.338 N 
HETATM   51  C10 UNL     1      15.285   9.764  31.884  1.00  0.00     0.123 A 
ATOM     52  H3  UNL     1      14.376   8.949  30.290  1.00  0.00     0.167 HD
HETATM   53  N4  UNL     1      16.625   9.313  31.568  1.00  0.00    -0.082 NA
HETATM   54  C11 UNL     1      15.073  10.508  33.019  1.00  0.00     0.097 A 
HETATM   55  S1  UNL     1      13.380  10.777  32.932  1.00  0.00    -0.080 SA
ENDBRANCH  41  49
ENDBRANCH   1  31
TORSDOF 15
ENDMDL
