MODEL 1
REMARK VINA RESULT: -8.028590838      0.000      0.000
REMARK  18 active torsions:
REMARK  status: ('A' for Active; 'I' for Inactive)
REMARK    1  A    between atoms: C5_5  and  O1_6 
REMARK    2  A    between atoms: O1_6  and  C6_7 
REMARK    3  A    between atoms: C6_7  and  C7_8 
REMARK    4  A    between atoms: C6_7  and  C12_18 
REMARK       I    between atoms: C7_8  and  N1_10 
REMARK    5  A    between atoms: N1_10  and  C8_12 
REMARK    6  A    between atoms: C8_12  and  C9_13 
REMARK    7  A    between atoms: C9_13  and  C10_14 
REMARK    8  A    between atoms: C10_14  and  O4_16 
REMARK    9  A    between atoms: C12_18  and  O5_19 
REMARK   10  A    between atoms: C12_18  and  O6_21 
REMARK   11  A    between atoms: N2_25  and  O8_26 
REMARK   12  A    between atoms: C14_28  and  C15_29 
REMARK   13  A    between atoms: C15_29  and  O9_30 
REMARK   14  A    between atoms: C15_29  and  N3_32 
REMARK   15  A    between atoms: N3_32  and  N4_34 
REMARK   16  A    between atoms: C16_37  and  C17_38 
REMARK   17  A    between atoms: C17_38  and  O12_39 
REMARK   18  A    between atoms: C17_38  and  O13_41 
ROOT
HETATM    1  C1  UNL     1      -3.193   2.123  -5.716  1.00  0.00     0.036 C 
HETATM    2  C2  UNL     1      -1.733   2.012  -5.977  1.00  0.00    -0.023 C 
HETATM    3  C3  UNL     1      -0.969   1.109  -5.399  1.00  0.00    -0.046 C 
HETATM    4  C4  UNL     1      -1.717   0.244  -4.480  1.00  0.00     0.080 C 
HETATM    5  C5  UNL     1      -0.931  -0.638  -3.575  1.00  0.00     0.221 C 
HETATM    6  C13 UNL     1       0.220   0.053  -2.964  1.00  0.00     0.277 C 
HETATM    7  O7  UNL     1       0.221   0.253  -1.698  1.00  0.00    -0.268 OA
HETATM    8  N2  UNL     1       1.369   0.551  -3.595  1.00  0.00    -0.184 N 
HETATM    9  C14 UNL     1       1.487   0.915  -5.027  1.00  0.00     0.130 C 
HETATM   10  C16 UNL     1       0.466   1.156  -5.817  1.00  0.00     0.036 C 
ENDROOT
BRANCH   5  11
HETATM   11  O1  UNL     1      -1.791  -1.005  -2.526  1.00  0.00    -0.356 OA
BRANCH  11  12
HETATM   12  C6  UNL     1      -2.214  -2.298  -2.546  1.00  0.00     0.268 C 
BRANCH  12  13
HETATM   13  C7  UNL     1      -3.657  -2.338  -2.926  1.00  0.00     0.251 C 
HETATM   14  O2  UNL     1      -4.464  -1.618  -2.218  1.00  0.00    -0.270 OA
HETATM   15  N1  UNL     1      -4.198  -3.080  -3.968  1.00  0.00    -0.358 N 
ATOM     16  H1  UNL     1      -3.578  -3.658  -4.535  1.00  0.00     0.162 HD
BRANCH  15  17
HETATM   17  C8  UNL     1      -5.598  -3.059  -4.271  1.00  0.00     0.132 C 
BRANCH  17  18
HETATM   18  C9  UNL     1      -6.255  -4.428  -4.281  1.00  0.00     0.130 C 
BRANCH  18  19
HETATM   19  C10 UNL     1      -5.194  -5.451  -4.159  1.00  0.00     0.259 C 
HETATM   20  O3  UNL     1      -4.518  -5.740  -5.172  1.00  0.00    -0.265 OA
BRANCH  19  21
HETATM   21  O4  UNL     1      -4.915  -6.107  -2.974  1.00  0.00    -0.326 OA
HETATM   22  C11 UNL     1      -4.435  -7.434  -2.919  1.00  0.00     0.213 C 
ENDBRANCH  19  21
ENDBRANCH  18  19
ENDBRANCH  17  18
ENDBRANCH  15  17
ENDBRANCH  12  13
BRANCH  12  23
HETATM   23  C12 UNL     1      -2.142  -3.027  -1.214  1.00  0.00     0.292 C 
BRANCH  23  24
HETATM   24  O5  UNL     1      -2.520  -2.271  -0.134  1.00  0.00    -0.368 OA
ATOM     25  H5  UNL     1      -3.183  -2.674   0.414  1.00  0.00     0.212 HD
ENDBRANCH  23  24
BRANCH  23  26
HETATM   26  O6  UNL     1      -2.941  -4.198  -1.274  1.00  0.00    -0.368 OA
ATOM     27  H6  UNL     1      -2.378  -4.963  -1.310  1.00  0.00     0.212 HD
ENDBRANCH  23  26
ENDBRANCH  12  23
ENDBRANCH  11  12
ENDBRANCH   5  11
BRANCH   8  28
HETATM   28  O8  UNL     1       2.482   0.733  -2.841  1.00  0.00    -0.280 OA
ATOM     29  H8  UNL     1       2.702   0.067  -2.200  1.00  0.00     0.245 HD
ENDBRANCH   8  28
BRANCH  10  30
HETATM   30  C17 UNL     1       0.677   1.443  -7.230  1.00  0.00     0.291 C 
BRANCH  30  31
HETATM   31  O12 UNL     1       1.601   2.557  -7.357  1.00  0.00    -0.367 OA
ATOM     32  H12 UNL     1       1.125   3.325  -7.649  1.00  0.00     0.213 HD
ENDBRANCH  30  31
BRANCH  30  33
HETATM   33  O13 UNL     1       1.197   0.458  -8.002  1.00  0.00    -0.367 OA
ATOM     34  H13 UNL     1       2.069   0.146  -7.793  1.00  0.00     0.213 HD
ENDBRANCH  30  33
ENDBRANCH  10  30
BRANCH   9  35
HETATM   35  C15 UNL     1       2.832   1.063  -5.415  1.00  0.00     0.190 C 
BRANCH  35  36
HETATM   36  O9  UNL     1       3.357   2.275  -5.138  1.00  0.00    -0.343 OA
ATOM     37  H9  UNL     1       4.240   2.400  -5.464  1.00  0.00     0.219 HD
ENDBRANCH  35  36
BRANCH  35  38
HETATM   38  N3  UNL     1       3.797   0.292  -6.028  1.00  0.00    -0.218 N 
ATOM     39  H3  UNL     1       3.951  -0.667  -5.715  1.00  0.00     0.195 HD
BRANCH  38  40
HETATM   40  N4  UNL     1       4.601   0.832  -7.118  1.00  0.00    -0.037 N 
HETATM   41  O10 UNL     1       5.785   1.037  -6.899  1.00  0.00    -0.516 OA
HETATM   42  O11 UNL     1       4.049   1.095  -8.337  1.00  0.00    -0.516 OA
ENDBRANCH  38  40
ENDBRANCH  35  38
ENDBRANCH   9  35
TORSDOF 18
ENDMDL
MODEL 2
REMARK VINA RESULT: -7.969230932      1.712      2.977
REMARK  18 active torsions:
REMARK  status: ('A' for Active; 'I' for Inactive)
REMARK    1  A    between atoms: C5_5  and  O1_6 
REMARK    2  A    between atoms: O1_6  and  C6_7 
REMARK    3  A    between atoms: C6_7  and  C7_8 
REMARK    4  A    between atoms: C6_7  and  C12_18 
REMARK       I    between atoms: C7_8  and  N1_10 
REMARK    5  A    between atoms: N1_10  and  C8_12 
REMARK    6  A    between atoms: C8_12  and  C9_13 
REMARK    7  A    between atoms: C9_13  and  C10_14 
REMARK    8  A    between atoms: C10_14  and  O4_16 
REMARK    9  A    between atoms: C12_18  and  O5_19 
REMARK   10  A    between atoms: C12_18  and  O6_21 
REMARK   11  A    between atoms: N2_25  and  O8_26 
REMARK   12  A    between atoms: C14_28  and  C15_29 
REMARK   13  A    between atoms: C15_29  and  O9_30 
REMARK   14  A    between atoms: C15_29  and  N3_32 
REMARK   15  A    between atoms: N3_32  and  N4_34 
REMARK   16  A    between atoms: C16_37  and  C17_38 
REMARK   17  A    between atoms: C17_38  and  O12_39 
REMARK   18  A    between atoms: C17_38  and  O13_41 
ROOT
HETATM    1  C1  UNL     1      -2.850   1.964  -5.972  1.00  0.00     0.036 C 
HETATM    2  C2  UNL     1      -1.389   1.836  -6.223  1.00  0.00    -0.023 C 
HETATM    3  C3  UNL     1      -0.611   1.035  -5.528  1.00  0.00    -0.046 C 
HETATM    4  C4  UNL     1      -1.343   0.298  -4.492  1.00  0.00     0.080 C 
HETATM    5  C5  UNL     1      -0.541  -0.437  -3.476  1.00  0.00     0.221 C 
HETATM    6  C13 UNL     1       0.602   0.348  -2.976  1.00  0.00     0.277 C 
HETATM    7  O7  UNL     1       0.605   0.725  -1.750  1.00  0.00    -0.268 OA
HETATM    8  N2  UNL     1       1.741   0.768  -3.676  1.00  0.00    -0.184 N 
HETATM    9  C14 UNL     1       1.849   0.928  -5.145  1.00  0.00     0.130 C 
HETATM   10  C16 UNL     1       0.822   1.041  -5.956  1.00  0.00     0.036 C 
ENDROOT
BRANCH   5  11
HETATM   11  O1  UNL     1      -1.393  -0.664  -2.382  1.00  0.00    -0.356 OA
BRANCH  11  12
HETATM   12  C6  UNL     1      -1.855  -1.937  -2.259  1.00  0.00     0.268 C 
BRANCH  12  13
HETATM   13  C7  UNL     1      -3.075  -2.102  -3.103  1.00  0.00     0.251 C 
HETATM   14  O2  UNL     1      -3.018  -2.993  -4.038  1.00  0.00    -0.270 OA
HETATM   15  N1  UNL     1      -4.254  -1.381  -2.969  1.00  0.00    -0.358 N 
ATOM     16  H1  UNL     1      -4.317  -0.670  -2.240  1.00  0.00     0.162 HD
BRANCH  15  17
HETATM   17  C8  UNL     1      -5.385  -1.605  -3.819  1.00  0.00     0.132 C 
BRANCH  17  18
HETATM   18  C9  UNL     1      -5.778  -0.404  -4.663  1.00  0.00     0.130 C 
BRANCH  18  19
HETATM   19  C10 UNL     1      -6.324   0.634  -3.764  1.00  0.00     0.259 C 
HETATM   20  O3  UNL     1      -6.482   0.360  -2.553  1.00  0.00    -0.265 OA
BRANCH  19  21
HETATM   21  O4  UNL     1      -6.675   1.898  -4.202  1.00  0.00    -0.326 OA
HETATM   22  C11 UNL     1      -7.939   2.204  -4.751  1.00  0.00     0.213 C 
ENDBRANCH  19  21
ENDBRANCH  18  19
ENDBRANCH  17  18
ENDBRANCH  15  17
ENDBRANCH  12  13
BRANCH  12  23
HETATM   23  C12 UNL     1      -2.294  -2.339  -0.860  1.00  0.00     0.292 C 
BRANCH  23  24
HETATM   24  O5  UNL     1      -2.780  -1.305  -0.101  1.00  0.00    -0.368 OA
ATOM     25  H5  UNL     1      -3.402  -1.569   0.568  1.00  0.00     0.212 HD
ENDBRANCH  23  24
BRANCH  23  26
HETATM   26  O6  UNL     1      -3.272  -3.363  -0.948  1.00  0.00    -0.368 OA
ATOM     27  H6  UNL     1      -2.917  -4.171  -0.595  1.00  0.00     0.212 HD
ENDBRANCH  23  26
ENDBRANCH  12  23
ENDBRANCH  11  12
ENDBRANCH   5  11
BRANCH   8  28
HETATM   28  O8  UNL     1       2.855   1.069  -2.962  1.00  0.00    -0.280 OA
ATOM     29  H8  UNL     1       2.806   1.017  -2.014  1.00  0.00     0.245 HD
ENDBRANCH   8  28
BRANCH  10  30
HETATM   30  C17 UNL     1       1.024   1.129  -7.396  1.00  0.00     0.291 C 
BRANCH  30  31
HETATM   31  O12 UNL     1       1.912   2.242  -7.687  1.00  0.00    -0.367 OA
ATOM     32  H12 UNL     1       1.481   3.055  -7.452  1.00  0.00     0.213 HD
ENDBRANCH  30  31
BRANCH  30  33
HETATM   33  O13 UNL     1       1.576   0.061  -8.022  1.00  0.00    -0.367 OA
ATOM     34  H13 UNL     1       1.651   0.093  -8.969  1.00  0.00     0.213 HD
ENDBRANCH  30  33
ENDBRANCH  10  30
BRANCH   9  35
HETATM   35  C15 UNL     1       3.191   1.038  -5.558  1.00  0.00     0.190 C 
BRANCH  35  36
HETATM   36  O9  UNL     1       3.749   2.241  -5.308  1.00  0.00    -0.343 OA
ATOM     37  H9  UNL     1       4.689   2.268  -5.438  1.00  0.00     0.219 HD
ENDBRANCH  35  36
BRANCH  35  38
HETATM   38  N3  UNL     1       4.127   0.235  -6.175  1.00  0.00    -0.218 N 
ATOM     39  H3  UNL     1       4.241  -0.732  -5.871  1.00  0.00     0.195 HD
BRANCH  38  40
HETATM   40  N4  UNL     1       4.955   0.753  -7.258  1.00  0.00    -0.037 N 
HETATM   41  O10 UNL     1       6.129   0.982  -7.012  1.00  0.00    -0.516 OA
HETATM   42  O11 UNL     1       4.435   0.970  -8.500  1.00  0.00    -0.516 OA
ENDBRANCH  38  40
ENDBRANCH  35  38
ENDBRANCH   9  35
TORSDOF 18
ENDMDL
MODEL 3
REMARK VINA RESULT: -7.910834161      0.908      1.171
REMARK  18 active torsions:
REMARK  status: ('A' for Active; 'I' for Inactive)
REMARK    1  A    between atoms: C5_5  and  O1_6 
REMARK    2  A    between atoms: O1_6  and  C6_7 
REMARK    3  A    between atoms: C6_7  and  C7_8 
REMARK    4  A    between atoms: C6_7  and  C12_18 
REMARK       I    between atoms: C7_8  and  N1_10 
REMARK    5  A    between atoms: N1_10  and  C8_12 
REMARK    6  A    between atoms: C8_12  and  C9_13 
REMARK    7  A    between atoms: C9_13  and  C10_14 
REMARK    8  A    between atoms: C10_14  and  O4_16 
REMARK    9  A    between atoms: C12_18  and  O5_19 
REMARK   10  A    between atoms: C12_18  and  O6_21 
REMARK   11  A    between atoms: N2_25  and  O8_26 
REMARK   12  A    between atoms: C14_28  and  C15_29 
REMARK   13  A    between atoms: C15_29  and  O9_30 
REMARK   14  A    between atoms: C15_29  and  N3_32 
REMARK   15  A    between atoms: N3_32  and  N4_34 
REMARK   16  A    between atoms: C16_37  and  C17_38 
REMARK   17  A    between atoms: C17_38  and  O12_39 
REMARK   18  A    between atoms: C17_38  and  O13_41 
ROOT
HETATM    1  C1  UNL     1      -3.199   2.262  -5.913  1.00  0.00     0.036 C 
HETATM    2  C2  UNL     1      -1.739   2.105  -6.155  1.00  0.00    -0.023 C 
HETATM    3  C3  UNL     1      -1.003   1.209  -5.533  1.00  0.00    -0.046 C 
HETATM    4  C4  UNL     1      -1.781   0.400  -4.587  1.00  0.00     0.080 C 
HETATM    5  C5  UNL     1      -1.025  -0.463  -3.639  1.00  0.00     0.221 C 
HETATM    6  C13 UNL     1       0.136   0.224  -3.045  1.00  0.00     0.277 C 
HETATM    7  O7  UNL     1       0.131   0.475  -1.788  1.00  0.00    -0.268 OA
HETATM    8  N2  UNL     1       1.303   0.668  -3.683  1.00  0.00    -0.184 N 
HETATM    9  C14 UNL     1       1.443   0.970  -5.127  1.00  0.00     0.130 C 
HETATM   10  C16 UNL     1       0.436   1.204  -5.937  1.00  0.00     0.036 C 
ENDROOT
BRANCH   5  11
HETATM   11  O1  UNL     1      -1.904  -0.767  -2.585  1.00  0.00    -0.356 OA
BRANCH  11  12
HETATM   12  C6  UNL     1      -2.014  -2.088  -2.282  1.00  0.00     0.268 C 
BRANCH  12  13
HETATM   13  C7  UNL     1      -3.199  -2.659  -2.989  1.00  0.00     0.251 C 
HETATM   14  O2  UNL     1      -2.957  -3.520  -3.923  1.00  0.00    -0.270 OA
HETATM   15  N1  UNL     1      -4.525  -2.342  -2.729  1.00  0.00    -0.358 N 
ATOM     16  H1  UNL     1      -4.735  -1.661  -1.999  1.00  0.00     0.162 HD
BRANCH  15  17
HETATM   17  C8  UNL     1      -5.607  -2.942  -3.451  1.00  0.00     0.132 C 
BRANCH  17  18
HETATM   18  C9  UNL     1      -6.525  -3.801  -2.600  1.00  0.00     0.130 C 
BRANCH  18  19
HETATM   19  C10 UNL     1      -6.542  -5.165  -3.170  1.00  0.00     0.259 C 
HETATM   20  O3  UNL     1      -7.596  -5.835  -3.100  1.00  0.00    -0.265 OA
BRANCH  19  21
HETATM   21  O4  UNL     1      -5.439  -5.739  -3.777  1.00  0.00    -0.326 OA
HETATM   22  C11 UNL     1      -4.622  -6.702  -3.146  1.00  0.00     0.213 C 
ENDBRANCH  19  21
ENDBRANCH  18  19
ENDBRANCH  17  18
ENDBRANCH  15  17
ENDBRANCH  12  13
BRANCH  12  23
HETATM   23  C12 UNL     1      -2.250  -2.402  -0.813  1.00  0.00     0.292 C 
BRANCH  23  24
HETATM   24  O5  UNL     1      -2.860  -1.394  -0.111  1.00  0.00    -0.368 OA
ATOM     25  H5  UNL     1      -2.281  -0.682   0.136  1.00  0.00     0.212 HD
ENDBRANCH  23  24
BRANCH  23  26
HETATM   26  O6  UNL     1      -3.018  -3.589  -0.701  1.00  0.00    -0.368 OA
ATOM     27  H6  UNL     1      -3.874  -3.379  -0.346  1.00  0.00     0.212 HD
ENDBRANCH  23  26
ENDBRANCH  12  23
ENDBRANCH  11  12
ENDBRANCH   5  11
BRANCH   8  28
HETATM   28  O8  UNL     1       2.414   0.854  -2.926  1.00  0.00    -0.280 OA
ATOM     29  H8  UNL     1       3.148   0.265  -3.059  1.00  0.00     0.245 HD
ENDBRANCH   8  28
BRANCH  10  30
HETATM   30  C17 UNL     1       0.667   1.428  -7.358  1.00  0.00     0.291 C 
BRANCH  30  31
HETATM   31  O12 UNL     1       1.505   2.604  -7.526  1.00  0.00    -0.367 OA
ATOM     32  H12 UNL     1       2.145   2.436  -8.207  1.00  0.00     0.213 HD
ENDBRANCH  30  31
BRANCH  30  33
HETATM   33  O13 UNL     1       1.288   0.447  -8.059  1.00  0.00    -0.367 OA
ATOM     34  H13 UNL     1       1.978   0.702  -8.659  1.00  0.00     0.213 HD
ENDBRANCH  30  33
ENDBRANCH  10  30
BRANCH   9  35
HETATM   35  C15 UNL     1       2.795   1.070  -5.507  1.00  0.00     0.190 C 
BRANCH  35  36
HETATM   36  O9  UNL     1       3.324   2.301  -5.349  1.00  0.00    -0.343 OA
ATOM     37  H9  UNL     1       3.853   2.400  -4.566  1.00  0.00     0.219 HD
ENDBRANCH  35  36
BRANCH  35  38
HETATM   38  N3  UNL     1       3.765   0.234  -6.021  1.00  0.00    -0.218 N 
ATOM     39  H3  UNL     1       3.868  -0.709  -5.647  1.00  0.00     0.195 HD
BRANCH  38  40
HETATM   40  N4  UNL     1       4.643   0.684  -7.095  1.00  0.00    -0.037 N 
HETATM   41  O10 UNL     1       4.120   1.161  -8.091  1.00  0.00    -0.516 OA
HETATM   42  O11 UNL     1       5.998   0.575  -6.989  1.00  0.00    -0.516 OA
ENDBRANCH  38  40
ENDBRANCH  35  38
ENDBRANCH   9  35
TORSDOF 18
ENDMDL
MODEL 4
REMARK VINA RESULT: -7.852204136      1.276      2.004
REMARK  18 active torsions:
REMARK  status: ('A' for Active; 'I' for Inactive)
REMARK    1  A    between atoms: C5_5  and  O1_6 
REMARK    2  A    between atoms: O1_6  and  C6_7 
REMARK    3  A    between atoms: C6_7  and  C7_8 
REMARK    4  A    between atoms: C6_7  and  C12_18 
REMARK       I    between atoms: C7_8  and  N1_10 
REMARK    5  A    between atoms: N1_10  and  C8_12 
REMARK    6  A    between atoms: C8_12  and  C9_13 
REMARK    7  A    between atoms: C9_13  and  C10_14 
REMARK    8  A    between atoms: C10_14  and  O4_16 
REMARK    9  A    between atoms: C12_18  and  O5_19 
REMARK   10  A    between atoms: C12_18  and  O6_21 
REMARK   11  A    between atoms: N2_25  and  O8_26 
REMARK   12  A    between atoms: C14_28  and  C15_29 
REMARK   13  A    between atoms: C15_29  and  O9_30 
REMARK   14  A    between atoms: C15_29  and  N3_32 
REMARK   15  A    between atoms: N3_32  and  N4_34 
REMARK   16  A    between atoms: C16_37  and  C17_38 
REMARK   17  A    between atoms: C17_38  and  O12_39 
REMARK   18  A    between atoms: C17_38  and  O13_41 
ROOT
HETATM    1  C1  UNL     1      -3.736   2.116  -5.355  1.00  0.00     0.036 C 
HETATM    2  C2  UNL     1      -2.271   2.037  -5.605  1.00  0.00    -0.023 C 
HETATM    3  C3  UNL     1      -1.518   1.063  -5.143  1.00  0.00    -0.046 C 
HETATM    4  C4  UNL     1      -2.281   0.082  -4.363  1.00  0.00     0.080 C 
HETATM    5  C5  UNL     1      -1.510  -0.917  -3.573  1.00  0.00     0.221 C 
HETATM    6  C13 UNL     1      -0.369  -0.319  -2.856  1.00  0.00     0.277 C 
HETATM    7  O7  UNL     1      -0.389  -0.293  -1.574  1.00  0.00    -0.268 OA
HETATM    8  N2  UNL     1       0.790   0.258  -3.394  1.00  0.00    -0.184 N 
HETATM    9  C14 UNL     1       0.932   0.812  -4.761  1.00  0.00     0.130 C 
HETATM   10  C16 UNL     1      -0.076   1.161  -5.527  1.00  0.00     0.036 C 
ENDROOT
BRANCH   5  11
HETATM   11  O1  UNL     1      -2.388  -1.421  -2.598  1.00  0.00    -0.356 OA
BRANCH  11  12
HETATM   12  C6  UNL     1      -2.224  -2.736  -2.293  1.00  0.00     0.268 C 
BRANCH  12  13
HETATM   13  C7  UNL     1      -3.193  -3.550  -3.085  1.00  0.00     0.251 C 
HETATM   14  O2  UNL     1      -3.181  -3.381  -4.367  1.00  0.00    -0.270 OA
HETATM   15  N1  UNL     1      -4.099  -4.464  -2.563  1.00  0.00    -0.358 N 
ATOM     16  H1  UNL     1      -4.127  -4.607  -1.553  1.00  0.00     0.162 HD
BRANCH  15  17
HETATM   17  C8  UNL     1      -4.993  -5.211  -3.395  1.00  0.00     0.132 C 
BRANCH  17  18
HETATM   18  C9  UNL     1      -6.454  -4.820  -3.249  1.00  0.00     0.130 C 
BRANCH  18  19
HETATM   19  C10 UNL     1      -6.514  -3.479  -2.631  1.00  0.00     0.259 C 
HETATM   20  O3  UNL     1      -6.650  -3.393  -1.390  1.00  0.00    -0.265 OA
BRANCH  19  21
HETATM   21  O4  UNL     1      -6.430  -2.309  -3.364  1.00  0.00    -0.326 OA
HETATM   22  C11 UNL     1      -5.905  -1.106  -2.844  1.00  0.00     0.213 C 
ENDBRANCH  19  21
ENDBRANCH  18  19
ENDBRANCH  17  18
ENDBRANCH  15  17
ENDBRANCH  12  13
BRANCH  12  23
HETATM   23  C12 UNL     1      -2.499  -3.108  -0.844  1.00  0.00     0.292 C 
BRANCH  23  24
HETATM   24  O5  UNL     1      -3.803  -2.939  -0.454  1.00  0.00    -0.368 OA
ATOM     25  H5  UNL     1      -3.975  -3.175   0.450  1.00  0.00     0.212 HD
ENDBRANCH  23  24
BRANCH  23  26
HETATM   26  O6  UNL     1      -2.108  -4.453  -0.619  1.00  0.00    -0.368 OA
ATOM     27  H6  UNL     1      -2.072  -4.914  -1.449  1.00  0.00     0.212 HD
ENDBRANCH  23  26
ENDBRANCH  12  23
ENDBRANCH  11  12
ENDBRANCH   5  11
BRANCH   8  28
HETATM   28  O8  UNL     1       1.891   0.332  -2.604  1.00  0.00    -0.280 OA
ATOM     29  H8  UNL     1       1.901   0.982  -1.912  1.00  0.00     0.245 HD
ENDBRANCH   8  28
BRANCH  10  30
HETATM   30  C17 UNL     1       0.158   1.638  -6.884  1.00  0.00     0.291 C 
BRANCH  30  31
HETATM   31  O12 UNL     1       0.933   2.866  -6.832  1.00  0.00    -0.367 OA
ATOM     32  H12 UNL     1       1.200   3.104  -7.712  1.00  0.00     0.213 HD
ENDBRANCH  30  31
BRANCH  30  33
HETATM   33  O13 UNL     1       0.839   0.825  -7.729  1.00  0.00    -0.367 OA
ATOM     34  H13 UNL     1       0.335   0.223  -8.265  1.00  0.00     0.213 HD
ENDBRANCH  30  33
ENDBRANCH  10  30
BRANCH   9  35
HETATM   35  C15 UNL     1       2.283   1.008  -5.103  1.00  0.00     0.190 C 
BRANCH  35  36
HETATM   36  O9  UNL     1       2.766   2.224  -4.773  1.00  0.00    -0.343 OA
ATOM     37  H9  UNL     1       3.373   2.587  -5.407  1.00  0.00     0.219 HD
ENDBRANCH  35  36
BRANCH  35  38
HETATM   38  N3  UNL     1       3.287   0.282  -5.710  1.00  0.00    -0.218 N 
ATOM     39  H3  UNL     1       3.444  -0.688  -5.436  1.00  0.00     0.195 HD
BRANCH  38  40
HETATM   40  N4  UNL     1       4.126   0.887  -6.739  1.00  0.00    -0.037 N 
HETATM   41  O10 UNL     1       3.570   1.526  -7.618  1.00  0.00    -0.516 OA
HETATM   42  O11 UNL     1       5.481   0.743  -6.716  1.00  0.00    -0.516 OA
ENDBRANCH  38  40
ENDBRANCH  35  38
ENDBRANCH   9  35
TORSDOF 18
ENDMDL
MODEL 5
REMARK VINA RESULT: -7.833182462      2.472      8.620
REMARK  18 active torsions:
REMARK  status: ('A' for Active; 'I' for Inactive)
REMARK    1  A    between atoms: C5_5  and  O1_6 
REMARK    2  A    between atoms: O1_6  and  C6_7 
REMARK    3  A    between atoms: C6_7  and  C7_8 
REMARK    4  A    between atoms: C6_7  and  C12_18 
REMARK       I    between atoms: C7_8  and  N1_10 
REMARK    5  A    between atoms: N1_10  and  C8_12 
REMARK    6  A    between atoms: C8_12  and  C9_13 
REMARK    7  A    between atoms: C9_13  and  C10_14 
REMARK    8  A    between atoms: C10_14  and  O4_16 
REMARK    9  A    between atoms: C12_18  and  O5_19 
REMARK   10  A    between atoms: C12_18  and  O6_21 
REMARK   11  A    between atoms: N2_25  and  O8_26 
REMARK   12  A    between atoms: C14_28  and  C15_29 
REMARK   13  A    between atoms: C15_29  and  O9_30 
REMARK   14  A    between atoms: C15_29  and  N3_32 
REMARK   15  A    between atoms: N3_32  and  N4_34 
REMARK   16  A    between atoms: C16_37  and  C17_38 
REMARK   17  A    between atoms: C17_38  and  O12_39 
REMARK   18  A    between atoms: C17_38  and  O13_41 
ROOT
HETATM    1  C1  UNL     1      -1.771   1.839  -7.439  1.00  0.00     0.036 C 
HETATM    2  C2  UNL     1      -2.928   1.291  -6.681  1.00  0.00    -0.023 C 
HETATM    3  C3  UNL     1      -2.838   0.878  -5.435  1.00  0.00    -0.046 C 
HETATM    4  C4  UNL     1      -1.481   1.017  -4.894  1.00  0.00     0.080 C 
HETATM    5  C5  UNL     1      -1.189   0.350  -3.596  1.00  0.00     0.221 C 
HETATM    6  C13 UNL     1      -1.742  -1.015  -3.520  1.00  0.00     0.277 C 
HETATM    7  O7  UNL     1      -0.933  -2.008  -3.464  1.00  0.00    -0.268 OA
HETATM    8  N2  UNL     1      -3.087  -1.408  -3.501  1.00  0.00    -0.184 N 
HETATM    9  C14 UNL     1      -4.232  -0.616  -4.010  1.00  0.00     0.130 C 
HETATM   10  C16 UNL     1      -4.123   0.385  -4.853  1.00  0.00     0.036 C 
ENDROOT
BRANCH   5  11
HETATM   11  O1  UNL     1       0.209   0.231  -3.512  1.00  0.00    -0.356 OA
BRANCH  11  12
HETATM   12  C6  UNL     1       0.914   1.230  -4.108  1.00  0.00     0.268 C 
BRANCH  12  13
HETATM   13  C7  UNL     1       1.768   0.654  -5.188  1.00  0.00     0.251 C 
HETATM   14  O2  UNL     1       1.617  -0.606  -5.437  1.00  0.00    -0.270 OA
HETATM   15  N1  UNL     1       2.702   1.353  -5.940  1.00  0.00    -0.358 N 
ATOM     16  H1  UNL     1       2.839   2.347  -5.755  1.00  0.00     0.162 HD
BRANCH  15  17
HETATM   17  C8  UNL     1       3.480   0.725  -6.966  1.00  0.00     0.132 C 
BRANCH  17  18
HETATM   18  C9  UNL     1       4.975   0.715  -6.698  1.00  0.00     0.130 C 
BRANCH  18  19
HETATM   19  C10 UNL     1       5.677   0.657  -7.997  1.00  0.00     0.259 C 
HETATM   20  O3  UNL     1       6.874   0.292  -8.019  1.00  0.00    -0.265 OA
BRANCH  19  21
HETATM   21  O4  UNL     1       5.070   0.991  -9.195  1.00  0.00    -0.326 OA
HETATM   22  C11 UNL     1       4.946   0.092 -10.276  1.00  0.00     0.213 C 
ENDBRANCH  19  21
ENDBRANCH  18  19
ENDBRANCH  17  18
ENDBRANCH  15  17
ENDBRANCH  12  13
BRANCH  12  23
HETATM   23  C12 UNL     1       1.883   1.973  -3.201  1.00  0.00     0.292 C 
BRANCH  23  24
HETATM   24  O5  UNL     1       2.978   1.239  -2.821  1.00  0.00    -0.368 OA
ATOM     25  H5  UNL     1       3.792   1.728  -2.809  1.00  0.00     0.212 HD
ENDBRANCH  23  24
BRANCH  23  26
HETATM   26  O6  UNL     1       2.312   3.163  -3.843  1.00  0.00    -0.368 OA
ATOM     27  H6  UNL     1       1.741   3.880  -3.593  1.00  0.00     0.212 HD
ENDBRANCH  23  26
ENDBRANCH  12  23
ENDBRANCH  11  12
ENDBRANCH   5  11
BRANCH   8  28
HETATM   28  O8  UNL     1      -3.390  -2.625  -2.982  1.00  0.00    -0.280 OA
ATOM     29  H8  UNL     1      -4.206  -3.033  -3.246  1.00  0.00     0.245 HD
ENDBRANCH   8  28
BRANCH  10  30
HETATM   30  C17 UNL     1      -5.300   1.148  -5.249  1.00  0.00     0.291 C 
BRANCH  30  31
HETATM   31  O12 UNL     1      -6.325   0.234  -5.724  1.00  0.00    -0.367 OA
ATOM     32  H12 UNL     1      -7.043   0.734  -6.093  1.00  0.00     0.213 HD
ENDBRANCH  30  31
BRANCH  30  33
HETATM   33  O13 UNL     1      -5.909   1.903  -4.302  1.00  0.00    -0.367 OA
ATOM     34  H13 UNL     1      -6.797   1.672  -4.055  1.00  0.00     0.213 HD
ENDBRANCH  30  33
ENDBRANCH  10  30
BRANCH   9  35
HETATM   35  C15 UNL     1      -5.461  -1.129  -3.554  1.00  0.00     0.190 C 
BRANCH  35  36
HETATM   36  O9  UNL     1      -5.993  -0.447  -2.518  1.00  0.00    -0.343 OA
ATOM     37  H9  UNL     1      -6.936  -0.340  -2.567  1.00  0.00     0.219 HD
ENDBRANCH  35  36
BRANCH  35  38
HETATM   38  N3  UNL     1      -6.301  -2.174  -3.875  1.00  0.00    -0.218 N 
ATOM     39  H3  UNL     1      -6.720  -2.218  -4.804  1.00  0.00     0.195 HD
BRANCH  38  40
HETATM   40  N4  UNL     1      -6.598  -3.218  -2.901  1.00  0.00    -0.037 N 
HETATM   41  O10 UNL     1      -6.154  -3.080  -1.771  1.00  0.00    -0.516 OA
HETATM   42  O11 UNL     1      -7.344  -4.307  -3.241  1.00  0.00    -0.516 OA
ENDBRANCH  38  40
ENDBRANCH  35  38
ENDBRANCH   9  35
TORSDOF 18
ENDMDL
