MODEL 1
REMARK VINA RESULT: -9.309235830      0.000      0.000
REMARK  11 active torsions:
REMARK  status: ('A' for Active; 'I' for Inactive)
REMARK    1  A    between atoms: C3_3  and  C4_4 
REMARK    2  A    between atoms: C4_4  and  O2_6 
REMARK    3  A    between atoms: O2_6  and  C5_7 
REMARK    4  A    between atoms: C8_14  and  N3_15 
REMARK    5  A    between atoms: C9_17  and  C10_18 
REMARK    6  A    between atoms: C10_18  and  C11_19 
REMARK    7  A    between atoms: C15_32  and  N9_33 
REMARK    8  A    between atoms: N9_33  and  O3_35 
REMARK    9  A    between atoms: O3_35  and  N10_36 
REMARK   10  A    between atoms: C18_42  and  O4_43 
REMARK   11  A    between atoms: O4_43  and  C19_44 
ROOT
HETATM    1  C11 UNL     1      25.571  33.057  21.492  1.00  0.00     0.106 C 
HETATM    2  N4  UNL     1      26.484  33.217  22.572  1.00  0.00    -0.087 NA
HETATM    3  N5  UNL     1      24.295  33.121  21.656  1.00  0.00    -0.285 N 
ATOM      4  H5  UNL     1      23.913  33.292  22.586  1.00  0.00     0.179 HD
HETATM    5  C12 UNL     1      23.420  32.956  20.563  1.00  0.00     0.182 C 
HETATM    6  N6  UNL     1      22.717  32.805  19.648  1.00  0.00    -0.172 NA
ENDROOT
BRANCH   1   7
HETATM    7  C10 UNL     1      26.104  32.812  20.145  1.00  0.00     0.118 C 
BRANCH   7   8
HETATM    8  C9  UNL     1      26.491  31.346  19.957  1.00  0.00     0.086 C 
HETATM    9  N3  UNL     1      27.057  30.845  21.092  1.00  0.00    -0.205 N 
ATOM     10  H3  UNL     1      27.392  31.634  21.645  1.00  0.00     0.183 HD
BRANCH   9  11
HETATM   11  C8  UNL     1      27.324  29.816  21.712  1.00  0.00     0.685 A 
HETATM   12  N2  UNL     1      26.939  29.756  23.028  1.00  0.00    -0.175 N 
HETATM   13  C7  UNL     1      27.256  28.669  23.739  1.00  0.00     0.137 A 
ATOM     14  H2  UNL     1      26.421  30.525  23.455  1.00  0.00     0.186 HD
HETATM   15  N1  UNL     1      26.878  28.611  25.049  1.00  0.00    -0.348 N 
HETATM   16  C14 UNL     1      27.949  27.593  23.235  1.00  0.00     0.084 A 
HETATM   17  C6  UNL     1      27.169  27.575  25.791  1.00  0.00     0.129 A 
ATOM     18  H1  UNL     1      26.360  29.389  25.456  1.00  0.00     0.167 HD
HETATM   19  C5  UNL     1      27.879  26.450  25.317  1.00  0.00     0.124 A 
HETATM   20  C15 UNL     1      28.269  26.479  23.997  1.00  0.00     0.109 A 
HETATM   21  C13 UNL     1      28.351  27.656  21.889  1.00  0.00     0.131 A 
HETATM   22  N7  UNL     1      28.003  28.788  21.199  1.00  0.00    -0.176 N 
HETATM   23  N8  UNL     1      29.056  26.795  21.348  1.00  0.00    -0.384 N 
ATOM     24  H7  UNL     1      28.285  28.850  20.220  1.00  0.00     0.186 HD
ATOM     25  H82 UNL     1      29.347  26.840  20.371  1.00  0.00     0.157 HD
ATOM     26  H81 UNL     1      29.315  25.952  21.861  1.00  0.00     0.157 HD
BRANCH  19  27
HETATM   27  O2  UNL     1      28.141  25.429  26.161  1.00  0.00    -0.271 OA
BRANCH  27  28
HETATM   28  C4  UNL     1      27.298  24.659  26.859  1.00  0.00     0.305 C 
HETATM   29  O1  UNL     1      27.019  23.504  26.521  1.00  0.00    -0.258 OA
BRANCH  28  30
HETATM   30  C3  UNL     1      26.641  25.139  28.085  1.00  0.00     0.083 C 
HETATM   31  C2  UNL     1      25.386  25.288  28.416  1.00  0.00    -0.030 C 
HETATM   32  C1  UNL     1      24.266  24.939  27.464  1.00  0.00     0.050 C 
HETATM   33  C17 UNL     1      25.132  25.819  29.714  1.00  0.00    -0.019 C 
HETATM   34  C16 UNL     1      26.148  26.936  30.002  1.00  0.00     0.120 C 
HETATM   35  C18 UNL     1      24.275  25.446  30.652  1.00  0.00     0.155 C 
HETATM   36  S1  UNL     1      27.585  25.837  29.491  1.00  0.00    -0.119 SA
BRANCH  35  37
HETATM   37  O4  UNL     1      23.413  24.376  30.486  1.00  0.00    -0.276 OA
BRANCH  37  38
HETATM   38  C19 UNL     1      22.265  24.243  31.207  1.00  0.00     0.377 C 
HETATM   39  N11 UNL     1      21.605  22.987  31.406  1.00  0.00    -0.032 NA
HETATM   40  O5  UNL     1      21.752  25.249  31.728  1.00  0.00    -0.242 OA
ENDBRANCH  37  38
ENDBRANCH  35  37
ENDBRANCH  28  30
ENDBRANCH  27  28
ENDBRANCH  19  27
BRANCH  20  41
HETATM   41  N9  UNL     1      28.995  25.408  23.420  1.00  0.00    -0.238 N 
ATOM     42  H9  UNL     1      29.973  25.603  23.204  1.00  0.00     0.197 HD
BRANCH  41  43
HETATM   43  O3  UNL     1      28.583  24.213  23.130  1.00  0.00    -0.164 OA
BRANCH  43  44
HETATM   44  N10 UNL     1      28.672  23.176  23.913  1.00  0.00    -0.286 N 
ATOM     45 2H10 UNL     1      29.155  23.320  24.800  1.00  0.00     0.186 HD
ATOM     46 1H10 UNL     1      28.300  22.249  23.707  1.00  0.00     0.186 HD
ENDBRANCH  43  44
ENDBRANCH  41  43
ENDBRANCH  20  41
ENDBRANCH   9  11
ENDBRANCH   7   8
ENDBRANCH   1   7
TORSDOF 11
ENDMDL
MODEL 2
REMARK VINA RESULT: -9.295477614      0.997      1.455
REMARK  11 active torsions:
REMARK  status: ('A' for Active; 'I' for Inactive)
REMARK    1  A    between atoms: C3_3  and  C4_4 
REMARK    2  A    between atoms: C4_4  and  O2_6 
REMARK    3  A    between atoms: O2_6  and  C5_7 
REMARK    4  A    between atoms: C8_14  and  N3_15 
REMARK    5  A    between atoms: C9_17  and  C10_18 
REMARK    6  A    between atoms: C10_18  and  C11_19 
REMARK    7  A    between atoms: C15_32  and  N9_33 
REMARK    8  A    between atoms: N9_33  and  O3_35 
REMARK    9  A    between atoms: O3_35  and  N10_36 
REMARK   10  A    between atoms: C18_42  and  O4_43 
REMARK   11  A    between atoms: O4_43  and  C19_44 
ROOT
HETATM    1  C11 UNL     1      25.259  31.807  20.131  1.00  0.00     0.106 C 
HETATM    2  N4  UNL     1      24.153  31.031  20.575  1.00  0.00    -0.087 NA
HETATM    3  N5  UNL     1      25.694  32.825  20.790  1.00  0.00    -0.285 N 
ATOM      4  H5  UNL     1      25.238  33.094  21.662  1.00  0.00     0.179 HD
HETATM    5  C12 UNL     1      26.793  33.571  20.319  1.00  0.00     0.182 C 
HETATM    6  N6  UNL     1      27.694  34.180  19.904  1.00  0.00    -0.172 NA
ENDROOT
BRANCH   1   7
HETATM    7  C10 UNL     1      25.929  31.433  18.877  1.00  0.00     0.118 C 
BRANCH   7   8
HETATM    8  C9  UNL     1      26.576  30.053  18.982  1.00  0.00     0.086 C 
HETATM    9  N3  UNL     1      26.920  29.775  20.272  1.00  0.00    -0.205 N 
ATOM     10  H3  UNL     1      26.980  30.661  20.774  1.00  0.00     0.183 HD
BRANCH   9  11
HETATM   11  C8  UNL     1      27.185  28.876  21.069  1.00  0.00     0.685 A 
HETATM   12  N2  UNL     1      26.950  29.123  22.399  1.00  0.00    -0.175 N 
HETATM   13  C7  UNL     1      27.272  28.183  23.293  1.00  0.00     0.137 A 
ATOM     14  H2  UNL     1      26.537  30.007  22.699  1.00  0.00     0.186 HD
HETATM   15  N1  UNL     1      27.043  28.430  24.615  1.00  0.00    -0.348 N 
HETATM   16  C14 UNL     1      27.829  26.968  22.966  1.00  0.00     0.084 A 
HETATM   17  C6  UNL     1      27.346  27.548  25.530  1.00  0.00     0.129 A 
ATOM     18  H1  UNL     1      26.628  29.320  24.893  1.00  0.00     0.167 HD
HETATM   19  C5  UNL     1      27.920  26.290  25.242  1.00  0.00     0.124 A 
HETATM   20  C15 UNL     1      28.158  26.011  23.915  1.00  0.00     0.109 A 
HETATM   21  C13 UNL     1      28.079  26.716  21.606  1.00  0.00     0.131 A 
HETATM   22  N7  UNL     1      27.731  27.708  20.726  1.00  0.00    -0.176 N 
HETATM   23  N8  UNL     1      28.657  25.701  21.196  1.00  0.00    -0.384 N 
ATOM     24  H7  UNL     1      27.902  27.541  19.734  1.00  0.00     0.186 HD
ATOM     25  H82 UNL     1      28.837  25.518  20.209  1.00  0.00     0.157 HD
ATOM     26  H81 UNL     1      28.916  24.963  21.851  1.00  0.00     0.157 HD
BRANCH  19  27
HETATM   27  O2  UNL     1      28.207  25.446  26.256  1.00  0.00    -0.271 OA
BRANCH  27  28
HETATM   28  C4  UNL     1      27.393  24.663  26.974  1.00  0.00     0.305 C 
HETATM   29  O1  UNL     1      27.180  23.482  26.681  1.00  0.00    -0.258 OA
BRANCH  28  30
HETATM   30  C3  UNL     1      26.690  25.160  28.167  1.00  0.00     0.083 C 
HETATM   31  C2  UNL     1      25.423  25.297  28.454  1.00  0.00    -0.030 C 
HETATM   32  C1  UNL     1      24.339  24.912  27.475  1.00  0.00     0.050 C 
HETATM   33  C17 UNL     1      25.120  25.853  29.732  1.00  0.00    -0.019 C 
HETATM   34  C16 UNL     1      26.110  26.990  30.027  1.00  0.00     0.120 C 
HETATM   35  C18 UNL     1      24.239  25.487  30.650  1.00  0.00     0.155 C 
HETATM   36  S1  UNL     1      27.578  25.902  29.587  1.00  0.00    -0.119 SA
BRANCH  35  37
HETATM   37  O4  UNL     1      23.397  24.402  30.480  1.00  0.00    -0.276 OA
BRANCH  37  38
HETATM   38  C19 UNL     1      22.263  24.233  31.216  1.00  0.00     0.377 C 
HETATM   39  N11 UNL     1      21.573  22.981  31.317  1.00  0.00    -0.032 NA
HETATM   40  O5  UNL     1      21.792  25.199  31.839  1.00  0.00    -0.242 OA
ENDBRANCH  37  38
ENDBRANCH  35  37
ENDBRANCH  28  30
ENDBRANCH  27  28
ENDBRANCH  19  27
BRANCH  20  41
HETATM   41  N9  UNL     1      28.740  24.783  23.514  1.00  0.00    -0.238 N 
ATOM     42  H9  UNL     1      29.734  24.819  23.286  1.00  0.00     0.197 HD
BRANCH  41  43
HETATM   43  O3  UNL     1      28.177  23.621  23.398  1.00  0.00    -0.164 OA
BRANCH  43  44
HETATM   44  N10 UNL     1      28.499  22.558  24.079  1.00  0.00    -0.286 N 
ATOM     45 2H10 UNL     1      29.116  22.704  24.878  1.00  0.00     0.186 HD
ATOM     46 1H10 UNL     1      28.184  21.610  23.875  1.00  0.00     0.186 HD
ENDBRANCH  43  44
ENDBRANCH  41  43
ENDBRANCH  20  41
ENDBRANCH   9  11
ENDBRANCH   7   8
ENDBRANCH   1   7
TORSDOF 11
ENDMDL
MODEL 3
REMARK VINA RESULT: -9.033718566      1.370      1.950
REMARK  11 active torsions:
REMARK  status: ('A' for Active; 'I' for Inactive)
REMARK    1  A    between atoms: C3_3  and  C4_4 
REMARK    2  A    between atoms: C4_4  and  O2_6 
REMARK    3  A    between atoms: O2_6  and  C5_7 
REMARK    4  A    between atoms: C8_14  and  N3_15 
REMARK    5  A    between atoms: C9_17  and  C10_18 
REMARK    6  A    between atoms: C10_18  and  C11_19 
REMARK    7  A    between atoms: C15_32  and  N9_33 
REMARK    8  A    between atoms: N9_33  and  O3_35 
REMARK    9  A    between atoms: O3_35  and  N10_36 
REMARK   10  A    between atoms: C18_42  and  O4_43 
REMARK   11  A    between atoms: O4_43  and  C19_44 
ROOT
HETATM    1  C11 UNL     1      28.230  32.875  18.964  1.00  0.00     0.106 C 
HETATM    2  N4  UNL     1      28.860  34.137  19.143  1.00  0.00    -0.087 NA
HETATM    3  N5  UNL     1      28.744  31.947  18.232  1.00  0.00    -0.285 N 
ATOM      4  H5  UNL     1      29.633  32.111  17.760  1.00  0.00     0.179 HD
HETATM    5  C12 UNL     1      28.090  30.708  18.075  1.00  0.00     0.182 C 
HETATM    6  N6  UNL     1      27.526  29.698  17.951  1.00  0.00    -0.172 NA
ENDROOT
BRANCH   1   7
HETATM    7  C10 UNL     1      26.948  32.621  19.637  1.00  0.00     0.118 C 
BRANCH   7   8
HETATM    8  C9  UNL     1      27.159  32.076  21.048  1.00  0.00     0.086 C 
HETATM    9  N3  UNL     1      27.012  30.720  21.072  1.00  0.00    -0.205 N 
ATOM     10  H3  UNL     1      26.473  30.453  20.248  1.00  0.00     0.183 HD
BRANCH   9  11
HETATM   11  C8  UNL     1      27.274  29.693  21.696  1.00  0.00     0.685 A 
HETATM   12  N2  UNL     1      26.895  29.642  23.014  1.00  0.00    -0.175 N 
HETATM   13  C7  UNL     1      27.207  28.556  23.729  1.00  0.00     0.137 A 
ATOM     14  H2  UNL     1      26.387  30.418  23.440  1.00  0.00     0.186 HD
HETATM   15  N1  UNL     1      26.837  28.508  25.041  1.00  0.00    -0.348 N 
HETATM   16  C14 UNL     1      27.889  27.472  23.227  1.00  0.00     0.084 A 
HETATM   17  C6  UNL     1      27.123  27.474  25.787  1.00  0.00     0.129 A 
ATOM     18  H1  UNL     1      26.328  29.293  25.447  1.00  0.00     0.167 HD
HETATM   19  C5  UNL     1      27.821  26.341  25.315  1.00  0.00     0.124 A 
HETATM   20  C15 UNL     1      28.204  26.359  23.993  1.00  0.00     0.109 A 
HETATM   21  C13 UNL     1      28.284  27.525  21.878  1.00  0.00     0.131 A 
HETATM   22  N7  UNL     1      27.941  28.657  21.184  1.00  0.00    -0.176 N 
HETATM   23  N8  UNL     1      28.978  26.655  21.338  1.00  0.00    -0.384 N 
ATOM     24  H7  UNL     1      28.218  28.711  20.204  1.00  0.00     0.186 HD
ATOM     25  H82 UNL     1      29.264  26.693  20.359  1.00  0.00     0.157 HD
ATOM     26  H81 UNL     1      29.233  25.813  21.854  1.00  0.00     0.157 HD
BRANCH  19  27
HETATM   27  O2  UNL     1      28.079  25.322  26.163  1.00  0.00    -0.271 OA
BRANCH  27  28
HETATM   28  C4  UNL     1      27.234  24.563  26.871  1.00  0.00     0.305 C 
HETATM   29  O1  UNL     1      26.956  23.403  26.551  1.00  0.00    -0.258 OA
BRANCH  28  30
HETATM   30  C3  UNL     1      26.572  25.064  28.086  1.00  0.00     0.083 C 
HETATM   31  C2  UNL     1      25.317  25.247  28.398  1.00  0.00    -0.030 C 
HETATM   32  C1  UNL     1      24.202  24.926  27.431  1.00  0.00     0.050 C 
HETATM   33  C17 UNL     1      25.059  25.789  29.692  1.00  0.00    -0.019 C 
HETATM   34  C16 UNL     1      26.100  26.878  29.992  1.00  0.00     0.120 C 
HETATM   35  C18 UNL     1      24.179  25.441  30.618  1.00  0.00     0.155 C 
HETATM   36  S1  UNL     1      27.514  25.740  29.505  1.00  0.00    -0.119 SA
BRANCH  35  37
HETATM   37  O4  UNL     1      23.290  24.394  30.442  1.00  0.00    -0.276 OA
BRANCH  37  38
HETATM   38  C19 UNL     1      22.201  24.217  31.240  1.00  0.00     0.377 C 
HETATM   39  N11 UNL     1      21.584  22.941  31.453  1.00  0.00    -0.032 NA
HETATM   40  O5  UNL     1      21.706  25.197  31.822  1.00  0.00    -0.242 OA
ENDBRANCH  37  38
ENDBRANCH  35  37
ENDBRANCH  28  30
ENDBRANCH  27  28
ENDBRANCH  19  27
BRANCH  20  41
HETATM   41  N9  UNL     1      28.918  25.280  23.417  1.00  0.00    -0.238 N 
ATOM     42  H9  UNL     1      29.895  25.466  23.193  1.00  0.00     0.197 HD
BRANCH  41  43
HETATM   43  O3  UNL     1      28.494  24.086  23.138  1.00  0.00    -0.164 OA
BRANCH  43  44
HETATM   44  N10 UNL     1      28.568  23.057  23.933  1.00  0.00    -0.286 N 
ATOM     45 2H10 UNL     1      27.808  22.950  24.606  1.00  0.00     0.186 HD
ATOM     46 1H10 UNL     1      29.315  22.363  23.931  1.00  0.00     0.186 HD
ENDBRANCH  43  44
ENDBRANCH  41  43
ENDBRANCH  20  41
ENDBRANCH   9  11
ENDBRANCH   7   8
ENDBRANCH   1   7
TORSDOF 11
ENDMDL
MODEL 4
REMARK VINA RESULT: -8.984792705      0.983      1.174
REMARK  11 active torsions:
REMARK  status: ('A' for Active; 'I' for Inactive)
REMARK    1  A    between atoms: C3_3  and  C4_4 
REMARK    2  A    between atoms: C4_4  and  O2_6 
REMARK    3  A    between atoms: O2_6  and  C5_7 
REMARK    4  A    between atoms: C8_14  and  N3_15 
REMARK    5  A    between atoms: C9_17  and  C10_18 
REMARK    6  A    between atoms: C10_18  and  C11_19 
REMARK    7  A    between atoms: C15_32  and  N9_33 
REMARK    8  A    between atoms: N9_33  and  O3_35 
REMARK    9  A    between atoms: O3_35  and  N10_36 
REMARK   10  A    between atoms: C18_42  and  O4_43 
REMARK   11  A    between atoms: O4_43  and  C19_44 
ROOT
HETATM    1  C11 UNL     1      25.224  32.373  19.693  1.00  0.00     0.106 C 
HETATM    2  N4  UNL     1      25.015  33.103  20.896  1.00  0.00    -0.087 NA
HETATM    3  N5  UNL     1      24.261  31.785  19.070  1.00  0.00    -0.285 N 
ATOM      4  H5  UNL     1      23.313  31.838  19.441  1.00  0.00     0.179 HD
HETATM    5  C12 UNL     1      24.505  31.069  17.880  1.00  0.00     0.182 C 
HETATM    6  N6  UNL     1      24.731  30.473  16.906  1.00  0.00    -0.172 NA
ENDROOT
BRANCH   1   7
HETATM    7  C10 UNL     1      26.583  32.287  19.142  1.00  0.00     0.118 C 
BRANCH   7   8
HETATM    8  C9  UNL     1      27.573  31.759  20.179  1.00  0.00     0.086 C 
HETATM    9  N3  UNL     1      27.053  30.686  20.842  1.00  0.00    -0.205 N 
ATOM     10  H3  UNL     1      26.039  30.717  20.734  1.00  0.00     0.183 HD
BRANCH   9  11
HETATM   11  C8  UNL     1      27.326  29.695  21.518  1.00  0.00     0.685 A 
HETATM   12  N2  UNL     1      26.925  29.699  22.831  1.00  0.00    -0.175 N 
HETATM   13  C7  UNL     1      27.248  28.656  23.603  1.00  0.00     0.137 A 
ATOM     14  H2  UNL     1      26.392  30.482  23.210  1.00  0.00     0.186 HD
HETATM   15  N1  UNL     1      26.855  28.662  24.909  1.00  0.00    -0.348 N 
HETATM   16  C14 UNL     1      27.962  27.565  23.165  1.00  0.00     0.084 A 
HETATM   17  C6  UNL     1      27.151  27.671  25.709  1.00  0.00     0.129 A 
ATOM     18  H1  UNL     1      26.321  29.453  25.268  1.00  0.00     0.167 HD
HETATM   19  C5  UNL     1      27.882  26.533  25.303  1.00  0.00     0.124 A 
HETATM   20  C15 UNL     1      28.288  26.497  23.989  1.00  0.00     0.109 A 
HETATM   21  C13 UNL     1      28.381  27.562  21.822  1.00  0.00     0.131 A 
HETATM   22  N7  UNL     1      28.026  28.652  21.069  1.00  0.00    -0.176 N 
HETATM   23  N8  UNL     1      29.103  26.684  21.336  1.00  0.00    -0.384 N 
ATOM     24  H7  UNL     1      28.319  28.666  20.092  1.00  0.00     0.186 HD
ATOM     25  H82 UNL     1      29.406  26.682  20.362  1.00  0.00     0.157 HD
ATOM     26  H81 UNL     1      29.368  25.873  21.896  1.00  0.00     0.157 HD
BRANCH  19  27
HETATM   27  O2  UNL     1      28.147  25.562  26.204  1.00  0.00    -0.271 OA
BRANCH  27  28
HETATM   28  C4  UNL     1      27.306  24.772  26.882  1.00  0.00     0.305 C 
HETATM   29  O1  UNL     1      27.029  23.626  26.514  1.00  0.00    -0.258 OA
BRANCH  28  30
HETATM   30  C3  UNL     1      26.650  25.219  28.121  1.00  0.00     0.083 C 
HETATM   31  C2  UNL     1      25.395  25.346  28.461  1.00  0.00    -0.030 C 
HETATM   32  C1  UNL     1      24.274  25.002  27.508  1.00  0.00     0.050 C 
HETATM   33  C17 UNL     1      25.142  25.848  29.772  1.00  0.00    -0.019 C 
HETATM   34  C16 UNL     1      26.145  26.971  30.077  1.00  0.00     0.120 C 
HETATM   35  C18 UNL     1      24.294  25.445  30.706  1.00  0.00     0.155 C 
HETATM   36  S1  UNL     1      27.592  25.900  29.536  1.00  0.00    -0.119 SA
BRANCH  35  37
HETATM   37  O4  UNL     1      23.444  24.368  30.523  1.00  0.00    -0.276 OA
BRANCH  37  38
HETATM   38  C19 UNL     1      22.257  24.253  31.181  1.00  0.00     0.377 C 
HETATM   39  N11 UNL     1      21.670  22.992  31.524  1.00  0.00    -0.032 NA
HETATM   40  O5  UNL     1      21.640  25.281  31.509  1.00  0.00    -0.242 OA
ENDBRANCH  37  38
ENDBRANCH  35  37
ENDBRANCH  28  30
ENDBRANCH  27  28
ENDBRANCH  19  27
BRANCH  20  41
HETATM   41  N9  UNL     1      29.036  25.408  23.478  1.00  0.00    -0.238 N 
ATOM     42  H9  UNL     1      30.034  25.577  23.353  1.00  0.00     0.197 HD
BRANCH  41  43
HETATM   43  O3  UNL     1      28.620  24.224  23.149  1.00  0.00    -0.164 OA
BRANCH  43  44
HETATM   44  N10 UNL     1      28.567  23.197  23.947  1.00  0.00    -0.286 N 
ATOM     45 2H10 UNL     1      27.722  23.108  24.512  1.00  0.00     0.186 HD
ATOM     46 1H10 UNL     1      29.294  22.489  24.047  1.00  0.00     0.186 HD
ENDBRANCH  43  44
ENDBRANCH  41  43
ENDBRANCH  20  41
ENDBRANCH   9  11
ENDBRANCH   7   8
ENDBRANCH   1   7
TORSDOF 11
ENDMDL
MODEL 5
REMARK VINA RESULT: -8.977628566      1.170      1.373
REMARK  11 active torsions:
REMARK  status: ('A' for Active; 'I' for Inactive)
REMARK    1  A    between atoms: C3_3  and  C4_4 
REMARK    2  A    between atoms: C4_4  and  O2_6 
REMARK    3  A    between atoms: O2_6  and  C5_7 
REMARK    4  A    between atoms: C8_14  and  N3_15 
REMARK    5  A    between atoms: C9_17  and  C10_18 
REMARK    6  A    between atoms: C10_18  and  C11_19 
REMARK    7  A    between atoms: C15_32  and  N9_33 
REMARK    8  A    between atoms: N9_33  and  O3_35 
REMARK    9  A    between atoms: O3_35  and  N10_36 
REMARK   10  A    between atoms: C18_42  and  O4_43 
REMARK   11  A    between atoms: O4_43  and  C19_44 
ROOT
HETATM    1  C11 UNL     1      27.342  33.392  19.436  1.00  0.00     0.106 C 
HETATM    2  N4  UNL     1      28.620  32.791  19.612  1.00  0.00    -0.087 NA
HETATM    3  N5  UNL     1      27.141  34.346  18.594  1.00  0.00    -0.285 N 
ATOM      4  H5  UNL     1      27.916  34.690  18.027  1.00  0.00     0.179 HD
HETATM    5  C12 UNL     1      25.862  34.918  18.446  1.00  0.00     0.182 C 
HETATM    6  N6  UNL     1      24.799  35.384  18.351  1.00  0.00    -0.172 NA
ENDROOT
BRANCH   1   7
HETATM    7  C10 UNL     1      26.214  32.907  20.243  1.00  0.00     0.118 C 
BRANCH   7   8
HETATM    8  C9  UNL     1      26.125  31.382  20.218  1.00  0.00     0.086 C 
HETATM    9  N3  UNL     1      27.050  30.829  21.054  1.00  0.00    -0.205 N 
ATOM     10  H3  UNL     1      27.777  31.526  21.215  1.00  0.00     0.183 HD
BRANCH   9  11
HETATM   11  C8  UNL     1      27.352  29.821  21.691  1.00  0.00     0.685 A 
HETATM   12  N2  UNL     1      26.932  29.750  22.996  1.00  0.00    -0.175 N 
HETATM   13  C7  UNL     1      27.286  28.687  23.725  1.00  0.00     0.137 A 
ATOM     14  H2  UNL     1      26.363  30.493  23.400  1.00  0.00     0.186 HD
HETATM   15  N1  UNL     1      26.874  28.618  25.024  1.00  0.00    -0.348 N 
HETATM   16  C14 UNL     1      28.049  27.645  23.251  1.00  0.00     0.084 A 
HETATM   17  C6  UNL     1      27.198  27.605  25.784  1.00  0.00     0.129 A 
ATOM     18  H1  UNL     1      26.304  29.372  25.409  1.00  0.00     0.167 HD
HETATM   19  C5  UNL     1      27.979  26.516  25.340  1.00  0.00     0.124 A 
HETATM   20  C15 UNL     1      28.405  26.555  24.032  1.00  0.00     0.109 A 
HETATM   21  C13 UNL     1      28.487  27.719  21.917  1.00  0.00     0.131 A 
HETATM   22  N7  UNL     1      28.099  28.826  21.207  1.00  0.00    -0.176 N 
HETATM   23  N8  UNL     1      29.251  26.893  21.404  1.00  0.00    -0.384 N 
ATOM     24  H7  UNL     1      28.405  28.896  20.236  1.00  0.00     0.186 HD
ATOM     25  H82 UNL     1      29.568  26.946  20.436  1.00  0.00     0.157 HD
ATOM     26  H81 UNL     1      29.539  26.069  21.932  1.00  0.00     0.157 HD
BRANCH  19  27
HETATM   27  O2  UNL     1      28.270  25.517  26.201  1.00  0.00    -0.271 OA
BRANCH  27  28
HETATM   28  C4  UNL     1      27.449  24.735  26.913  1.00  0.00     0.305 C 
HETATM   29  O1  UNL     1      27.214  23.563  26.601  1.00  0.00    -0.258 OA
BRANCH  28  30
HETATM   30  C3  UNL     1      26.767  25.222  28.122  1.00  0.00     0.083 C 
HETATM   31  C2  UNL     1      25.505  25.388  28.419  1.00  0.00    -0.030 C 
HETATM   32  C1  UNL     1      24.406  25.056  27.437  1.00  0.00     0.050 C 
HETATM   33  C17 UNL     1      25.225  25.920  29.712  1.00  0.00    -0.019 C 
HETATM   34  C16 UNL     1      26.248  27.022  30.028  1.00  0.00     0.120 C 
HETATM   35  C18 UNL     1      24.338  25.557  30.625  1.00  0.00     0.155 C 
HETATM   36  S1  UNL     1      27.682  25.904  29.554  1.00  0.00    -0.119 SA
BRANCH  35  37
HETATM   37  O4  UNL     1      23.465  24.500  30.434  1.00  0.00    -0.276 OA
BRANCH  37  38
HETATM   38  C19 UNL     1      22.335  24.340  31.177  1.00  0.00     0.377 C 
HETATM   39  N11 UNL     1      21.666  23.082  31.327  1.00  0.00    -0.032 NA
HETATM   40  O5  UNL     1      21.847  25.323  31.763  1.00  0.00    -0.242 OA
ENDBRANCH  37  38
ENDBRANCH  35  37
ENDBRANCH  28  30
ENDBRANCH  27  28
ENDBRANCH  19  27
BRANCH  20  41
HETATM   41  N9  UNL     1      29.204  25.521  23.486  1.00  0.00    -0.238 N 
ATOM     42  H9  UNL     1      30.194  25.739  23.373  1.00  0.00     0.197 HD
BRANCH  41  43
HETATM   43  O3  UNL     1      28.843  24.333  23.111  1.00  0.00    -0.164 OA
BRANCH  43  44
HETATM   44  N10 UNL     1      28.491  23.366  23.910  1.00  0.00    -0.286 N 
ATOM     45 2H10 UNL     1      27.987  23.639  24.754  1.00  0.00     0.186 HD
ATOM     46 1H10 UNL     1      28.680  22.376  23.755  1.00  0.00     0.186 HD
ENDBRANCH  43  44
ENDBRANCH  41  43
ENDBRANCH  20  41
ENDBRANCH   9  11
ENDBRANCH   7   8
ENDBRANCH   1   7
TORSDOF 11
ENDMDL
