MODEL 1
REMARK VINA RESULT: -6.540807684      0.000      0.000
REMARK  11 active torsions:
REMARK  status: ('A' for Active; 'I' for Inactive)
REMARK    1  A    between atoms: N1_2  and  C3_4 
REMARK    2  A    between atoms: N1_2  and  C12_33 
REMARK    3  A    between atoms: C3_4  and  C4_5 
REMARK    4  A    between atoms: C4_5  and  N2_6 
REMARK    5  A    between atoms: N2_6  and  C5_8 
REMARK    6  A    between atoms: C5_8  and  N3_10 
REMARK    7  A    between atoms: N3_10  and  C6_12 
REMARK    8  A    between atoms: C6_12  and  C7_13 
REMARK    9  A    between atoms: C7_13  and  N4_14 
REMARK       I    between atoms: N4_14  and  C8_16 
REMARK       I    between atoms: C8_16  and  N6_20 
REMARK   10  A    between atoms: N6_20  and  N7_22 
REMARK   11  A    between atoms: C11_28  and  N9_29 
ROOT
HETATM    1  C7  UNL     1      -2.935  16.524  16.242  1.00  0.00     0.123 C 
ENDROOT
BRANCH   1   2
HETATM    2  C6  UNL     1      -2.809  17.949  16.569  1.00  0.00     0.108 C 
BRANCH   2   3
HETATM    3  N3  UNL     1      -1.638  18.618  16.161  1.00  0.00    -0.342 N 
ATOM      4  H3  UNL     1      -1.693  19.025  15.228  1.00  0.00     0.167 HD
BRANCH   3   5
HETATM    5  C5  UNL     1      -0.425  18.823  16.798  1.00  0.00     0.171 C 
HETATM    6  S1  UNL     1      -0.153  18.714  18.423  1.00  0.00    -0.041 SA
BRANCH   5   7
HETATM    7  N2  UNL     1       0.710  19.260  16.035  1.00  0.00    -0.365 N 
ATOM      8  H2  UNL     1       0.991  18.756  15.193  1.00  0.00     0.161 HD
BRANCH   7   9
HETATM    9  C4  UNL     1       1.442  20.407  16.465  1.00  0.00     0.150 C 
BRANCH   9  10
HETATM   10  C3  UNL     1       2.909  20.382  16.244  1.00  0.00     0.258 C 
BRANCH  10  11
HETATM   11  N1  UNL     1       3.654  21.572  16.400  1.00  0.00    -0.044 N 
HETATM   12  C1  UNL     1       4.362  21.790  17.604  1.00  0.00     0.274 C 
HETATM   13  C2  UNL     1       2.641  22.665  16.358  1.00  0.00     0.274 C 
BRANCH  11  14
HETATM   14  C12 UNL     1       4.422  21.811  15.197  1.00  0.00     0.386 C 
HETATM   15  C13 UNL     1       4.403  20.759  14.177  1.00  0.00     0.065 C 
HETATM   16  C14 UNL     1       5.712  20.054  14.256  1.00  0.00     0.031 C 
HETATM   17  C15 UNL     1       6.608  21.046  14.915  1.00  0.00     0.235 C 
HETATM   18  N10 UNL     1       5.810  22.086  15.471  1.00  0.00    -0.046 N 
ATOM     19 2H10 UNL     1       6.094  23.010  15.147  1.00  0.00     0.279 HD
ATOM     20 1H10 UNL     1       5.990  22.224  16.466  1.00  0.00     0.279 HD
ENDBRANCH  11  14
ENDBRANCH  10  11
ENDBRANCH   9  10
ENDBRANCH   7   9
ENDBRANCH   5   7
ENDBRANCH   3   5
ENDBRANCH   2   3
ENDBRANCH   1   2
BRANCH   1  21
HETATM   21  N4  UNL     1      -2.038  15.831  15.423  1.00  0.00    -0.200 N 
HETATM   22  C8  UNL     1      -2.289  14.417  15.226  1.00  0.00     0.690 C 
HETATM   23  N5  UNL     1      -2.989  14.070  14.225  1.00  0.00    -0.233 N 
HETATM   24  N6  UNL     1      -1.745  13.516  16.150  1.00  0.00    -0.131 N 
ATOM     25  H52 UNL     1      -3.385  14.726  13.552  1.00  0.00     0.174 HD
ATOM     26  H51 UNL     1      -3.166  13.076  14.087  1.00  0.00     0.174 HD
ATOM     27  H6  UNL     1      -1.157  12.753  15.815  1.00  0.00     0.205 HD
ATOM     28  H4  UNL     1      -1.244  16.299  14.984  1.00  0.00     0.183 HD
BRANCH  24  29
HETATM   29  N7  UNL     1      -1.989  13.639  17.516  1.00  0.00    -0.273 N 
HETATM   30  C9  UNL     1      -1.195  14.233  18.327  1.00  0.00     0.124 C 
HETATM   31  N8  UNL     1       0.049  14.898  18.192  1.00  0.00    -0.374 N 
HETATM   32  C11 UNL     1      -1.158  14.526  19.779  1.00  0.00     0.269 C 
HETATM   33  C10 UNL     1       0.326  14.592  19.579  1.00  0.00     0.162 C 
ATOM     34  H8  UNL     1       0.538  15.384  17.439  1.00  0.00     0.160 HD
ATOM     35  H7  UNL     1      -2.847  13.233  17.891  1.00  0.00     0.189 HD
BRANCH  32  36
HETATM   36  N9  UNL     1      -1.818  15.782  20.071  1.00  0.00    -0.067 N 
ATOM     37  H93 UNL     1      -1.335  16.298  20.807  1.00  0.00     0.275 HD
ATOM     38  H92 UNL     1      -1.704  16.453  19.311  1.00  0.00     0.275 HD
ATOM     39  H91 UNL     1      -2.801  15.635  20.298  1.00  0.00     0.275 HD
ENDBRANCH  32  36
ENDBRANCH  24  29
ENDBRANCH   1  21
TORSDOF 11
ENDMDL
MODEL 2
REMARK VINA RESULT: -6.409533878      1.955      3.656
REMARK  11 active torsions:
REMARK  status: ('A' for Active; 'I' for Inactive)
REMARK    1  A    between atoms: N1_2  and  C3_4 
REMARK    2  A    between atoms: N1_2  and  C12_33 
REMARK    3  A    between atoms: C3_4  and  C4_5 
REMARK    4  A    between atoms: C4_5  and  N2_6 
REMARK    5  A    between atoms: N2_6  and  C5_8 
REMARK    6  A    between atoms: C5_8  and  N3_10 
REMARK    7  A    between atoms: N3_10  and  C6_12 
REMARK    8  A    between atoms: C6_12  and  C7_13 
REMARK    9  A    between atoms: C7_13  and  N4_14 
REMARK       I    between atoms: N4_14  and  C8_16 
REMARK       I    between atoms: C8_16  and  N6_20 
REMARK   10  A    between atoms: N6_20  and  N7_22 
REMARK   11  A    between atoms: C11_28  and  N9_29 
ROOT
HETATM    1  C7  UNL     1       0.102  18.046  17.490  1.00  0.00     0.123 C 
ENDROOT
BRANCH   1   2
HETATM    2  C6  UNL     1       0.826  17.962  18.763  1.00  0.00     0.108 C 
BRANCH   2   3
HETATM    3  N3  UNL     1       2.156  18.425  18.797  1.00  0.00    -0.342 N 
ATOM      4  H3  UNL     1       2.856  17.693  18.672  1.00  0.00     0.167 HD
BRANCH   3   5
HETATM    5  C5  UNL     1       2.687  19.692  18.969  1.00  0.00     0.171 C 
HETATM    6  S1  UNL     1       3.627  20.185  20.235  1.00  0.00    -0.041 SA
BRANCH   5   7
HETATM    7  N2  UNL     1       2.348  20.735  18.041  1.00  0.00    -0.365 N 
ATOM      8  H2  UNL     1       1.769  21.520  18.337  1.00  0.00     0.161 HD
BRANCH   7   9
HETATM    9  C4  UNL     1       2.831  20.661  16.701  1.00  0.00     0.150 C 
BRANCH   9  10
HETATM   10  C3  UNL     1       4.066  21.425  16.395  1.00  0.00     0.258 C 
BRANCH  10  11
HETATM   11  N1  UNL     1       4.291  21.878  15.076  1.00  0.00    -0.044 N 
HETATM   12  C1  UNL     1       5.112  23.009  14.866  1.00  0.00     0.274 C 
HETATM   13  C2  UNL     1       2.948  22.292  14.579  1.00  0.00     0.274 C 
BRANCH  11  14
HETATM   14  C12 UNL     1       4.600  20.743  14.232  1.00  0.00     0.386 C 
HETATM   15  C13 UNL     1       5.876  20.064  14.473  1.00  0.00     0.065 C 
HETATM   16  C14 UNL     1       6.799  20.475  13.380  1.00  0.00     0.031 C 
HETATM   17  C15 UNL     1       5.883  20.917  12.292  1.00  0.00     0.235 C 
HETATM   18  N10 UNL     1       4.574  21.072  12.829  1.00  0.00    -0.046 N 
ATOM     19 2H10 UNL     1       3.877  20.532  12.316  1.00  0.00     0.279 HD
ATOM     20 1H10 UNL     1       4.190  22.001  12.655  1.00  0.00     0.279 HD
ENDBRANCH  11  14
ENDBRANCH  10  11
ENDBRANCH   9  10
ENDBRANCH   7   9
ENDBRANCH   5   7
ENDBRANCH   3   5
ENDBRANCH   2   3
ENDBRANCH   1   2
BRANCH   1  21
HETATM   21  N4  UNL     1      -0.740  19.107  17.142  1.00  0.00    -0.200 N 
HETATM   22  C8  UNL     1      -2.163  18.834  17.122  1.00  0.00     0.690 C 
HETATM   23  N5  UNL     1      -2.828  19.062  18.180  1.00  0.00    -0.233 N 
HETATM   24  N6  UNL     1      -2.723  18.338  15.938  1.00  0.00    -0.131 N 
ATOM     25  H52 UNL     1      -2.421  19.423  19.042  1.00  0.00     0.174 HD
ATOM     26  H51 UNL     1      -3.829  18.870  18.166  1.00  0.00     0.174 HD
ATOM     27  H6  UNL     1      -3.512  18.828  15.515  1.00  0.00     0.205 HD
ATOM     28  H4  UNL     1      -0.369  20.030  16.914  1.00  0.00     0.183 HD
BRANCH  24  29
HETATM   29  N7  UNL     1      -2.226  17.190  15.324  1.00  0.00    -0.273 N 
HETATM   30  C9  UNL     1      -2.333  16.016  15.826  1.00  0.00     0.124 C 
HETATM   31  N8  UNL     1      -2.903  15.491  17.012  1.00  0.00    -0.374 N 
HETATM   32  C11 UNL     1      -1.931  14.642  15.447  1.00  0.00     0.269 C 
HETATM   33  C10 UNL     1      -1.982  14.377  16.922  1.00  0.00     0.162 C 
ATOM     34  H8  UNL     1      -3.644  15.775  17.653  1.00  0.00     0.160 HD
ATOM     35  H7  UNL     1      -1.752  17.290  14.427  1.00  0.00     0.189 HD
BRANCH  32  36
HETATM   36  N9  UNL     1      -2.958  14.002  14.650  1.00  0.00    -0.067 N 
ATOM     37  H93 UNL     1      -3.813  13.855  15.186  1.00  0.00     0.275 HD
ATOM     38  H92 UNL     1      -3.327  14.632  13.937  1.00  0.00     0.275 HD
ATOM     39  H91 UNL     1      -2.615  13.132  14.242  1.00  0.00     0.275 HD
ENDBRANCH  32  36
ENDBRANCH  24  29
ENDBRANCH   1  21
TORSDOF 11
ENDMDL
MODEL 3
REMARK VINA RESULT: -6.409416196      1.384      3.142
REMARK  11 active torsions:
REMARK  status: ('A' for Active; 'I' for Inactive)
REMARK    1  A    between atoms: N1_2  and  C3_4 
REMARK    2  A    between atoms: N1_2  and  C12_33 
REMARK    3  A    between atoms: C3_4  and  C4_5 
REMARK    4  A    between atoms: C4_5  and  N2_6 
REMARK    5  A    between atoms: N2_6  and  C5_8 
REMARK    6  A    between atoms: C5_8  and  N3_10 
REMARK    7  A    between atoms: N3_10  and  C6_12 
REMARK    8  A    between atoms: C6_12  and  C7_13 
REMARK    9  A    between atoms: C7_13  and  N4_14 
REMARK       I    between atoms: N4_14  and  C8_16 
REMARK       I    between atoms: C8_16  and  N6_20 
REMARK   10  A    between atoms: N6_20  and  N7_22 
REMARK   11  A    between atoms: C11_28  and  N9_29 
ROOT
HETATM    1  C7  UNL     1      -0.623  15.214  18.072  1.00  0.00     0.123 C 
ENDROOT
BRANCH   1   2
HETATM    2  C6  UNL     1      -0.563  16.453  18.855  1.00  0.00     0.108 C 
BRANCH   2   3
HETATM    3  N3  UNL     1       0.702  17.037  19.070  1.00  0.00    -0.342 N 
ATOM      4  H3  UNL     1       1.381  16.413  19.506  1.00  0.00     0.167 HD
BRANCH   3   5
HETATM    5  C5  UNL     1       1.190  18.304  18.799  1.00  0.00     0.171 C 
HETATM    6  S1  UNL     1       1.716  19.400  19.918  1.00  0.00    -0.041 SA
BRANCH   5   7
HETATM    7  N2  UNL     1       1.177  18.794  17.449  1.00  0.00    -0.365 N 
ATOM      8  H2  UNL     1       0.905  18.181  16.680  1.00  0.00     0.161 HD
BRANCH   7   9
HETATM    9  C4  UNL     1       1.548  20.148  17.194  1.00  0.00     0.150 C 
BRANCH   9  10
HETATM   10  C3  UNL     1       2.774  20.361  16.385  1.00  0.00     0.258 C 
BRANCH  10  11
HETATM   11  N1  UNL     1       3.551  21.522  16.597  1.00  0.00    -0.044 N 
HETATM   12  C1  UNL     1       4.294  21.645  17.793  1.00  0.00     0.274 C 
HETATM   13  C2  UNL     1       2.564  22.638  16.652  1.00  0.00     0.274 C 
BRANCH  11  14
HETATM   14  C12 UNL     1       4.294  21.820  15.392  1.00  0.00     0.386 C 
HETATM   15  C13 UNL     1       4.266  20.813  14.327  1.00  0.00     0.065 C 
HETATM   16  C14 UNL     1       5.583  20.119  14.352  1.00  0.00     0.031 C 
HETATM   17  C15 UNL     1       6.481  21.090  15.037  1.00  0.00     0.235 C 
HETATM   18  N10 UNL     1       5.684  22.097  15.652  1.00  0.00    -0.046 N 
ATOM     19 2H10 UNL     1       5.954  23.037  15.362  1.00  0.00     0.279 HD
ATOM     20 1H10 UNL     1       5.882  22.193  16.648  1.00  0.00     0.279 HD
ENDBRANCH  11  14
ENDBRANCH  10  11
ENDBRANCH   9  10
ENDBRANCH   7   9
ENDBRANCH   5   7
ENDBRANCH   3   5
ENDBRANCH   2   3
ENDBRANCH   1   2
BRANCH   1  21
HETATM   21  N4  UNL     1      -1.807  14.671  17.565  1.00  0.00    -0.200 N 
HETATM   22  C8  UNL     1      -1.954  14.652  16.123  1.00  0.00     0.690 C 
HETATM   23  N5  UNL     1      -1.575  13.612  15.500  1.00  0.00    -0.233 N 
HETATM   24  N6  UNL     1      -2.505  15.779  15.502  1.00  0.00    -0.131 N 
ATOM     25  H52 UNL     1      -1.174  12.791  15.952  1.00  0.00     0.174 HD
ATOM     26  H51 UNL     1      -1.678  13.599  14.485  1.00  0.00     0.174 HD
ATOM     27  H6  UNL     1      -3.317  15.667  14.894  1.00  0.00     0.205 HD
ATOM     28  H4  UNL     1      -2.533  14.304  18.181  1.00  0.00     0.183 HD
BRANCH  24  29
HETATM   29  N7  UNL     1      -1.970  17.051  15.695  1.00  0.00    -0.273 N 
HETATM   30  C9  UNL     1      -2.666  18.066  16.052  1.00  0.00     0.124 C 
HETATM   31  N8  UNL     1      -4.035  18.277  16.348  1.00  0.00    -0.374 N 
HETATM   32  C11 UNL     1      -2.417  19.498  16.332  1.00  0.00     0.269 C 
HETATM   33  C10 UNL     1      -3.865  19.668  15.985  1.00  0.00     0.162 C 
ATOM     34  H8  UNL     1      -4.809  17.697  16.675  1.00  0.00     0.160 HD
ATOM     35  H7  UNL     1      -0.970  17.181  15.544  1.00  0.00     0.189 HD
BRANCH  32  36
HETATM   36  N9  UNL     1      -2.067  19.702  17.724  1.00  0.00    -0.067 N 
ATOM     37  H93 UNL     1      -2.619  19.106  18.341  1.00  0.00     0.275 HD
ATOM     38  H92 UNL     1      -1.141  19.332  17.936  1.00  0.00     0.275 HD
ATOM     39  H91 UNL     1      -2.147  20.686  17.981  1.00  0.00     0.275 HD
ENDBRANCH  32  36
ENDBRANCH  24  29
ENDBRANCH   1  21
TORSDOF 11
ENDMDL
MODEL 4
REMARK VINA RESULT: -6.360813745      0.856      1.812
REMARK  11 active torsions:
REMARK  status: ('A' for Active; 'I' for Inactive)
REMARK    1  A    between atoms: N1_2  and  C3_4 
REMARK    2  A    between atoms: N1_2  and  C12_33 
REMARK    3  A    between atoms: C3_4  and  C4_5 
REMARK    4  A    between atoms: C4_5  and  N2_6 
REMARK    5  A    between atoms: N2_6  and  C5_8 
REMARK    6  A    between atoms: C5_8  and  N3_10 
REMARK    7  A    between atoms: N3_10  and  C6_12 
REMARK    8  A    between atoms: C6_12  and  C7_13 
REMARK    9  A    between atoms: C7_13  and  N4_14 
REMARK       I    between atoms: N4_14  and  C8_16 
REMARK       I    between atoms: C8_16  and  N6_20 
REMARK   10  A    between atoms: N6_20  and  N7_22 
REMARK   11  A    between atoms: C11_28  and  N9_29 
ROOT
HETATM    1  C7  UNL     1      -2.808  16.600  16.119  1.00  0.00     0.123 C 
ENDROOT
BRANCH   1   2
HETATM    2  C6  UNL     1      -2.321  17.815  16.781  1.00  0.00     0.108 C 
BRANCH   2   3
HETATM    3  N3  UNL     1      -1.184  18.449  16.242  1.00  0.00    -0.342 N 
ATOM      4  H3  UNL     1      -1.290  18.738  15.269  1.00  0.00     0.167 HD
BRANCH   3   5
HETATM    5  C5  UNL     1       0.050  18.752  16.791  1.00  0.00     0.171 C 
HETATM    6  S1  UNL     1       0.519  18.450  18.346  1.00  0.00    -0.041 SA
BRANCH   5   7
HETATM    7  N2  UNL     1       1.016  19.474  16.011  1.00  0.00    -0.365 N 
ATOM      8  H2  UNL     1       1.275  19.147  15.080  1.00  0.00     0.161 HD
BRANCH   7   9
HETATM    9  C4  UNL     1       1.608  20.655  16.551  1.00  0.00     0.150 C 
BRANCH   9  10
HETATM   10  C3  UNL     1       3.085  20.651  16.697  1.00  0.00     0.258 C 
BRANCH  10  11
HETATM   11  N1  UNL     1       3.865  21.483  15.863  1.00  0.00    -0.044 N 
HETATM   12  C1  UNL     1       3.234  22.518  15.137  1.00  0.00     0.274 C 
HETATM   13  C2  UNL     1       4.412  20.571  14.818  1.00  0.00     0.274 C 
BRANCH  11  14
HETATM   14  C12 UNL     1       5.056  21.888  16.579  1.00  0.00     0.386 C 
HETATM   15  C13 UNL     1       4.942  22.025  18.034  1.00  0.00     0.065 C 
HETATM   16  C14 UNL     1       4.891  23.483  18.329  1.00  0.00     0.031 C 
HETATM   17  C15 UNL     1       5.513  24.108  17.128  1.00  0.00     0.235 C 
HETATM   18  N10 UNL     1       5.598  23.132  16.095  1.00  0.00    -0.046 N 
ATOM     19 2H10 UNL     1       6.547  23.029  15.735  1.00  0.00     0.279 HD
ATOM     20 1H10 UNL     1       5.151  23.441  15.231  1.00  0.00     0.279 HD
ENDBRANCH  11  14
ENDBRANCH  10  11
ENDBRANCH   9  10
ENDBRANCH   7   9
ENDBRANCH   5   7
ENDBRANCH   3   5
ENDBRANCH   2   3
ENDBRANCH   1   2
BRANCH   1  21
HETATM   21  N4  UNL     1      -2.007  15.769  15.330  1.00  0.00    -0.200 N 
HETATM   22  C8  UNL     1      -2.414  14.382  15.219  1.00  0.00     0.690 C 
HETATM   23  N5  UNL     1      -3.165  14.058  14.247  1.00  0.00    -0.233 N 
HETATM   24  N6  UNL     1      -1.954  13.480  16.186  1.00  0.00    -0.131 N 
ATOM     25  H52 UNL     1      -3.500  14.714  13.543  1.00  0.00     0.174 HD
ATOM     26  H51 UNL     1      -3.451  13.082  14.169  1.00  0.00     0.174 HD
ATOM     27  H6  UNL     1      -1.458  12.639  15.888  1.00  0.00     0.205 HD
ATOM     28  H4  UNL     1      -1.175  16.121  14.856  1.00  0.00     0.183 HD
BRANCH  24  29
HETATM   29  N7  UNL     1      -2.158  13.705  17.546  1.00  0.00    -0.273 N 
HETATM   30  C9  UNL     1      -1.288  14.249  18.312  1.00  0.00     0.124 C 
HETATM   31  N8  UNL     1       0.020  14.760  18.124  1.00  0.00    -0.374 N 
HETATM   32  C11 UNL     1      -1.192  14.616  19.744  1.00  0.00     0.269 C 
HETATM   33  C10 UNL     1       0.286  14.502  19.524  1.00  0.00     0.162 C 
ATOM     34  H8  UNL     1       0.548  15.145  17.340  1.00  0.00     0.160 HD
ATOM     35  H7  UNL     1      -3.049  13.420  17.953  1.00  0.00     0.189 HD
BRANCH  32  36
HETATM   36  N9  UNL     1      -1.701  15.953  19.972  1.00  0.00    -0.067 N 
ATOM     37  H93 UNL     1      -1.119  16.470  20.631  1.00  0.00     0.275 HD
ATOM     38  H92 UNL     1      -1.574  16.548  19.153  1.00  0.00     0.275 HD
ATOM     39  H91 UNL     1      -2.676  15.927  20.271  1.00  0.00     0.275 HD
ENDBRANCH  32  36
ENDBRANCH  24  29
ENDBRANCH   1  21
TORSDOF 11
ENDMDL
MODEL 5
REMARK VINA RESULT: -6.342833186      1.824      3.859
REMARK  11 active torsions:
REMARK  status: ('A' for Active; 'I' for Inactive)
REMARK    1  A    between atoms: N1_2  and  C3_4 
REMARK    2  A    between atoms: N1_2  and  C12_33 
REMARK    3  A    between atoms: C3_4  and  C4_5 
REMARK    4  A    between atoms: C4_5  and  N2_6 
REMARK    5  A    between atoms: N2_6  and  C5_8 
REMARK    6  A    between atoms: C5_8  and  N3_10 
REMARK    7  A    between atoms: N3_10  and  C6_12 
REMARK    8  A    between atoms: C6_12  and  C7_13 
REMARK    9  A    between atoms: C7_13  and  N4_14 
REMARK       I    between atoms: N4_14  and  C8_16 
REMARK       I    between atoms: C8_16  and  N6_20 
REMARK   10  A    between atoms: N6_20  and  N7_22 
REMARK   11  A    between atoms: C11_28  and  N9_29 
ROOT
HETATM    1  C7  UNL     1      -0.486  13.905  17.557  1.00  0.00     0.123 C 
ENDROOT
BRANCH   1   2
HETATM    2  C6  UNL     1       0.038  13.804  18.923  1.00  0.00     0.108 C 
BRANCH   2   3
HETATM    3  N3  UNL     1       0.190  14.995  19.661  1.00  0.00    -0.342 N 
ATOM      4  H3  UNL     1       0.718  14.884  20.527  1.00  0.00     0.167 HD
BRANCH   3   5
HETATM    5  C5  UNL     1      -0.245  16.288  19.425  1.00  0.00     0.171 C 
HETATM    6  S1  UNL     1      -1.736  16.892  19.802  1.00  0.00    -0.041 SA
BRANCH   5   7
HETATM    7  N2  UNL     1       0.601  17.202  18.710  1.00  0.00    -0.365 N 
ATOM      8  H2  UNL     1       0.695  17.133  17.697  1.00  0.00     0.161 HD
BRANCH   7   9
HETATM    9  C4  UNL     1       1.310  18.207  19.433  1.00  0.00     0.150 C 
BRANCH   9  10
HETATM   10  C3  UNL     1       2.349  18.957  18.685  1.00  0.00     0.258 C 
BRANCH  10  11
HETATM   11  N1  UNL     1       2.423  20.361  18.821  1.00  0.00    -0.044 N 
HETATM   12  C1  UNL     1       3.540  20.933  19.471  1.00  0.00     0.274 C 
HETATM   13  C2  UNL     1       1.261  20.724  19.681  1.00  0.00     0.274 C 
BRANCH  11  14
HETATM   14  C12 UNL     1       2.080  20.978  17.556  1.00  0.00     0.386 C 
HETATM   15  C13 UNL     1       2.108  20.119  16.369  1.00  0.00     0.065 C 
HETATM   16  C14 UNL     1       3.344  20.463  15.615  1.00  0.00     0.031 C 
HETATM   17  C15 UNL     1       3.677  21.835  16.089  1.00  0.00     0.235 C 
HETATM   18  N10 UNL     1       2.908  22.118  17.253  1.00  0.00    -0.046 N 
ATOM     19 2H10 UNL     1       2.367  22.978  17.163  1.00  0.00     0.279 HD
ATOM     20 1H10 UNL     1       3.489  22.398  18.043  1.00  0.00     0.279 HD
ENDBRANCH  11  14
ENDBRANCH  10  11
ENDBRANCH   9  10
ENDBRANCH   7   9
ENDBRANCH   5   7
ENDBRANCH   3   5
ENDBRANCH   2   3
ENDBRANCH   1   2
BRANCH   1  21
HETATM   21  N4  UNL     1      -1.835  13.741  17.227  1.00  0.00    -0.200 N 
HETATM   22  C8  UNL     1      -2.242  14.171  15.904  1.00  0.00     0.690 C 
HETATM   23  N5  UNL     1      -2.230  13.311  14.969  1.00  0.00    -0.233 N 
HETATM   24  N6  UNL     1      -2.627  15.507  15.733  1.00  0.00    -0.131 N 
ATOM     25  H52 UNL     1      -1.950  12.339  15.092  1.00  0.00     0.174 HD
ATOM     26  H51 UNL     1      -2.516  13.614  14.038  1.00  0.00     0.174 HD
ATOM     27  H6  UNL     1      -3.540  15.715  15.328  1.00  0.00     0.205 HD
ATOM     28  H4  UNL     1      -2.501  13.338  17.887  1.00  0.00     0.183 HD
BRANCH  24  29
HETATM   29  N7  UNL     1      -1.791  16.557  16.105  1.00  0.00    -0.273 N 
HETATM   30  C9  UNL     1      -2.145  17.788  16.079  1.00  0.00     0.124 C 
HETATM   31  N8  UNL     1      -3.334  18.472  15.723  1.00  0.00    -0.374 N 
HETATM   32  C11 UNL     1      -1.525  19.095  16.395  1.00  0.00     0.269 C 
HETATM   33  C10 UNL     1      -2.533  19.642  15.431  1.00  0.00     0.162 C 
ATOM     34  H8  UNL     1      -4.327  18.239  15.687  1.00  0.00     0.160 HD
ATOM     35  H7  UNL     1      -0.845  16.334  16.414  1.00  0.00     0.189 HD
BRANCH  32  36
HETATM   36  N9  UNL     1      -1.724  19.440  17.788  1.00  0.00    -0.067 N 
ATOM     37  H93 UNL     1      -2.714  19.490  18.026  1.00  0.00     0.275 HD
ATOM     38  H92 UNL     1      -1.453  18.676  18.407  1.00  0.00     0.275 HD
ATOM     39  H91 UNL     1      -1.237  20.306  18.023  1.00  0.00     0.275 HD
ENDBRANCH  32  36
ENDBRANCH  24  29
ENDBRANCH   1  21
TORSDOF 11
ENDMDL
