MODEL 1
REMARK VINA RESULT: -7.796423499      0.000      0.000
REMARK  6 active torsions:
REMARK  status: ('A' for Active; 'I' for Inactive)
REMARK       I    between atoms: C1_4  and  N2_5 
REMARK       I    between atoms: C1_4  and  N6_26 
REMARK    1  A    between atoms: N2_5  and  C2_7 
REMARK    2  A    between atoms: C2_7  and  C3_8 
REMARK    3  A    between atoms: C6_11  and  N3_12 
REMARK       I    between atoms: N3_12  and  C7_14 
REMARK       I    between atoms: C7_14  and  N4_16 
REMARK    4  A    between atoms: N4_16  and  C8_18 
REMARK    5  A    between atoms: C8_18  and  C9_19 
REMARK    6  A    between atoms: C13_29  and  C14_30 
ROOT
HETATM    1  C3  UNL     1       1.915  20.629  16.979  1.00  0.00     0.103 C 
HETATM    2  C4  UNL     1       0.575  21.063  17.471  1.00  0.00     0.029 C 
HETATM    3  C5  UNL     1       0.252  20.666  18.880  1.00  0.00     0.037 C 
HETATM    4  C6  UNL     1       0.797  19.285  19.237  1.00  0.00     0.178 C 
HETATM    5  C10 UNL     1       2.262  19.363  19.049  1.00  0.00     0.240 C 
HETATM    6  O4  UNL     1       3.048  18.645  19.701  1.00  0.00    -0.271 OA
HETATM    7  N5  UNL     1       2.776  20.278  18.100  1.00  0.00    -0.353 N 
ATOM      8  H5  UNL     1       3.710  20.675  18.198  1.00  0.00     0.163 HD
ENDROOT
BRANCH   1   9
HETATM    9  C2  UNL     1       2.621  21.695  16.178  1.00  0.00     0.163 C 
BRANCH   9  10
HETATM   10  N2  UNL     1       3.928  22.002  16.725  1.00  0.00    -0.225 N 
HETATM   11  C1  UNL     1       5.011  22.236  15.842  1.00  0.00     0.669 C 
HETATM   12  N1  UNL     1       5.855  23.161  16.111  1.00  0.00    -0.235 N 
HETATM   13  N6  UNL     1       5.160  21.460  14.676  1.00  0.00    -0.218 N 
ATOM     14  H12 UNL     1       5.747  23.723  16.956  1.00  0.00     0.174 HD
ATOM     15  H11 UNL     1       6.635  23.329  15.475  1.00  0.00     0.174 HD
HETATM   16  C11 UNL     1       5.679  20.102  14.646  1.00  0.00     0.142 C 
HETATM   17  C15 UNL     1       4.859  21.782  13.297  1.00  0.00     0.155 C 
HETATM   18  C12 UNL     1       6.601  20.148  13.446  1.00  0.00     0.036 C 
HETATM   19  C13 UNL     1       5.759  20.934  12.445  1.00  0.00     0.095 C 
ATOM     20  H2  UNL     1       4.066  22.049  17.735  1.00  0.00     0.177 HD
BRANCH  19  21
HETATM   21  C14 UNL     1       6.697  21.732  11.634  1.00  0.00     0.236 C 
HETATM   22  N7  UNL     1       6.202  22.748  10.794  1.00  0.00    -0.062 NA
HETATM   23  O5  UNL     1       7.921  21.497  11.701  1.00  0.00    -0.276 OA
ENDBRANCH  19  21
ENDBRANCH   9  10
ENDBRANCH   1   9
BRANCH   4  24
HETATM   24  N3  UNL     1       0.204  18.244  18.440  1.00  0.00    -0.330 N 
HETATM   25  C7  UNL     1       0.040  16.937  18.966  1.00  0.00     0.317 C 
HETATM   26  O1  UNL     1       0.420  16.694  20.142  1.00  0.00    -0.247 OA
HETATM   27  N4  UNL     1      -0.551  15.941  18.141  1.00  0.00    -0.333 N 
ATOM     28  H4  UNL     1      -0.857  16.172  17.195  1.00  0.00     0.164 HD
ATOM     29  H3  UNL     1      -0.102  18.448  17.488  1.00  0.00     0.165 HD
BRANCH  27  30
HETATM   30  C8  UNL     1      -0.714  14.606  18.649  1.00  0.00     0.237 C 
BRANCH  30  31
HETATM   31  C9  UNL     1      -0.995  13.676  17.557  1.00  0.00     0.191 C 
HETATM   32  O2  UNL     1      -2.122  13.513  17.046  1.00  0.00    -0.647 OA
HETATM   33  O3  UNL     1       0.083  12.923  17.058  1.00  0.00    -0.647 OA
ENDBRANCH  30  31
ENDBRANCH  27  30
ENDBRANCH   4  24
TORSDOF 6
ENDMDL
MODEL 2
REMARK VINA RESULT: -7.549360760      1.177      1.266
REMARK  6 active torsions:
REMARK  status: ('A' for Active; 'I' for Inactive)
REMARK       I    between atoms: C1_4  and  N2_5 
REMARK       I    between atoms: C1_4  and  N6_26 
REMARK    1  A    between atoms: N2_5  and  C2_7 
REMARK    2  A    between atoms: C2_7  and  C3_8 
REMARK    3  A    between atoms: C6_11  and  N3_12 
REMARK       I    between atoms: N3_12  and  C7_14 
REMARK       I    between atoms: C7_14  and  N4_16 
REMARK    4  A    between atoms: N4_16  and  C8_18 
REMARK    5  A    between atoms: C8_18  and  C9_19 
REMARK    6  A    between atoms: C13_29  and  C14_30 
ROOT
HETATM    1  C3  UNL     1       1.818  20.701  17.201  1.00  0.00     0.103 C 
HETATM    2  C4  UNL     1       0.372  21.025  17.378  1.00  0.00     0.029 C 
HETATM    3  C5  UNL     1      -0.300  20.337  18.527  1.00  0.00     0.037 C 
HETATM    4  C6  UNL     1       0.203  18.909  18.730  1.00  0.00     0.178 C 
HETATM    5  C10 UNL     1       1.657  19.020  18.978  1.00  0.00     0.240 C 
HETATM    6  O4  UNL     1       2.273  18.177  19.660  1.00  0.00    -0.271 OA
HETATM    7  N5  UNL     1       2.358  20.115  18.421  1.00  0.00    -0.353 N 
ATOM      8  H5  UNL     1       3.206  20.479  18.855  1.00  0.00     0.163 HD
ENDROOT
BRANCH   1   9
HETATM    9  C2  UNL     1       2.655  21.911  16.867  1.00  0.00     0.163 C 
BRANCH   9  10
HETATM   10  N2  UNL     1       4.004  21.792  17.384  1.00  0.00    -0.225 N 
HETATM   11  C1  UNL     1       5.101  21.976  16.507  1.00  0.00     0.669 C 
HETATM   12  N1  UNL     1       6.137  22.608  16.918  1.00  0.00    -0.235 N 
HETATM   13  N6  UNL     1       5.056  21.471  15.193  1.00  0.00    -0.218 N 
ATOM     14  H12 UNL     1       6.170  22.974  17.870  1.00  0.00     0.174 HD
ATOM     15  H11 UNL     1       6.927  22.740  16.286  1.00  0.00     0.174 HD
HETATM   16  C11 UNL     1       5.251  20.076  14.836  1.00  0.00     0.142 C 
HETATM   17  C15 UNL     1       4.820  22.155  13.939  1.00  0.00     0.155 C 
HETATM   18  C12 UNL     1       6.144  20.189  13.619  1.00  0.00     0.036 C 
HETATM   19  C13 UNL     1       5.492  21.346  12.867  1.00  0.00     0.095 C 
ATOM     20  H2  UNL     1       4.161  21.578  18.369  1.00  0.00     0.177 HD
BRANCH  19  21
HETATM   21  C14 UNL     1       6.577  22.081  12.193  1.00  0.00     0.236 C 
HETATM   22  N7  UNL     1       6.367  22.608  10.904  1.00  0.00    -0.062 NA
HETATM   23  O5  UNL     1       7.672  22.228  12.773  1.00  0.00    -0.276 OA
ENDBRANCH  19  21
ENDBRANCH   9  10
ENDBRANCH   1   9
BRANCH   4  24
HETATM   24  N3  UNL     1      -0.090  18.065  17.602  1.00  0.00    -0.330 N 
HETATM   25  C7  UNL     1      -1.184  17.162  17.642  1.00  0.00     0.317 C 
HETATM   26  O1  UNL     1      -1.899  17.105  18.677  1.00  0.00    -0.247 OA
HETATM   27  N4  UNL     1      -1.435  16.347  16.503  1.00  0.00    -0.333 N 
ATOM     28  H4  UNL     1      -0.843  16.424  15.676  1.00  0.00     0.164 HD
ATOM     29  H3  UNL     1       0.492  18.117  16.766  1.00  0.00     0.165 HD
BRANCH  27  30
HETATM   30  C8  UNL     1      -2.529  15.416  16.527  1.00  0.00     0.237 C 
BRANCH  30  31
HETATM   31  C9  UNL     1      -2.031  14.043  16.457  1.00  0.00     0.191 C 
HETATM   32  O2  UNL     1      -1.704  13.468  15.399  1.00  0.00    -0.647 OA
HETATM   33  O3  UNL     1      -1.917  13.336  17.668  1.00  0.00    -0.647 OA
ENDBRANCH  30  31
ENDBRANCH  27  30
ENDBRANCH   4  24
TORSDOF 6
ENDMDL
MODEL 3
REMARK VINA RESULT: -7.482723866      1.295      1.341
REMARK  6 active torsions:
REMARK  status: ('A' for Active; 'I' for Inactive)
REMARK       I    between atoms: C1_4  and  N2_5 
REMARK       I    between atoms: C1_4  and  N6_26 
REMARK    1  A    between atoms: N2_5  and  C2_7 
REMARK    2  A    between atoms: C2_7  and  C3_8 
REMARK    3  A    between atoms: C6_11  and  N3_12 
REMARK       I    between atoms: N3_12  and  C7_14 
REMARK       I    between atoms: C7_14  and  N4_16 
REMARK    4  A    between atoms: N4_16  and  C8_18 
REMARK    5  A    between atoms: C8_18  and  C9_19 
REMARK    6  A    between atoms: C13_29  and  C14_30 
ROOT
HETATM    1  C3  UNL     1       1.672  20.776  16.396  1.00  0.00     0.103 C 
HETATM    2  C4  UNL     1       0.240  21.061  16.700  1.00  0.00     0.029 C 
HETATM    3  C5  UNL     1      -0.266  20.487  17.989  1.00  0.00     0.037 C 
HETATM    4  C6  UNL     1       0.330  19.114  18.291  1.00  0.00     0.178 C 
HETATM    5  C10 UNL     1       1.795  19.310  18.357  1.00  0.00     0.240 C 
HETATM    6  O4  UNL     1       2.525  18.578  19.055  1.00  0.00    -0.271 OA
HETATM    7  N5  UNL     1       2.372  20.358  17.604  1.00  0.00    -0.353 N 
ATOM      8  H5  UNL     1       3.243  20.804  17.894  1.00  0.00     0.163 HD
ENDROOT
BRANCH   1   9
HETATM    9  C2  UNL     1       2.404  21.969  15.835  1.00  0.00     0.163 C 
BRANCH   9  10
HETATM   10  N2  UNL     1       3.667  22.193  16.509  1.00  0.00    -0.225 N 
HETATM   11  C1  UNL     1       4.849  22.324  15.739  1.00  0.00     0.669 C 
HETATM   12  N1  UNL     1       5.729  23.191  16.078  1.00  0.00    -0.235 N 
HETATM   13  N6  UNL     1       5.058  21.510  14.609  1.00  0.00    -0.218 N 
ATOM     14  H12 UNL     1       5.578  23.781  16.897  1.00  0.00     0.174 HD
ATOM     15  H11 UNL     1       6.580  23.286  15.524  1.00  0.00     0.174 HD
HETATM   16  C11 UNL     1       5.473  20.118  14.656  1.00  0.00     0.142 C 
HETATM   17  C15 UNL     1       4.925  21.820  13.200  1.00  0.00     0.155 C 
HETATM   18  C12 UNL     1       6.513  20.066  13.557  1.00  0.00     0.036 C 
HETATM   19  C13 UNL     1       5.840  20.886  12.461  1.00  0.00     0.095 C 
ATOM     20  H2  UNL     1       3.704  22.255  17.526  1.00  0.00     0.177 HD
BRANCH  19  21
HETATM   21  C14 UNL     1       6.914  21.593  11.738  1.00  0.00     0.236 C 
HETATM   22  N7  UNL     1       8.260  21.321  12.048  1.00  0.00    -0.062 NA
HETATM   23  O5  UNL     1       6.616  22.426  10.858  1.00  0.00    -0.276 OA
ENDBRANCH  19  21
ENDBRANCH   9  10
ENDBRANCH   1   9
BRANCH   4  24
HETATM   24  N3  UNL     1      -0.041  18.132  17.306  1.00  0.00    -0.330 N 
HETATM   25  C7  UNL     1      -1.117  17.240  17.547  1.00  0.00     0.317 C 
HETATM   26  O1  UNL     1      -1.749  17.314  18.634  1.00  0.00    -0.247 OA
HETATM   27  N4  UNL     1      -1.447  16.286  16.545  1.00  0.00    -0.333 N 
ATOM     28  H4  UNL     1      -0.922  16.257  15.671  1.00  0.00     0.164 HD
ATOM     29  H3  UNL     1       0.475  18.077  16.428  1.00  0.00     0.165 HD
BRANCH  27  30
HETATM   30  C8  UNL     1      -2.525  15.363  16.773  1.00  0.00     0.237 C 
BRANCH  30  31
HETATM   31  C9  UNL     1      -2.037  13.987  16.720  1.00  0.00     0.191 C 
HETATM   32  O2  UNL     1      -1.877  13.260  17.722  1.00  0.00    -0.647 OA
HETATM   33  O3  UNL     1      -1.733  13.459  15.453  1.00  0.00    -0.647 OA
ENDBRANCH  30  31
ENDBRANCH  27  30
ENDBRANCH   4  24
TORSDOF 6
ENDMDL
MODEL 4
REMARK VINA RESULT: -7.230050608      1.505      1.779
REMARK  6 active torsions:
REMARK  status: ('A' for Active; 'I' for Inactive)
REMARK       I    between atoms: C1_4  and  N2_5 
REMARK       I    between atoms: C1_4  and  N6_26 
REMARK    1  A    between atoms: N2_5  and  C2_7 
REMARK    2  A    between atoms: C2_7  and  C3_8 
REMARK    3  A    between atoms: C6_11  and  N3_12 
REMARK       I    between atoms: N3_12  and  C7_14 
REMARK       I    between atoms: C7_14  and  N4_16 
REMARK    4  A    between atoms: N4_16  and  C8_18 
REMARK    5  A    between atoms: C8_18  and  C9_19 
REMARK    6  A    between atoms: C13_29  and  C14_30 
ROOT
HETATM    1  C3  UNL     1       1.716  20.821  17.759  1.00  0.00     0.103 C 
HETATM    2  C4  UNL     1       1.016  20.313  16.543  1.00  0.00     0.029 C 
HETATM    3  C5  UNL     1      -0.427  19.958  16.738  1.00  0.00     0.037 C 
HETATM    4  C6  UNL     1      -0.695  19.329  18.104  1.00  0.00     0.178 C 
HETATM    5  C10 UNL     1      -0.274  20.333  19.106  1.00  0.00     0.240 C 
HETATM    6  O4  UNL     1      -0.792  20.389  20.239  1.00  0.00    -0.271 OA
HETATM    7  N5  UNL     1       0.746  21.250  18.758  1.00  0.00    -0.353 N 
ATOM      8  H5  UNL     1       0.800  22.172  19.190  1.00  0.00     0.163 HD
ENDROOT
BRANCH   1   9
HETATM    9  C2  UNL     1       2.621  21.993  17.471  1.00  0.00     0.163 C 
BRANCH   9  10
HETATM   10  N2  UNL     1       4.003  21.699  17.794  1.00  0.00    -0.225 N 
HETATM   11  C1  UNL     1       5.007  21.934  16.823  1.00  0.00     0.669 C 
HETATM   12  N1  UNL     1       6.135  22.419  17.188  1.00  0.00    -0.235 N 
HETATM   13  N6  UNL     1       4.769  21.640  15.466  1.00  0.00    -0.218 N 
ATOM     14  H12 UNL     1       6.307  22.633  18.170  1.00  0.00     0.174 HD
ATOM     15  H11 UNL     1       6.858  22.589  16.488  1.00  0.00     0.174 HD
HETATM   16  C11 UNL     1       4.797  20.305  14.892  1.00  0.00     0.142 C 
HETATM   17  C15 UNL     1       4.457  22.522  14.362  1.00  0.00     0.155 C 
HETATM   18  C12 UNL     1       5.555  20.537  13.602  1.00  0.00     0.036 C 
HETATM   19  C13 UNL     1       4.929  21.839  13.110  1.00  0.00     0.095 C 
ATOM     20  H2  UNL     1       4.249  21.327  18.711  1.00  0.00     0.177 HD
BRANCH  19  21
HETATM   21  C14 UNL     1       5.994  22.588  12.418  1.00  0.00     0.236 C 
HETATM   22  N7  UNL     1       6.388  22.203  11.122  1.00  0.00    -0.062 NA
HETATM   23  O5  UNL     1       6.535  23.556  12.990  1.00  0.00    -0.276 OA
ENDBRANCH  19  21
ENDBRANCH   9  10
ENDBRANCH   1   9
BRANCH   4  24
HETATM   24  N3  UNL     1      -0.005  18.077  18.270  1.00  0.00    -0.330 N 
HETATM   25  C7  UNL     1      -0.729  16.880  18.506  1.00  0.00     0.317 C 
HETATM   26  O1  UNL     1      -1.986  16.922  18.569  1.00  0.00    -0.247 OA
HETATM   27  N4  UNL     1      -0.004  15.667  18.665  1.00  0.00    -0.333 N 
ATOM     28  H4  UNL     1       1.014  15.664  18.599  1.00  0.00     0.164 HD
ATOM     29  H3  UNL     1       1.014  18.050  18.217  1.00  0.00     0.165 HD
BRANCH  27  30
HETATM   30  C8  UNL     1      -0.717  14.445  18.918  1.00  0.00     0.237 C 
BRANCH  30  31
HETATM   31  C9  UNL     1      -0.893  13.692  17.678  1.00  0.00     0.191 C 
HETATM   32  O2  UNL     1       0.024  13.081  17.091  1.00  0.00    -0.647 OA
HETATM   33  O3  UNL     1      -2.184  13.660  17.121  1.00  0.00    -0.647 OA
ENDBRANCH  30  31
ENDBRANCH  27  30
ENDBRANCH   4  24
TORSDOF 6
ENDMDL
MODEL 5
REMARK VINA RESULT: -7.123200454      1.785      2.201
REMARK  6 active torsions:
REMARK  status: ('A' for Active; 'I' for Inactive)
REMARK       I    between atoms: C1_4  and  N2_5 
REMARK       I    between atoms: C1_4  and  N6_26 
REMARK    1  A    between atoms: N2_5  and  C2_7 
REMARK    2  A    between atoms: C2_7  and  C3_8 
REMARK    3  A    between atoms: C6_11  and  N3_12 
REMARK       I    between atoms: N3_12  and  C7_14 
REMARK       I    between atoms: C7_14  and  N4_16 
REMARK    4  A    between atoms: N4_16  and  C8_18 
REMARK    5  A    between atoms: C8_18  and  C9_19 
REMARK    6  A    between atoms: C13_29  and  C14_30 
ROOT
HETATM    1  C3  UNL     1       1.525  20.007  17.759  1.00  0.00     0.103 C 
HETATM    2  C4  UNL     1       0.178  20.645  17.692  1.00  0.00     0.029 C 
HETATM    3  C5  UNL     1      -0.859  20.043  18.591  1.00  0.00     0.037 C 
HETATM    4  C6  UNL     1      -0.726  18.526  18.703  1.00  0.00     0.178 C 
HETATM    5  C10 UNL     1       0.628  18.272  19.241  1.00  0.00     0.240 C 
HETATM    6  O4  UNL     1       0.888  17.256  19.917  1.00  0.00    -0.271 OA
HETATM    7  N5  UNL     1       1.650  19.214  18.975  1.00  0.00    -0.353 N 
ATOM      8  H5  UNL     1       2.440  19.333  19.609  1.00  0.00     0.163 HD
ENDROOT
BRANCH   1   9
HETATM    9  C2  UNL     1       2.652  21.009  17.752  1.00  0.00     0.163 C 
BRANCH   9  10
HETATM   10  N2  UNL     1       2.291  22.222  17.045  1.00  0.00    -0.225 N 
HETATM   11  C1  UNL     1       2.665  22.369  15.686  1.00  0.00     0.669 C 
HETATM   12  N1  UNL     1       1.846  22.911  14.863  1.00  0.00    -0.235 N 
HETATM   13  N6  UNL     1       3.925  21.924  15.241  1.00  0.00    -0.218 N 
ATOM     14  H12 UNL     1       0.934  23.233  15.186  1.00  0.00     0.174 HD
ATOM     15  H11 UNL     1       2.115  23.017  13.885  1.00  0.00     0.174 HD
HETATM   16  C11 UNL     1       5.177  22.628  15.462  1.00  0.00     0.142 C 
HETATM   17  C15 UNL     1       4.283  20.734  14.499  1.00  0.00     0.155 C 
HETATM   18  C12 UNL     1       5.846  22.503  14.111  1.00  0.00     0.036 C 
HETATM   19  C13 UNL     1       5.550  21.049  13.756  1.00  0.00     0.095 C 
ATOM     20  H2  UNL     1       1.774  22.961  17.521  1.00  0.00     0.177 HD
BRANCH  19  21
HETATM   21  C14 UNL     1       5.383  20.993  12.292  1.00  0.00     0.236 C 
HETATM   22  N7  UNL     1       4.143  21.334  11.718  1.00  0.00    -0.062 NA
HETATM   23  O5  UNL     1       6.344  20.642  11.577  1.00  0.00    -0.276 OA
ENDBRANCH  19  21
ENDBRANCH   9  10
ENDBRANCH   1   9
BRANCH   4  24
HETATM   24  N3  UNL     1      -0.939  17.868  17.441  1.00  0.00    -0.330 N 
HETATM   25  C7  UNL     1      -1.746  16.704  17.361  1.00  0.00     0.317 C 
HETATM   26  O1  UNL     1      -2.277  16.249  18.409  1.00  0.00    -0.247 OA
HETATM   27  N4  UNL     1      -1.927  16.087  16.093  1.00  0.00    -0.333 N 
ATOM     28  H4  UNL     1      -1.490  16.485  15.261  1.00  0.00     0.164 HD
ATOM     29  H3  UNL     1      -0.506  18.241  16.596  1.00  0.00     0.165 HD
BRANCH  27  30
HETATM   30  C8  UNL     1      -2.729  14.899  15.991  1.00  0.00     0.237 C 
BRANCH  30  31
HETATM   31  C9  UNL     1      -1.892  13.744  15.674  1.00  0.00     0.191 C 
HETATM   32  O2  UNL     1      -1.934  13.122  14.593  1.00  0.00    -0.647 OA
HETATM   33  O3  UNL     1      -0.984  13.317  16.659  1.00  0.00    -0.647 OA
ENDBRANCH  30  31
ENDBRANCH  27  30
ENDBRANCH   4  24
TORSDOF 6
ENDMDL
