MODEL 1
REMARK VINA RESULT: -8.078616053      0.000      0.000
REMARK  9 active torsions:
REMARK  status: ('A' for Active; 'I' for Inactive)
REMARK    1  A    between atoms: C2_2  and  C3_3 
REMARK    2  A    between atoms: C3_3  and  C4_4 
REMARK    3  A    between atoms: C4_4  and  C5_5 
REMARK    4  A    between atoms: C5_5  and  C6_6 
REMARK    5  A    between atoms: C6_6  and  N1_7 
REMARK    6  A    between atoms: N1_7  and  C7_8 
REMARK    7  A    between atoms: C7_8  and  C8_9 
REMARK    8  A    between atoms: C8_9  and  N2_10 
REMARK       I    between atoms: N2_10  and  C9_12 
REMARK    9  A    between atoms: C9_12  and  C10_14 
ROOT
HETATM    1  C7  UNL     1      56.468  15.403  51.577  1.00  0.00     0.257 C 
ENDROOT
BRANCH   1   2
HETATM    2  N1  UNL     1      56.262  14.217  52.428  1.00  0.00    -0.066 N 
HETATM    3  C16 UNL     1      54.894  13.819  52.416  1.00  0.00     0.237 C 
HETATM    4  C17 UNL     1      54.768  12.539  51.627  1.00  0.00     0.029 C 
HETATM    5  C18 UNL     1      56.162  12.112  51.309  1.00  0.00     0.029 C 
HETATM    6  C19 UNL     1      57.068  13.125  51.921  1.00  0.00     0.237 C 
BRANCH   2   7
HETATM    7  C6  UNL     1      56.803  14.582  53.703  1.00  0.00     0.237 C 
BRANCH   7   8
HETATM    8  C5  UNL     1      55.942  14.300  54.889  1.00  0.00     0.028 C 
BRANCH   8   9
HETATM    9  C4  UNL     1      55.685  15.627  55.580  1.00  0.00     0.002 C 
BRANCH   9  10
HETATM   10  C3  UNL     1      56.865  16.098  56.388  1.00  0.00    -0.000 C 
BRANCH  10  11
HETATM   11  C2  UNL     1      56.384  16.487  57.765  1.00  0.00    -0.005 C 
HETATM   12  C1  UNL     1      54.853  16.487  57.675  1.00  0.00     0.005 C 
ENDBRANCH  10  11
ENDBRANCH   9  10
ENDBRANCH   8   9
ENDBRANCH   7   8
ENDBRANCH   2   7
ENDBRANCH   1   2
BRANCH   1  13
HETATM   13  C8  UNL     1      55.581  16.540  51.951  1.00  0.00     0.150 C 
BRANCH  13  14
HETATM   14  N2  UNL     1      56.312  17.603  52.642  1.00  0.00    -0.359 N 
HETATM   15  C9  UNL     1      56.785  18.750  51.994  1.00  0.00     0.221 C 
HETATM   16  O1  UNL     1      56.623  18.967  50.751  1.00  0.00    -0.273 OA
ATOM     17  H2  UNL     1      56.485  17.504  53.642  1.00  0.00     0.162 HD
BRANCH  15  18
HETATM   18  C10 UNL     1      57.511  19.786  52.739  1.00  0.00     0.078 C 
HETATM   19  C11 UNL     1      57.760  19.436  54.175  1.00  0.00     0.014 C 
HETATM   20  C12 UNL     1      57.969  20.665  55.031  1.00  0.00     0.001 C 
HETATM   21  C13 UNL     1      58.629  21.782  54.253  1.00  0.00     0.000 C 
HETATM   22  C14 UNL     1      57.870  22.179  53.027  1.00  0.00     0.001 C 
HETATM   23  C15 UNL     1      56.826  21.131  52.705  1.00  0.00     0.014 C 
ENDBRANCH  15  18
ENDBRANCH  13  14
ENDBRANCH   1  13
TORSDOF 9
ENDMDL
MODEL 2
REMARK VINA RESULT: -7.949577370      2.002      3.796
REMARK  9 active torsions:
REMARK  status: ('A' for Active; 'I' for Inactive)
REMARK    1  A    between atoms: C2_2  and  C3_3 
REMARK    2  A    between atoms: C3_3  and  C4_4 
REMARK    3  A    between atoms: C4_4  and  C5_5 
REMARK    4  A    between atoms: C5_5  and  C6_6 
REMARK    5  A    between atoms: C6_6  and  N1_7 
REMARK    6  A    between atoms: N1_7  and  C7_8 
REMARK    7  A    between atoms: C7_8  and  C8_9 
REMARK    8  A    between atoms: C8_9  and  N2_10 
REMARK       I    between atoms: N2_10  and  C9_12 
REMARK    9  A    between atoms: C9_12  and  C10_14 
ROOT
HETATM    1  C7  UNL     1      55.828  15.320  52.226  1.00  0.00     0.257 C 
ENDROOT
BRANCH   1   2
HETATM    2  N1  UNL     1      55.916  13.872  52.489  1.00  0.00    -0.066 N 
HETATM    3  C16 UNL     1      55.780  13.603  53.881  1.00  0.00     0.237 C 
HETATM    4  C17 UNL     1      54.436  12.962  54.124  1.00  0.00     0.029 C 
HETATM    5  C18 UNL     1      53.848  12.717  52.774  1.00  0.00     0.029 C 
HETATM    6  C19 UNL     1      54.849  13.195  51.779  1.00  0.00     0.237 C 
BRANCH   2   7
HETATM    7  C6  UNL     1      57.148  13.464  51.883  1.00  0.00     0.237 C 
BRANCH   7   8
HETATM    8  C5  UNL     1      57.060  12.346  50.898  1.00  0.00     0.028 C 
BRANCH   8   9
HETATM    9  C4  UNL     1      58.148  11.350  51.256  1.00  0.00     0.002 C 
BRANCH   9  10
HETATM   10  C3  UNL     1      57.769  10.470  52.418  1.00  0.00    -0.000 C 
BRANCH  10  11
HETATM   11  C2  UNL     1      56.425   9.845  52.133  1.00  0.00    -0.005 C 
HETATM   12  C1  UNL     1      55.783   9.617  53.507  1.00  0.00     0.005 C 
ENDBRANCH  10  11
ENDBRANCH   9  10
ENDBRANCH   8   9
ENDBRANCH   7   8
ENDBRANCH   2   7
ENDBRANCH   1   2
BRANCH   1  13
HETATM   13  C8  UNL     1      56.033  16.140  53.452  1.00  0.00     0.150 C 
BRANCH  13  14
HETATM   14  N2  UNL     1      56.433  17.512  53.135  1.00  0.00    -0.359 N 
HETATM   15  C9  UNL     1      57.436  18.196  53.831  1.00  0.00     0.221 C 
HETATM   16  O1  UNL     1      58.084  17.687  54.800  1.00  0.00    -0.273 OA
ATOM     17  H2  UNL     1      55.958  17.992  52.370  1.00  0.00     0.162 HD
BRANCH  15  18
HETATM   18  C10 UNL     1      57.796  19.572  53.468  1.00  0.00     0.078 C 
HETATM   19  C11 UNL     1      58.666  20.256  54.480  1.00  0.00     0.014 C 
HETATM   20  C12 UNL     1      58.556  21.762  54.398  1.00  0.00     0.001 C 
HETATM   21  C13 UNL     1      58.292  22.226  52.982  1.00  0.00     0.000 C 
HETATM   22  C14 UNL     1      57.061  21.625  52.382  1.00  0.00     0.001 C 
HETATM   23  C15 UNL     1      56.596  20.454  53.221  1.00  0.00     0.014 C 
ENDBRANCH  15  18
ENDBRANCH  13  14
ENDBRANCH   1  13
TORSDOF 9
ENDMDL
MODEL 3
REMARK VINA RESULT: -7.909579151      1.961      3.970
REMARK  9 active torsions:
REMARK  status: ('A' for Active; 'I' for Inactive)
REMARK    1  A    between atoms: C2_2  and  C3_3 
REMARK    2  A    between atoms: C3_3  and  C4_4 
REMARK    3  A    between atoms: C4_4  and  C5_5 
REMARK    4  A    between atoms: C5_5  and  C6_6 
REMARK    5  A    between atoms: C6_6  and  N1_7 
REMARK    6  A    between atoms: N1_7  and  C7_8 
REMARK    7  A    between atoms: C7_8  and  C8_9 
REMARK    8  A    between atoms: C8_9  and  N2_10 
REMARK       I    between atoms: N2_10  and  C9_12 
REMARK    9  A    between atoms: C9_12  and  C10_14 
ROOT
HETATM    1  C7  UNL     1      55.757  15.172  52.535  1.00  0.00     0.257 C 
ENDROOT
BRANCH   1   2
HETATM    2  N1  UNL     1      55.842  13.701  52.599  1.00  0.00    -0.066 N 
HETATM    3  C16 UNL     1      55.683  13.245  53.939  1.00  0.00     0.237 C 
HETATM    4  C17 UNL     1      54.335  12.579  54.069  1.00  0.00     0.029 C 
HETATM    5  C18 UNL     1      53.770  12.521  52.690  1.00  0.00     0.029 C 
HETATM    6  C19 UNL     1      54.787  13.130  51.786  1.00  0.00     0.237 C 
BRANCH   2   7
HETATM    7  C6  UNL     1      57.084  13.377  51.965  1.00  0.00     0.237 C 
BRANCH   7   8
HETATM    8  C5  UNL     1      57.028  12.332  50.901  1.00  0.00     0.028 C 
BRANCH   8   9
HETATM    9  C4  UNL     1      58.080  11.292  51.242  1.00  0.00     0.002 C 
BRANCH   9  10
HETATM   10  C3  UNL     1      57.672  10.412  52.394  1.00  0.00    -0.000 C 
BRANCH  10  11
HETATM   11  C2  UNL     1      56.325   9.805  52.087  1.00  0.00    -0.005 C 
HETATM   12  C1  UNL     1      55.784   9.313  53.434  1.00  0.00     0.005 C 
ENDBRANCH  10  11
ENDBRANCH   9  10
ENDBRANCH   8   9
ENDBRANCH   7   8
ENDBRANCH   2   7
ENDBRANCH   1   2
BRANCH   1  13
HETATM   13  C8  UNL     1      56.385  15.836  53.711  1.00  0.00     0.150 C 
BRANCH  13  14
HETATM   14  N2  UNL     1      56.434  17.290  53.560  1.00  0.00    -0.359 N 
HETATM   15  C9  UNL     1      57.443  18.083  54.118  1.00  0.00     0.221 C 
HETATM   16  O1  UNL     1      58.401  17.609  54.807  1.00  0.00    -0.273 OA
ATOM     17  H2  UNL     1      55.698  17.748  53.022  1.00  0.00     0.162 HD
BRANCH  15  18
HETATM   18  C10 UNL     1      57.442  19.539  53.932  1.00  0.00     0.078 C 
HETATM   19  C11 UNL     1      56.974  19.975  52.576  1.00  0.00     0.014 C 
HETATM   20  C12 UNL     1      57.500  21.344  52.207  1.00  0.00     0.001 C 
HETATM   21  C13 UNL     1      57.664  22.226  53.426  1.00  0.00     0.000 C 
HETATM   22  C14 UNL     1      58.562  21.637  54.467  1.00  0.00     0.001 C 
HETATM   23  C15 UNL     1      58.793  20.168  54.178  1.00  0.00     0.014 C 
ENDBRANCH  15  18
ENDBRANCH  13  14
ENDBRANCH   1  13
TORSDOF 9
ENDMDL
MODEL 4
REMARK VINA RESULT: -7.820436831      1.590      6.457
REMARK  9 active torsions:
REMARK  status: ('A' for Active; 'I' for Inactive)
REMARK    1  A    between atoms: C2_2  and  C3_3 
REMARK    2  A    between atoms: C3_3  and  C4_4 
REMARK    3  A    between atoms: C4_4  and  C5_5 
REMARK    4  A    between atoms: C5_5  and  C6_6 
REMARK    5  A    between atoms: C6_6  and  N1_7 
REMARK    6  A    between atoms: N1_7  and  C7_8 
REMARK    7  A    between atoms: C7_8  and  C8_9 
REMARK    8  A    between atoms: C8_9  and  N2_10 
REMARK       I    between atoms: N2_10  and  C9_12 
REMARK    9  A    between atoms: C9_12  and  C10_14 
ROOT
HETATM    1  C7  UNL     1      55.954  18.406  52.893  1.00  0.00     0.257 C 
ENDROOT
BRANCH   1   2
HETATM    2  N1  UNL     1      57.158  19.232  53.098  1.00  0.00    -0.066 N 
HETATM    3  C16 UNL     1      57.495  19.937  51.907  1.00  0.00     0.237 C 
HETATM    4  C17 UNL     1      57.182  21.399  52.102  1.00  0.00     0.029 C 
HETATM    5  C18 UNL     1      56.793  21.549  53.535  1.00  0.00     0.029 C 
HETATM    6  C19 UNL     1      56.898  20.195  54.149  1.00  0.00     0.237 C 
BRANCH   2   7
HETATM    7  C6  UNL     1      58.146  18.323  53.596  1.00  0.00     0.237 C 
BRANCH   7   8
HETATM    8  C5  UNL     1      57.981  17.879  55.011  1.00  0.00     0.028 C 
BRANCH   8   9
HETATM    9  C4  UNL     1      58.006  16.362  55.008  1.00  0.00     0.002 C 
BRANCH   9  10
HETATM   10  C3  UNL     1      56.775  15.760  55.632  1.00  0.00    -0.000 C 
BRANCH  10  11
HETATM   11  C2  UNL     1      56.945  15.757  57.132  1.00  0.00    -0.005 C 
HETATM   12  C1  UNL     1      55.782  16.597  57.675  1.00  0.00     0.005 C 
ENDBRANCH  10  11
ENDBRANCH   9  10
ENDBRANCH   8   9
ENDBRANCH   7   8
ENDBRANCH   2   7
ENDBRANCH   1   2
BRANCH   1  13
HETATM   13  C8  UNL     1      56.162  17.327  51.887  1.00  0.00     0.150 C 
BRANCH  13  14
HETATM   14  N2  UNL     1      55.442  16.103  52.237  1.00  0.00    -0.359 N 
HETATM   15  C9  UNL     1      55.752  14.851  51.692  1.00  0.00     0.221 C 
HETATM   16  O1  UNL     1      56.682  14.671  50.844  1.00  0.00    -0.273 OA
ATOM     17  H2  UNL     1      54.678  16.163  52.911  1.00  0.00     0.162 HD
BRANCH  15  18
HETATM   18  C10 UNL     1      54.996  13.655  52.082  1.00  0.00     0.078 C 
HETATM   19  C11 UNL     1      54.837  13.497  53.565  1.00  0.00     0.014 C 
HETATM   20  C12 UNL     1      54.590  12.059  53.959  1.00  0.00     0.001 C 
HETATM   21  C13 UNL     1      53.824  11.310  52.891  1.00  0.00     0.000 C 
HETATM   22  C14 UNL     1      54.498  11.328  51.556  1.00  0.00     0.001 C 
HETATM   23  C15 UNL     1      55.592  12.376  51.544  1.00  0.00     0.014 C 
ENDBRANCH  15  18
ENDBRANCH  13  14
ENDBRANCH   1  13
TORSDOF 9
ENDMDL
MODEL 5
REMARK VINA RESULT: -7.740392523      2.123      3.226
REMARK  9 active torsions:
REMARK  status: ('A' for Active; 'I' for Inactive)
REMARK    1  A    between atoms: C2_2  and  C3_3 
REMARK    2  A    between atoms: C3_3  and  C4_4 
REMARK    3  A    between atoms: C4_4  and  C5_5 
REMARK    4  A    between atoms: C5_5  and  C6_6 
REMARK    5  A    between atoms: C6_6  and  N1_7 
REMARK    6  A    between atoms: N1_7  and  C7_8 
REMARK    7  A    between atoms: C7_8  and  C8_9 
REMARK    8  A    between atoms: C8_9  and  N2_10 
REMARK       I    between atoms: N2_10  and  C9_12 
REMARK    9  A    between atoms: C9_12  and  C10_14 
ROOT
HETATM    1  C7  UNL     1      56.244  15.390  53.761  1.00  0.00     0.257 C 
ENDROOT
BRANCH   1   2
HETATM    2  N1  UNL     1      55.667  14.113  53.302  1.00  0.00    -0.066 N 
HETATM    3  C16 UNL     1      55.271  14.199  51.937  1.00  0.00     0.237 C 
HETATM    4  C17 UNL     1      56.227  13.385  51.101  1.00  0.00     0.029 C 
HETATM    5  C18 UNL     1      57.117  12.676  52.067  1.00  0.00     0.029 C 
HETATM    6  C19 UNL     1      56.664  13.069  53.431  1.00  0.00     0.237 C 
BRANCH   2   7
HETATM    7  C6  UNL     1      54.629  13.820  54.244  1.00  0.00     0.237 C 
BRANCH   7   8
HETATM    8  C5  UNL     1      53.954  12.498  54.092  1.00  0.00     0.028 C 
BRANCH   8   9
HETATM    9  C4  UNL     1      52.731  12.515  54.992  1.00  0.00     0.002 C 
BRANCH   9  10
HETATM   10  C3  UNL     1      52.349  11.142  55.477  1.00  0.00    -0.000 C 
BRANCH  10  11
HETATM   11  C2  UNL     1      53.204  10.121  54.764  1.00  0.00    -0.005 C 
HETATM   12  C1  UNL     1      52.268   8.943  54.469  1.00  0.00     0.005 C 
ENDBRANCH  10  11
ENDBRANCH   9  10
ENDBRANCH   8   9
ENDBRANCH   7   8
ENDBRANCH   2   7
ENDBRANCH   1   2
BRANCH   1  13
HETATM   13  C8  UNL     1      55.908  16.528  52.861  1.00  0.00     0.150 C 
BRANCH  13  14
HETATM   14  N2  UNL     1      56.575  17.765  53.267  1.00  0.00    -0.359 N 
HETATM   15  C9  UNL     1      56.874  18.801  52.374  1.00  0.00     0.221 C 
HETATM   16  O1  UNL     1      56.594  18.755  51.134  1.00  0.00    -0.273 OA
ATOM     17  H2  UNL     1      56.835  17.878  54.247  1.00  0.00     0.162 HD
BRANCH  15  18
HETATM   18  C10 UNL     1      57.545  20.021  52.838  1.00  0.00     0.078 C 
HETATM   19  C11 UNL     1      58.272  19.854  54.139  1.00  0.00     0.014 C 
HETATM   20  C12 UNL     1      58.452  21.170  54.862  1.00  0.00     0.001 C 
HETATM   21  C13 UNL     1      58.597  22.324  53.894  1.00  0.00     0.000 C 
HETATM   22  C14 UNL     1      57.446  22.454  52.949  1.00  0.00     0.001 C 
HETATM   23  C15 UNL     1      56.605  21.195  52.984  1.00  0.00     0.014 C 
ENDBRANCH  15  18
ENDBRANCH  13  14
ENDBRANCH   1  13
TORSDOF 9
ENDMDL
