MODEL 1
REMARK VINA RESULT: -4.717319465      0.000      0.000
REMARK  3 active torsions:
REMARK  status: ('A' for Active; 'I' for Inactive)
REMARK    1  A    between atoms: C2_2  and  O1_4 
REMARK    2  A    between atoms: O1_4  and  N1_5 
REMARK    3  A    between atoms: N1_5  and  C4_7 
ROOT
HETATM    1  C4  UNL     1     -34.470  -8.837 -47.882  1.00  0.00     0.106 C 
HETATM    2  N2  UNL     1     -35.135  -8.042 -47.131  1.00  0.00    -0.378 N 
ATOM      3  H2  UNL     1     -35.558  -7.281 -47.662  1.00  0.00     0.160 HD
HETATM    4  C5  UNL     1     -35.433  -7.951 -45.745  1.00  0.00     0.121 C 
HETATM    5  C6  UNL     1     -35.235  -9.219 -44.971  1.00  0.00     0.030 C 
HETATM    6  C7  UNL     1     -35.947 -10.400 -45.557  1.00  0.00     0.076 C 
HETATM    7  S1  UNL     1     -34.888 -11.285 -46.762  1.00  0.00    -0.162 SA
HETATM    8  C8  UNL     1     -33.732 -10.047 -47.429  1.00  0.00     0.151 C 
ENDROOT
BRANCH   1   9
HETATM    9  N1  UNL     1     -34.398  -8.590 -49.280  1.00  0.00    -0.254 N 
ATOM     10  H1  UNL     1     -35.167  -8.083 -49.719  1.00  0.00     0.195 HD
BRANCH   9  11
HETATM   11  O1  UNL     1     -33.374  -8.986 -50.058  1.00  0.00    -0.274 OA
BRANCH  11  12
HETATM   12  C2  UNL     1     -33.721  -8.831 -51.394  1.00  0.00     0.144 C 
HETATM   13  C1  UNL     1     -34.958  -9.695 -51.662  1.00  0.00     0.042 C 
HETATM   14  C3  UNL     1     -33.957  -7.394 -51.775  1.00  0.00     0.042 C 
ENDBRANCH  11  12
ENDBRANCH   9  11
ENDBRANCH   1   9
TORSDOF 3
ENDMDL
MODEL 2
REMARK VINA RESULT: -4.665914924      1.420      1.892
REMARK  3 active torsions:
REMARK  status: ('A' for Active; 'I' for Inactive)
REMARK    1  A    between atoms: C2_2  and  O1_4 
REMARK    2  A    between atoms: O1_4  and  N1_5 
REMARK    3  A    between atoms: N1_5  and  C4_7 
ROOT
HETATM    1  C4  UNL     1     -34.765  -9.232 -48.107  1.00  0.00     0.106 C 
HETATM    2  N2  UNL     1     -34.201 -10.263 -47.599  1.00  0.00    -0.378 N 
ATOM      3  H2  UNL     1     -33.334 -10.498 -48.082  1.00  0.00     0.160 HD
HETATM    4  C5  UNL     1     -34.476 -11.162 -46.535  1.00  0.00     0.121 C 
HETATM    5  C6  UNL     1     -35.458 -10.659 -45.521  1.00  0.00     0.030 C 
HETATM    6  C7  UNL     1     -35.110  -9.315 -44.959  1.00  0.00     0.076 C 
HETATM    7  S1  UNL     1     -35.853  -7.966 -45.953  1.00  0.00    -0.162 SA
HETATM    8  C8  UNL     1     -36.040  -8.622 -47.641  1.00  0.00     0.151 C 
ENDROOT
BRANCH   1   9
HETATM    9  N1  UNL     1     -34.163  -8.572 -49.213  1.00  0.00    -0.254 N 
ATOM     10  H1  UNL     1     -34.380  -7.586 -49.360  1.00  0.00     0.195 HD
BRANCH   9  11
HETATM   11  O1  UNL     1     -33.325  -9.174 -50.076  1.00  0.00    -0.274 OA
BRANCH  11  12
HETATM   12  C2  UNL     1     -33.718  -8.887 -51.378  1.00  0.00     0.144 C 
HETATM   13  C1  UNL     1     -34.966  -9.721 -51.687  1.00  0.00     0.042 C 
HETATM   14  C3  UNL     1     -33.964  -7.419 -51.606  1.00  0.00     0.042 C 
ENDBRANCH  11  12
ENDBRANCH   9  11
ENDBRANCH   1   9
TORSDOF 3
ENDMDL
MODEL 3
REMARK VINA RESULT: -4.657084567      2.000      4.862
REMARK  3 active torsions:
REMARK  status: ('A' for Active; 'I' for Inactive)
REMARK    1  A    between atoms: C2_2  and  O1_4 
REMARK    2  A    between atoms: O1_4  and  N1_5 
REMARK    3  A    between atoms: N1_5  and  C4_7 
ROOT
HETATM    1  C4  UNL     1     -34.539  -9.029 -48.693  1.00  0.00     0.106 C 
HETATM    2  N2  UNL     1     -33.643  -8.546 -49.469  1.00  0.00    -0.378 N 
ATOM      3  H2  UNL     1     -32.721  -8.546 -49.033  1.00  0.00     0.160 HD
HETATM    4  C5  UNL     1     -33.607  -8.009 -50.783  1.00  0.00     0.121 C 
HETATM    5  C6  UNL     1     -34.783  -8.359 -51.642  1.00  0.00     0.030 C 
HETATM    6  C7  UNL     1     -35.061  -9.829 -51.713  1.00  0.00     0.076 C 
HETATM    7  S1  UNL     1     -36.213 -10.354 -50.387  1.00  0.00    -0.162 SA
HETATM    8  C8  UNL     1     -35.984  -9.174 -49.020  1.00  0.00     0.151 C 
ENDROOT
BRANCH   1   9
HETATM    9  N1  UNL     1     -34.177  -9.483 -47.396  1.00  0.00    -0.254 N 
ATOM     10  H1  UNL     1     -34.393  -8.883 -46.599  1.00  0.00     0.195 HD
BRANCH   9  11
HETATM   11  O1  UNL     1     -33.568 -10.659 -47.158  1.00  0.00    -0.274 OA
BRANCH  11  12
HETATM   12  C2  UNL     1     -34.358 -11.427 -46.312  1.00  0.00     0.144 C 
HETATM   13  C1  UNL     1     -35.007 -10.485 -45.291  1.00  0.00     0.042 C 
HETATM   14  C3  UNL     1     -35.390 -12.238 -47.049  1.00  0.00     0.042 C 
ENDBRANCH  11  12
ENDBRANCH   9  11
ENDBRANCH   1   9
TORSDOF 3
ENDMDL
MODEL 4
REMARK VINA RESULT: -4.633152882      2.192      4.878
REMARK  3 active torsions:
REMARK  status: ('A' for Active; 'I' for Inactive)
REMARK    1  A    between atoms: C2_2  and  O1_4 
REMARK    2  A    between atoms: O1_4  and  N1_5 
REMARK    3  A    between atoms: N1_5  and  C4_7 
ROOT
HETATM    1  C4  UNL     1     -34.405  -9.123 -48.720  1.00  0.00     0.106 C 
HETATM    2  N2  UNL     1     -33.610  -9.184 -49.721  1.00  0.00    -0.378 N 
ATOM      3  H2  UNL     1     -32.676  -9.489 -49.446  1.00  0.00     0.160 HD
HETATM    4  C5  UNL     1     -33.696  -8.935 -51.116  1.00  0.00     0.121 C 
HETATM    5  C6  UNL     1     -35.089  -8.912 -51.669  1.00  0.00     0.030 C 
HETATM    6  C7  UNL     1     -35.893 -10.130 -51.329  1.00  0.00     0.076 C 
HETATM    7  S1  UNL     1     -36.801  -9.909 -49.752  1.00  0.00    -0.162 SA
HETATM    8  C8  UNL     1     -35.836  -8.717 -48.772  1.00  0.00     0.151 C 
ENDROOT
BRANCH   1   9
HETATM    9  N1  UNL     1     -33.934  -9.463 -47.423  1.00  0.00    -0.254 N 
ATOM     10  H1  UNL     1     -33.764  -8.707 -46.760  1.00  0.00     0.195 HD
BRANCH   9  11
HETATM   11  O1  UNL     1     -33.700 -10.725 -47.019  1.00  0.00    -0.274 OA
BRANCH  11  12
HETATM   12  C2  UNL     1     -34.830 -11.225 -46.385  1.00  0.00     0.144 C 
HETATM   13  C1  UNL     1     -35.366 -12.389 -47.227  1.00  0.00     0.042 C 
HETATM   14  C3  UNL     1     -34.567 -11.646 -44.964  1.00  0.00     0.042 C 
ENDBRANCH  11  12
ENDBRANCH   9  11
ENDBRANCH   1   9
TORSDOF 3
ENDMDL
MODEL 5
REMARK VINA RESULT: -4.597267490      2.343      5.014
REMARK  3 active torsions:
REMARK  status: ('A' for Active; 'I' for Inactive)
REMARK    1  A    between atoms: C2_2  and  O1_4 
REMARK    2  A    between atoms: O1_4  and  N1_5 
REMARK    3  A    between atoms: N1_5  and  C4_7 
ROOT
HETATM    1  C4  UNL     1     -33.690  -8.757 -48.469  1.00  0.00     0.106 C 
HETATM    2  N2  UNL     1     -33.861  -9.348 -49.592  1.00  0.00    -0.378 N 
ATOM      3  H2  UNL     1     -34.166 -10.314 -49.471  1.00  0.00     0.160 HD
HETATM    4  C5  UNL     1     -33.734  -9.001 -50.963  1.00  0.00     0.121 C 
HETATM    5  C6  UNL     1     -33.720  -7.529 -51.243  1.00  0.00     0.030 C 
HETATM    6  C7  UNL     1     -34.881  -6.791 -50.649  1.00  0.00     0.076 C 
HETATM    7  S1  UNL     1     -34.498  -6.201 -48.956  1.00  0.00    -0.162 SA
HETATM    8  C8  UNL     1     -33.251  -7.347 -48.289  1.00  0.00     0.151 C 
ENDROOT
BRANCH   1   9
HETATM    9  N1  UNL     1     -33.928  -9.462 -47.258  1.00  0.00    -0.254 N 
ATOM     10  H1  UNL     1     -34.518  -9.021 -46.553  1.00  0.00     0.195 HD
BRANCH   9  11
HETATM   11  O1  UNL     1     -33.418 -10.678 -46.989  1.00  0.00    -0.274 OA
BRANCH  11  12
HETATM   12  C2  UNL     1     -34.364 -11.435 -46.307  1.00  0.00     0.144 C 
HETATM   13  C1  UNL     1     -35.048 -10.521 -45.284  1.00  0.00     0.042 C 
HETATM   14  C3  UNL     1     -35.365 -12.087 -47.223  1.00  0.00     0.042 C 
ENDBRANCH  11  12
ENDBRANCH   9  11
ENDBRANCH   1   9
TORSDOF 3
ENDMDL
