MODEL 1
REMARK VINA RESULT: -6.249948124      0.000      0.000
REMARK  3 active torsions:
REMARK  status: ('A' for Active; 'I' for Inactive)
REMARK    1  A    between atoms: S1_2  and  C2_3 
REMARK       I    between atoms: N2_9  and  C5_10 
REMARK    2  A    between atoms: C5_10  and  C6_12 
REMARK    3  A    between atoms: C7_13  and  C8_14 
ROOT
HETATM    1  C2  UNL     1      10.111 -21.840  -6.630  1.00  0.00     0.115 A 
HETATM    2  N1  UNL     1      11.254 -22.106  -7.203  1.00  0.00    -0.329 N 
ATOM      3  H1  UNL     1      12.075 -21.551  -6.960  1.00  0.00     0.168 HD
HETATM    4  C3  UNL     1      11.371 -23.063  -8.075  1.00  0.00     0.137 A 
HETATM    5  C4  UNL     1      10.223 -23.782  -8.363  1.00  0.00     0.127 A 
HETATM    6  S2  UNL     1       9.080 -23.018  -7.354  1.00  0.00    -0.043 SA
HETATM    7  N2  UNL     1      10.232 -24.855  -9.311  1.00  0.00    -0.292 N 
HETATM    8  C5  UNL     1       9.021 -25.136  -9.945  1.00  0.00     0.304 C 
HETATM    9  O1  UNL     1       9.007 -26.115 -10.782  1.00  0.00    -0.258 OA
HETATM   10  C9  UNL     1      11.457 -25.622  -9.607  1.00  0.00     0.108 C 
HETATM   11  C10 UNL     1      11.606 -25.923 -11.060  1.00  0.00     0.034 C 
HETATM   12  C11 UNL     1      12.667 -24.916  -9.062  1.00  0.00     0.146 C 
HETATM   13  N3  UNL     1      12.525 -23.527  -8.812  1.00  0.00    -0.372 N 
ATOM     14  H3  UNL     1      13.224 -22.865  -9.148  1.00  0.00     0.161 HD
ENDROOT
BRANCH   8  15
HETATM   15  C6  UNL     1       7.813 -24.410  -9.724  1.00  0.00    -0.004 C 
HETATM   16  C7  UNL     1       6.764 -23.808  -9.549  1.00  0.00    -0.081 C 
BRANCH  16  17
HETATM   17  C8  UNL     1       5.490 -23.108  -9.349  1.00  0.00     0.208 C 
HETATM   18 CL1  UNL     1       4.405 -24.025  -8.289  1.00  0.00    -0.117 Cl
ENDBRANCH  16  17
ENDBRANCH   8  15
BRANCH   1  19
HETATM   19  S1  UNL     1       9.686 -20.582  -5.404  1.00  0.00    -0.109 SA
HETATM   20  C1  UNL     1      10.977 -19.327  -5.472  1.00  0.00     0.097 C 
ENDBRANCH   1  19
TORSDOF 3
ENDMDL
MODEL 2
REMARK VINA RESULT: -6.193259517      2.705      4.556
REMARK  3 active torsions:
REMARK  status: ('A' for Active; 'I' for Inactive)
REMARK    1  A    between atoms: S1_2  and  C2_3 
REMARK       I    between atoms: N2_9  and  C5_10 
REMARK    2  A    between atoms: C5_10  and  C6_12 
REMARK    3  A    between atoms: C7_13  and  C8_14 
ROOT
HETATM    1  C2  UNL     1      12.370 -24.168  -9.880  1.00  0.00     0.115 A 
HETATM    2  N1  UNL     1      12.638 -23.562  -8.754  1.00  0.00    -0.329 N 
ATOM      3  H1  UNL     1      13.610 -23.445  -8.470  1.00  0.00     0.168 HD
HETATM    4  C3  UNL     1      11.694 -23.105  -7.987  1.00  0.00     0.137 A 
HETATM    5  C4  UNL     1      10.394 -23.293  -8.425  1.00  0.00     0.127 A 
HETATM    6  S2  UNL     1      10.646 -24.110  -9.900  1.00  0.00    -0.043 SA
HETATM    7  N2  UNL     1       9.273 -22.835  -7.660  1.00  0.00    -0.292 N 
HETATM    8  C5  UNL     1       8.071 -23.517  -7.847  1.00  0.00     0.304 C 
HETATM    9  O1  UNL     1       7.048 -23.100  -7.184  1.00  0.00    -0.258 OA
HETATM   10  C9  UNL     1       9.384 -21.705  -6.717  1.00  0.00     0.108 C 
HETATM   11  C10 UNL     1       8.634 -21.942  -5.450  1.00  0.00     0.034 C 
HETATM   12  C11 UNL     1      10.828 -21.377  -6.453  1.00  0.00     0.146 C 
HETATM   13  N3  UNL     1      11.766 -22.407  -6.723  1.00  0.00    -0.372 N 
ATOM     14  H3  UNL     1      12.479 -22.652  -6.037  1.00  0.00     0.161 HD
ENDROOT
BRANCH   8  15
HETATM   15  C6  UNL     1       7.910 -24.635  -8.719  1.00  0.00    -0.004 C 
HETATM   16  C7  UNL     1       7.744 -25.591  -9.461  1.00  0.00    -0.081 C 
BRANCH  16  17
HETATM   17  C8  UNL     1       7.516 -26.735 -10.352  1.00  0.00     0.208 C 
HETATM   18 CL1  UNL     1       6.647 -28.038  -9.526  1.00  0.00    -0.117 Cl
ENDBRANCH  16  17
ENDBRANCH   8  15
BRANCH   1  19
HETATM   19  S1  UNL     1      13.481 -24.886 -11.111  1.00  0.00    -0.109 SA
HETATM   20  C1  UNL     1      14.552 -23.557 -11.689  1.00  0.00     0.097 C 
ENDBRANCH   1  19
TORSDOF 3
ENDMDL
MODEL 3
REMARK VINA RESULT: -5.996827248      1.744      2.093
REMARK  3 active torsions:
REMARK  status: ('A' for Active; 'I' for Inactive)
REMARK    1  A    between atoms: S1_2  and  C2_3 
REMARK       I    between atoms: N2_9  and  C5_10 
REMARK    2  A    between atoms: C5_10  and  C6_12 
REMARK    3  A    between atoms: C7_13  and  C8_14 
ROOT
HETATM    1  C2  UNL     1       8.327 -21.510  -5.183  1.00  0.00     0.115 A 
HETATM    2  N1  UNL     1       9.490 -21.247  -5.718  1.00  0.00    -0.329 N 
ATOM      3  H1  UNL     1      10.052 -20.485  -5.339  1.00  0.00     0.168 HD
HETATM    4  C3  UNL     1       9.947 -21.933  -6.723  1.00  0.00     0.137 A 
HETATM    5  C4  UNL     1       9.139 -22.954  -7.194  1.00  0.00     0.127 A 
HETATM    6  S2  UNL     1       7.796 -22.836  -6.151  1.00  0.00    -0.043 SA
HETATM    7  N2  UNL     1       9.538 -23.773  -8.299  1.00  0.00    -0.292 N 
HETATM    8  C5  UNL     1       8.513 -24.355  -9.045  1.00  0.00     0.304 C 
HETATM    9  O1  UNL     1       8.856 -25.114 -10.027  1.00  0.00    -0.258 OA
HETATM   10  C9  UNL     1      10.958 -23.987  -8.637  1.00  0.00     0.108 C 
HETATM   11  C10 UNL     1      11.207 -23.960 -10.106  1.00  0.00     0.034 C 
HETATM   12  C11 UNL     1      11.829 -23.000  -7.910  1.00  0.00     0.146 C 
HETATM   13  N3  UNL     1      11.190 -21.819  -7.450  1.00  0.00    -0.372 N 
ATOM     14  H3  UNL     1      11.602 -20.903  -7.631  1.00  0.00     0.161 HD
ENDROOT
BRANCH   8  15
HETATM   15  C6  UNL     1       7.123 -24.159  -8.787  1.00  0.00    -0.004 C 
HETATM   16  C7  UNL     1       5.927 -24.012  -8.587  1.00  0.00    -0.081 C 
BRANCH  16  17
HETATM   17  C8  UNL     1       4.485 -23.857  -8.361  1.00  0.00     0.208 C 
HETATM   18 CL1  UNL     1       3.914 -22.262  -8.880  1.00  0.00    -0.117 Cl
ENDBRANCH  16  17
ENDBRANCH   8  15
BRANCH   1  19
HETATM   19  S1  UNL     1       7.474 -20.719  -3.801  1.00  0.00    -0.109 SA
HETATM   20  C1  UNL     1       8.720 -19.820  -2.861  1.00  0.00     0.097 C 
ENDBRANCH   1  19
TORSDOF 3
ENDMDL
MODEL 4
REMARK VINA RESULT: -5.954477795      3.330      5.558
REMARK  3 active torsions:
REMARK  status: ('A' for Active; 'I' for Inactive)
REMARK    1  A    between atoms: S1_2  and  C2_3 
REMARK       I    between atoms: N2_9  and  C5_10 
REMARK    2  A    between atoms: C5_10  and  C6_12 
REMARK    3  A    between atoms: C7_13  and  C8_14 
ROOT
HETATM    1  C2  UNL     1      11.845 -23.638 -10.394  1.00  0.00     0.115 A 
HETATM    2  N1  UNL     1      10.695 -23.920 -10.946  1.00  0.00    -0.329 N 
ATOM      3  H1  UNL     1      10.660 -24.134 -11.942  1.00  0.00     0.168 HD
HETATM    4  C3  UNL     1       9.595 -23.936 -10.254  1.00  0.00     0.137 A 
HETATM    5  C4  UNL     1       9.706 -23.639  -8.906  1.00  0.00     0.127 A 
HETATM    6  S2  UNL     1      11.382 -23.364  -8.755  1.00  0.00    -0.043 SA
HETATM    7  N2  UNL     1       8.561 -23.622  -8.047  1.00  0.00    -0.292 N 
HETATM    8  C5  UNL     1       8.641 -22.808  -6.917  1.00  0.00     0.304 C 
HETATM    9  O1  UNL     1       7.628 -22.801  -6.122  1.00  0.00    -0.258 OA
HETATM   10  C9  UNL     1       7.355 -24.419  -8.343  1.00  0.00     0.108 C 
HETATM   11  C10 UNL     1       6.094 -23.676  -8.058  1.00  0.00     0.034 C 
HETATM   12  C11 UNL     1       7.390 -24.927  -9.758  1.00  0.00     0.146 C 
HETATM   13  N3  UNL     1       8.237 -24.226 -10.655  1.00  0.00    -0.372 N 
ATOM     14  H3  UNL     1       7.893 -23.931 -11.569  1.00  0.00     0.161 HD
ENDROOT
BRANCH   8  15
HETATM   15  C6  UNL     1       9.766 -21.991  -6.596  1.00  0.00    -0.004 C 
HETATM   16  C7  UNL     1      10.713 -21.275  -6.304  1.00  0.00    -0.081 C 
BRANCH  16  17
HETATM   17  C8  UNL     1      11.834 -20.404  -5.933  1.00  0.00     0.208 C 
HETATM   18 CL1  UNL     1      11.310 -19.092  -4.865  1.00  0.00    -0.117 Cl
ENDBRANCH  16  17
ENDBRANCH   8  15
BRANCH   1  19
HETATM   19  S1  UNL     1      13.497 -23.548 -11.122  1.00  0.00    -0.109 SA
HETATM   20  C1  UNL     1      14.002 -25.239 -11.485  1.00  0.00     0.097 C 
ENDBRANCH   1  19
TORSDOF 3
ENDMDL
MODEL 5
REMARK VINA RESULT: -5.654387607      3.510      5.511
REMARK  3 active torsions:
REMARK  status: ('A' for Active; 'I' for Inactive)
REMARK    1  A    between atoms: S1_2  and  C2_3 
REMARK       I    between atoms: N2_9  and  C5_10 
REMARK    2  A    between atoms: C5_10  and  C6_12 
REMARK    3  A    between atoms: C7_13  and  C8_14 
ROOT
HETATM    1  C2  UNL     1      10.954 -22.812 -11.228  1.00  0.00     0.115 A 
HETATM    2  N1  UNL     1       9.745 -23.022 -11.676  1.00  0.00    -0.329 N 
ATOM      3  H1  UNL     1       9.575 -22.996 -12.681  1.00  0.00     0.168 HD
HETATM    4  C3  UNL     1       8.755 -23.265 -10.870  1.00  0.00     0.137 A 
HETATM    5  C4  UNL     1       9.048 -23.289  -9.517  1.00  0.00     0.127 A 
HETATM    6  S2  UNL     1      10.721 -22.961  -9.525  1.00  0.00    -0.043 SA
HETATM    7  N2  UNL     1       8.036 -23.543  -8.537  1.00  0.00    -0.292 N 
HETATM    8  C5  UNL     1       8.254 -23.016  -7.264  1.00  0.00     0.304 C 
HETATM    9  O1  UNL     1       7.364 -23.257  -6.365  1.00  0.00    -0.258 OA
HETATM   10  C9  UNL     1       6.820 -24.316  -8.856  1.00  0.00     0.108 C 
HETATM   11  C10 UNL     1       5.594 -23.736  -8.237  1.00  0.00     0.034 C 
HETATM   12  C11 UNL     1       6.668 -24.472 -10.344  1.00  0.00     0.146 C 
HETATM   13  N3  UNL     1       7.362 -23.531 -11.148  1.00  0.00    -0.372 N 
ATOM     14  H3  UNL     1       6.885 -23.049 -11.910  1.00  0.00     0.161 HD
ENDROOT
BRANCH   8  15
HETATM   15  C6  UNL     1       9.393 -22.234  -6.905  1.00  0.00    -0.004 C 
HETATM   16  C7  UNL     1      10.352 -21.552  -6.577  1.00  0.00    -0.081 C 
BRANCH  16  17
HETATM   17  C8  UNL     1      11.490 -20.724  -6.161  1.00  0.00     0.208 C 
HETATM   18 CL1  UNL     1      10.964 -19.115  -5.638  1.00  0.00    -0.117 Cl
ENDBRANCH  16  17
ENDBRANCH   8  15
BRANCH   1  19
HETATM   19  S1  UNL     1      12.484 -22.457 -12.123  1.00  0.00    -0.109 SA
HETATM   20  C1  UNL     1      13.790 -23.408 -11.325  1.00  0.00     0.097 C 
ENDBRANCH   1  19
TORSDOF 3
ENDMDL
