MODEL 1
REMARK VINA RESULT: -7.138438842      0.000      0.000
REMARK  3 active torsions:
REMARK  status: ('A' for Active; 'I' for Inactive)
REMARK    1  A    between atoms: O1_2  and  C2_3 
REMARK       I    between atoms: C2_3  and  N1_5 
REMARK    2  A    between atoms: N1_5  and  C3_7 
REMARK    3  A    between atoms: C4_10  and  C5_11 
ROOT
HETATM    1  C3  UNL     1       9.247 -21.798  -6.714  1.00  0.00     0.682 C 
HETATM    2  N2  UNL     1       9.431 -22.170  -7.916  1.00  0.00    -0.215 N 
ATOM      3  H2  UNL     1      10.204 -21.747  -8.429  1.00  0.00     0.178 HD
HETATM    4  C4  UNL     1       8.646 -23.121  -8.588  1.00  0.00     0.157 C 
HETATM    5  C11 UNL     1       7.668 -23.859  -7.767  1.00  0.00     0.159 C 
HETATM    6  C12 UNL     1       6.361 -23.996  -8.449  1.00  0.00     0.071 C 
HETATM    7  N3  UNL     1       5.346 -24.117  -8.986  1.00  0.00    -0.196 NA
HETATM    8  C13 UNL     1       7.512 -23.358  -6.407  1.00  0.00     0.100 C 
HETATM    9  N4  UNL     1       8.220 -22.430  -5.917  1.00  0.00    -0.204 N 
ATOM     10  H4  UNL     1       8.065 -22.126  -4.955  1.00  0.00     0.183 HD
ENDROOT
BRANCH   4  11
HETATM   11  C5  UNL     1       9.441 -23.965  -9.536  1.00  0.00    -0.012 A 
HETATM   12  C6  UNL     1      10.427 -24.774  -9.067  1.00  0.00     0.011 A 
HETATM   13  C7  UNL     1      11.184 -25.597  -9.914  1.00  0.00     0.001 A 
HETATM   14  C8  UNL     1      10.891 -25.557 -11.257  1.00  0.00     0.002 A 
HETATM   15  C9  UNL     1       9.882 -24.728 -11.728  1.00  0.00     0.024 A 
HETATM   16  C10 UNL     1       9.147 -23.927 -10.902  1.00  0.00     0.042 A 
HETATM   17 CL1  UNL     1       7.865 -22.863 -11.448  1.00  0.00    -0.084 Cl
ENDBRANCH   4  11
BRANCH   1  18
HETATM   18  N1  UNL     1      10.071 -20.825  -6.093  1.00  0.00    -0.135 N 
HETATM   19  C2  UNL     1      11.474 -20.940  -6.143  1.00  0.00     0.378 C 
HETATM   20  O2  UNL     1      12.064 -21.891  -6.730  1.00  0.00    -0.238 OA
ATOM     21  H1  UNL     1       9.645 -20.035  -5.607  1.00  0.00     0.189 HD
BRANCH  19  22
HETATM   22  O1  UNL     1      12.235 -19.961  -5.518  1.00  0.00    -0.308 OA
HETATM   23  C1  UNL     1      11.648 -18.990  -4.690  1.00  0.00     0.215 C 
ENDBRANCH  19  22
ENDBRANCH   1  18
TORSDOF 3
ENDMDL
MODEL 2
REMARK VINA RESULT: -6.961146107      2.265      3.472
REMARK  3 active torsions:
REMARK  status: ('A' for Active; 'I' for Inactive)
REMARK    1  A    between atoms: O1_2  and  C2_3 
REMARK       I    between atoms: C2_3  and  N1_5 
REMARK    2  A    between atoms: N1_5  and  C3_7 
REMARK    3  A    between atoms: C4_10  and  C5_11 
ROOT
HETATM    1  C3  UNL     1      10.123 -22.328  -6.917  1.00  0.00     0.682 C 
HETATM    2  N2  UNL     1       9.308 -22.856  -7.738  1.00  0.00    -0.215 N 
ATOM      3  H2  UNL     1       8.313 -22.692  -7.588  1.00  0.00     0.178 HD
HETATM    4  C4  UNL     1       9.679 -23.650  -8.835  1.00  0.00     0.157 C 
HETATM    5  C11 UNL     1      11.119 -23.706  -9.144  1.00  0.00     0.159 C 
HETATM    6  C12 UNL     1      11.565 -25.080  -9.471  1.00  0.00     0.071 C 
HETATM    7  N3  UNL     1      11.912 -26.148  -9.740  1.00  0.00    -0.196 NA
HETATM    8  C13 UNL     1      11.982 -23.088  -8.144  1.00  0.00     0.100 C 
HETATM    9  N4  UNL     1      11.546 -22.459  -7.135  1.00  0.00    -0.204 N 
ATOM     10  H4  UNL     1      12.201 -22.044  -6.473  1.00  0.00     0.183 HD
ENDROOT
BRANCH   4  11
HETATM   11  C5  UNL     1       8.785 -23.457 -10.021  1.00  0.00    -0.012 A 
HETATM   12  C6  UNL     1       9.038 -22.462 -10.911  1.00  0.00     0.011 A 
HETATM   13  C7  UNL     1       8.241 -22.255 -12.046  1.00  0.00     0.001 A 
HETATM   14  C8  UNL     1       7.177 -23.106 -12.232  1.00  0.00     0.002 A 
HETATM   15  C9  UNL     1       6.926 -24.120 -11.318  1.00  0.00     0.024 A 
HETATM   16  C10 UNL     1       7.702 -24.319 -10.213  1.00  0.00     0.042 A 
HETATM   17 CL1  UNL     1       7.424 -25.583  -9.030  1.00  0.00    -0.084 Cl
ENDBRANCH   4  11
BRANCH   1  18
HETATM   18  N1  UNL     1       9.684 -21.541  -5.821  1.00  0.00    -0.135 N 
HETATM   19  C2  UNL     1      10.043 -20.183  -5.728  1.00  0.00     0.378 C 
HETATM   20  O2  UNL     1      10.757 -19.601  -6.594  1.00  0.00    -0.238 OA
ATOM     21  H1  UNL     1       9.104 -21.962  -5.095  1.00  0.00     0.189 HD
BRANCH  19  22
HETATM   22  O1  UNL     1       9.589 -19.457  -4.635  1.00  0.00    -0.308 OA
HETATM   23  C1  UNL     1       8.650 -19.992  -3.737  1.00  0.00     0.215 C 
ENDBRANCH  19  22
ENDBRANCH   1  18
TORSDOF 3
ENDMDL
MODEL 3
REMARK VINA RESULT: -6.955695904      1.560      1.647
REMARK  3 active torsions:
REMARK  status: ('A' for Active; 'I' for Inactive)
REMARK    1  A    between atoms: O1_2  and  C2_3 
REMARK       I    between atoms: C2_3  and  N1_5 
REMARK    2  A    between atoms: N1_5  and  C3_7 
REMARK    3  A    between atoms: C4_10  and  C5_11 
ROOT
HETATM    1  C3  UNL     1       8.934 -22.234  -6.802  1.00  0.00     0.682 C 
HETATM    2  N2  UNL     1       9.682 -22.350  -7.824  1.00  0.00    -0.215 N 
ATOM      3  H2  UNL     1      10.587 -21.881  -7.804  1.00  0.00     0.178 HD
HETATM    4  C4  UNL     1       9.350 -23.077  -8.979  1.00  0.00     0.157 C 
HETATM    5  C11 UNL     1       8.132 -23.904  -8.903  1.00  0.00     0.159 C 
HETATM    6  C12 UNL     1       7.311 -23.800 -10.131  1.00  0.00     0.071 C 
HETATM    7  N3  UNL     1       6.678 -23.731 -11.094  1.00  0.00    -0.196 NA
HETATM    8  C13 UNL     1       7.328 -23.697  -7.704  1.00  0.00     0.100 C 
HETATM    9  N4  UNL     1       7.680 -22.948  -6.746  1.00  0.00    -0.204 N 
ATOM     10  H4  UNL     1       7.075 -22.849  -5.930  1.00  0.00     0.183 HD
ENDROOT
BRANCH   4  11
HETATM   11  C5  UNL     1      10.534 -23.751  -9.601  1.00  0.00    -0.012 A 
HETATM   12  C6  UNL     1      11.080 -24.848  -9.015  1.00  0.00     0.011 A 
HETATM   13  C7  UNL     1      12.177 -25.524  -9.572  1.00  0.00     0.001 A 
HETATM   14  C8  UNL     1      12.688 -25.031 -10.749  1.00  0.00     0.002 A 
HETATM   15  C9  UNL     1      12.123 -23.910 -11.341  1.00  0.00     0.024 A 
HETATM   16  C10 UNL     1      11.057 -23.253 -10.798  1.00  0.00     0.042 A 
HETATM   17 CL1  UNL     1      10.311 -21.834 -11.506  1.00  0.00    -0.084 Cl
ENDBRANCH   4  11
BRANCH   1  18
HETATM   18  N1  UNL     1       9.324 -21.476  -5.667  1.00  0.00    -0.135 N 
HETATM   19  C2  UNL     1      10.060 -20.286  -5.821  1.00  0.00     0.378 C 
HETATM   20  O2  UNL     1      10.406 -19.835  -6.950  1.00  0.00    -0.238 OA
ATOM     21  H1  UNL     1       9.069 -21.796  -4.732  1.00  0.00     0.189 HD
BRANCH  19  22
HETATM   22  O1  UNL     1      10.418 -19.583  -4.678  1.00  0.00    -0.308 OA
HETATM   23  C1  UNL     1      11.715 -19.073  -4.505  1.00  0.00     0.215 C 
ENDBRANCH  19  22
ENDBRANCH   1  18
TORSDOF 3
ENDMDL
MODEL 4
REMARK VINA RESULT: -6.761280834      2.417      3.642
REMARK  3 active torsions:
REMARK  status: ('A' for Active; 'I' for Inactive)
REMARK    1  A    between atoms: O1_2  and  C2_3 
REMARK       I    between atoms: C2_3  and  N1_5 
REMARK    2  A    between atoms: N1_5  and  C3_7 
REMARK    3  A    between atoms: C4_10  and  C5_11 
ROOT
HETATM    1  C3  UNL     1      10.567 -22.335  -7.363  1.00  0.00     0.682 C 
HETATM    2  N2  UNL     1       9.751 -22.415  -8.335  1.00  0.00    -0.215 N 
ATOM      3  H2  UNL     1       8.847 -21.953  -8.233  1.00  0.00     0.178 HD
HETATM    4  C4  UNL     1      10.004 -23.092  -9.539  1.00  0.00     0.157 C 
HETATM    5  C11 UNL     1      11.382 -23.575  -9.739  1.00  0.00     0.159 C 
HETATM    6  C12 UNL     1      11.416 -24.943 -10.304  1.00  0.00     0.071 C 
HETATM    7  N3  UNL     1      11.443 -26.005 -10.758  1.00  0.00    -0.196 NA
HETATM    8  C13 UNL     1      12.246 -23.458  -8.570  1.00  0.00     0.100 C 
HETATM    9  N4  UNL     1      11.892 -22.898  -7.492  1.00  0.00    -0.204 N 
ATOM     10  H4  UNL     1      12.545 -22.843  -6.709  1.00  0.00     0.183 HD
ENDROOT
BRANCH   4  11
HETATM   11  C5  UNL     1       9.392 -22.414 -10.726  1.00  0.00    -0.012 A 
HETATM   12  C6  UNL     1       9.818 -21.180 -11.102  1.00  0.00     0.011 A 
HETATM   13  C7  UNL     1       9.289 -20.515 -12.218  1.00  0.00     0.001 A 
HETATM   14  C8  UNL     1       8.309 -21.165 -12.931  1.00  0.00     0.002 A 
HETATM   15  C9  UNL     1       7.880 -22.426 -12.541  1.00  0.00     0.024 A 
HETATM   16  C10 UNL     1       8.396 -23.071 -11.454  1.00  0.00     0.042 A 
HETATM   17 CL1  UNL     1       7.886 -24.661 -10.920  1.00  0.00    -0.084 Cl
ENDBRANCH   4  11
BRANCH   1  18
HETATM   18  N1  UNL     1      10.248 -21.642  -6.167  1.00  0.00    -0.135 N 
HETATM   19  C2  UNL     1      10.282 -20.235  -6.127  1.00  0.00     0.378 C 
HETATM   20  O2  UNL     1      10.589 -19.527  -7.128  1.00  0.00    -0.238 OA
ATOM     21  H1  UNL     1       9.991 -22.166  -5.330  1.00  0.00     0.189 HD
BRANCH  19  22
HETATM   22  O1  UNL     1       9.962 -19.605  -4.931  1.00  0.00    -0.308 OA
HETATM   23  C1  UNL     1       8.899 -20.049  -4.128  1.00  0.00     0.215 C 
ENDBRANCH  19  22
ENDBRANCH   1  18
TORSDOF 3
ENDMDL
MODEL 5
REMARK VINA RESULT: -6.756417278      2.605      3.635
REMARK  3 active torsions:
REMARK  status: ('A' for Active; 'I' for Inactive)
REMARK    1  A    between atoms: O1_2  and  C2_3 
REMARK       I    between atoms: C2_3  and  N1_5 
REMARK    2  A    between atoms: N1_5  and  C3_7 
REMARK    3  A    between atoms: C4_10  and  C5_11 
ROOT
HETATM    1  C3  UNL     1      10.689 -21.611  -7.174  1.00  0.00     0.682 C 
HETATM    2  N2  UNL     1       9.850 -21.701  -8.124  1.00  0.00    -0.215 N 
ATOM      3  H2  UNL     1       9.047 -21.073  -8.107  1.00  0.00     0.178 HD
HETATM    4  C4  UNL     1       9.948 -22.603  -9.196  1.00  0.00     0.157 C 
HETATM    5  C11 UNL     1      11.212 -23.355  -9.303  1.00  0.00     0.159 C 
HETATM    6  C12 UNL     1      10.985 -24.781  -9.630  1.00  0.00     0.071 C 
HETATM    7  N3  UNL     1      10.810 -25.890  -9.900  1.00  0.00    -0.196 NA
HETATM    8  C13 UNL     1      12.110 -23.205  -8.164  1.00  0.00     0.100 C 
HETATM    9  N4  UNL     1      11.888 -22.419  -7.197  1.00  0.00    -0.204 N 
ATOM     10  H4  UNL     1      12.558 -22.354  -6.430  1.00  0.00     0.183 HD
ENDROOT
BRANCH   4  11
HETATM   11  C5  UNL     1       9.442 -22.032 -10.484  1.00  0.00    -0.012 A 
HETATM   12  C6  UNL     1      10.057 -20.957 -11.043  1.00  0.00     0.011 A 
HETATM   13  C7  UNL     1       9.630 -20.401 -12.258  1.00  0.00     0.001 A 
HETATM   14  C8  UNL     1       8.551 -20.989 -12.875  1.00  0.00     0.002 A 
HETATM   15  C9  UNL     1       7.928 -22.087 -12.297  1.00  0.00     0.024 A 
HETATM   16  C10 UNL     1       8.345 -22.626 -11.114  1.00  0.00     0.042 A 
HETATM   17 CL1  UNL     1       7.591 -24.010 -10.345  1.00  0.00    -0.084 Cl
ENDBRANCH   4  11
BRANCH   1  18
HETATM   18  N1  UNL     1      10.529 -20.683  -6.113  1.00  0.00    -0.135 N 
HETATM   19  C2  UNL     1       9.418 -20.768  -5.251  1.00  0.00     0.378 C 
HETATM   20  O2  UNL     1       8.525 -21.654  -5.369  1.00  0.00    -0.238 OA
ATOM     21  H1  UNL     1      11.223 -19.948  -5.973  1.00  0.00     0.189 HD
BRANCH  19  22
HETATM   22  O1  UNL     1       9.308 -19.834  -4.230  1.00  0.00    -0.308 OA
HETATM   23  C1  UNL     1       8.209 -19.830  -3.354  1.00  0.00     0.215 C 
ENDBRANCH  19  22
ENDBRANCH   1  18
TORSDOF 3
ENDMDL
