MODEL 1
REMARK VINA RESULT: -6.251659730      0.000      0.000
REMARK  7 active torsions:
REMARK  status: ('A' for Active; 'I' for Inactive)
REMARK    1  A    between atoms: C1_2  and  C2_4 
REMARK    2  A    between atoms: C3_5  and  C4_6 
REMARK    3  A    between atoms: C5_9  and  O4_10 
REMARK    4  A    between atoms: C5_9  and  C6_12 
REMARK    5  A    between atoms: C6_12  and  O5_13 
REMARK    6  A    between atoms: C7_17  and  C8_18 
REMARK    7  A    between atoms: C10_24  and  O9_25 
ROOT
HETATM    1  C2  UNL     1      19.428  36.055  27.139  1.00  0.00     0.080 C 
HETATM    2  C3  UNL     1      18.892  34.880  26.802  1.00  0.00     0.101 C 
HETATM    3  C5  UNL     1      20.014  34.004  26.488  1.00  0.00     0.258 C 
HETATM    4  O8  UNL     1      20.943  34.945  25.927  1.00  0.00    -0.312 OA
HETATM    5  C10 UNL     1      20.933  35.864  26.963  1.00  0.00     0.301 C 
ENDROOT
BRANCH   3   6
HETATM    6  O4  UNL     1      20.643  33.560  27.664  1.00  0.00    -0.357 OA
ATOM      7  H4  UNL     1      21.003  32.689  27.545  1.00  0.00     0.213 HD
ENDBRANCH   3   6
BRANCH   3   8
HETATM    8  C6  UNL     1      19.914  32.938  25.514  1.00  0.00     0.270 C 
HETATM    9  N2  UNL     1      19.288  33.207  24.243  1.00  0.00    -0.094 NA
HETATM   10  N3  UNL     1      19.444  31.995  23.560  1.00  0.00    -0.123 NA
HETATM   11  C7  UNL     1      20.722  31.449  23.952  1.00  0.00     0.258 C 
HETATM   12  C9  UNL     1      21.171  32.312  25.072  1.00  0.00     0.214 C 
HETATM   13  O7  UNL     1      22.287  32.425  25.466  1.00  0.00    -0.290 OA
BRANCH   8  14
HETATM   14  O5  UNL     1      19.148  31.869  26.063  1.00  0.00    -0.362 OA
ATOM     15  H5  UNL     1      19.210  31.113  25.492  1.00  0.00     0.212 HD
ENDBRANCH   8  14
BRANCH  11  16
HETATM   16  C8  UNL     1      21.685  31.353  22.863  1.00  0.00     0.259 C 
HETATM   17  N4  UNL     1      22.564  30.242  22.828  1.00  0.00    -0.060 NA
HETATM   18  O6  UNL     1      21.714  32.249  21.991  1.00  0.00    -0.275 OA
ENDBRANCH  11  16
ENDBRANCH   3   8
BRANCH   2  19
HETATM   19  C4  UNL     1      17.471  34.631  26.803  1.00  0.00     0.211 C 
HETATM   20  O2  UNL     1      16.637  35.416  26.348  1.00  0.00    -0.644 OA
HETATM   21  O3  UNL     1      16.962  33.453  27.336  1.00  0.00    -0.644 OA
ENDBRANCH   2  19
BRANCH   1  22
HETATM   22  C1  UNL     1      18.914  37.318  27.564  1.00  0.00     0.266 C 
HETATM   23  N1  UNL     1      19.060  38.437  26.632  1.00  0.00    -0.057 NA
HETATM   24  O1  UNL     1      18.350  37.660  28.609  1.00  0.00    -0.271 OA
ENDBRANCH   1  22
BRANCH   5  25
HETATM   25  O9  UNL     1      21.533  37.061  26.605  1.00  0.00    -0.367 OA
ATOM     26  H9  UNL     1      22.467  36.938  26.478  1.00  0.00     0.213 HD
ENDBRANCH   5  25
TORSDOF 7
ENDMDL
MODEL 2
REMARK VINA RESULT: -6.211913510      2.343      6.114
REMARK  7 active torsions:
REMARK  status: ('A' for Active; 'I' for Inactive)
REMARK    1  A    between atoms: C1_2  and  C2_4 
REMARK    2  A    between atoms: C3_5  and  C4_6 
REMARK    3  A    between atoms: C5_9  and  O4_10 
REMARK    4  A    between atoms: C5_9  and  C6_12 
REMARK    5  A    between atoms: C6_12  and  O5_13 
REMARK    6  A    between atoms: C7_17  and  C8_18 
REMARK    7  A    between atoms: C10_24  and  O9_25 
ROOT
HETATM    1  C2  UNL     1      22.211  31.481  24.207  1.00  0.00     0.080 C 
HETATM    2  C3  UNL     1      21.698  32.027  25.311  1.00  0.00     0.101 C 
HETATM    3  C5  UNL     1      20.251  31.995  25.137  1.00  0.00     0.258 C 
HETATM    4  O8  UNL     1      20.145  32.178  23.715  1.00  0.00    -0.312 OA
HETATM    5  C10 UNL     1      21.004  31.163  23.329  1.00  0.00     0.301 C 
ENDROOT
BRANCH   3   6
HETATM    6  O4  UNL     1      19.751  30.699  25.353  1.00  0.00    -0.357 OA
ATOM      7  H4  UNL     1      19.339  30.635  26.206  1.00  0.00     0.213 HD
ENDBRANCH   3   6
BRANCH   3   8
HETATM    8  C6  UNL     1      19.379  32.995  25.717  1.00  0.00     0.270 C 
HETATM    9  N2  UNL     1      18.048  33.156  25.188  1.00  0.00    -0.094 NA
HETATM   10  N3  UNL     1      17.498  34.130  26.028  1.00  0.00    -0.123 NA
HETATM   11  C7  UNL     1      18.028  33.898  27.351  1.00  0.00     0.258 C 
HETATM   12  C9  UNL     1      19.088  32.878  27.155  1.00  0.00     0.214 C 
HETATM   13  O7  UNL     1      19.546  32.173  27.996  1.00  0.00    -0.290 OA
BRANCH   8  14
HETATM   14  O5  UNL     1      19.975  34.281  25.569  1.00  0.00    -0.362 OA
ATOM     15  H5  UNL     1      20.366  34.543  26.394  1.00  0.00     0.212 HD
ENDBRANCH   8  14
BRANCH  11  16
HETATM   16  C8  UNL     1      17.023  33.517  28.334  1.00  0.00     0.259 C 
HETATM   17  N4  UNL     1      17.280  33.775  29.703  1.00  0.00    -0.060 NA
HETATM   18  O6  UNL     1      15.963  32.975  27.949  1.00  0.00    -0.275 OA
ENDBRANCH  11  16
ENDBRANCH   3   8
BRANCH   2  19
HETATM   19  C4  UNL     1      22.506  32.501  26.408  1.00  0.00     0.211 C 
HETATM   20  O2  UNL     1      22.854  31.796  27.357  1.00  0.00    -0.644 OA
HETATM   21  O3  UNL     1      22.944  33.819  26.443  1.00  0.00    -0.644 OA
ENDBRANCH   2  19
BRANCH   1  22
HETATM   22  C1  UNL     1      23.530  31.191  23.740  1.00  0.00     0.266 C 
HETATM   23  N1  UNL     1      23.703  29.949  22.984  1.00  0.00    -0.057 NA
HETATM   24  O1  UNL     1      24.592  31.811  23.856  1.00  0.00    -0.271 OA
ENDBRANCH   1  22
BRANCH   5  25
HETATM   25  O9  UNL     1      21.345  31.251  21.988  1.00  0.00    -0.367 OA
ATOM     26  H9  UNL     1      20.974  32.036  21.603  1.00  0.00     0.213 HD
ENDBRANCH   5  25
TORSDOF 7
ENDMDL
MODEL 3
REMARK VINA RESULT: -5.758836234      2.232      3.060
REMARK  7 active torsions:
REMARK  status: ('A' for Active; 'I' for Inactive)
REMARK    1  A    between atoms: C1_2  and  C2_4 
REMARK    2  A    between atoms: C3_5  and  C4_6 
REMARK    3  A    between atoms: C5_9  and  O4_10 
REMARK    4  A    between atoms: C5_9  and  C6_12 
REMARK    5  A    between atoms: C6_12  and  O5_13 
REMARK    6  A    between atoms: C7_17  and  C8_18 
REMARK    7  A    between atoms: C10_24  and  O9_25 
ROOT
HETATM    1  C2  UNL     1      21.007  34.061  26.351  1.00  0.00     0.080 C 
HETATM    2  C3  UNL     1      20.619  33.020  25.611  1.00  0.00     0.101 C 
HETATM    3  C5  UNL     1      21.735  32.082  25.626  1.00  0.00     0.258 C 
HETATM    4  O8  UNL     1      22.849  32.989  25.680  1.00  0.00    -0.312 OA
HETATM    5  C10 UNL     1      22.436  33.732  26.773  1.00  0.00     0.301 C 
ENDROOT
BRANCH   3   6
HETATM    6  O4  UNL     1      21.793  31.395  26.851  1.00  0.00    -0.357 OA
ATOM      7  H4  UNL     1      21.745  32.002  27.580  1.00  0.00     0.213 HD
ENDBRANCH   3   6
BRANCH   3   8
HETATM    8  C6  UNL     1      22.016  31.197  24.516  1.00  0.00     0.270 C 
HETATM    9  N2  UNL     1      22.316  31.764  23.225  1.00  0.00    -0.094 NA
HETATM   10  N3  UNL     1      22.600  30.634  22.450  1.00  0.00    -0.123 NA
HETATM   11  C7  UNL     1      23.274  29.690  23.308  1.00  0.00     0.258 C 
HETATM   12  C9  UNL     1      23.144  30.263  24.671  1.00  0.00     0.214 C 
HETATM   13  O7  UNL     1      23.817  29.991  25.613  1.00  0.00    -0.290 OA
BRANCH   8  14
HETATM   14  O5  UNL     1      20.883  30.364  24.280  1.00  0.00    -0.362 OA
ATOM     15  H5  UNL     1      20.264  30.469  24.993  1.00  0.00     0.212 HD
ENDBRANCH   8  14
BRANCH  11  16
HETATM   16  C8  UNL     1      24.650  29.411  22.920  1.00  0.00     0.259 C 
HETATM   17  N4  UNL     1      25.087  28.064  22.888  1.00  0.00    -0.060 NA
HETATM   18  O6  UNL     1      25.408  30.361  22.625  1.00  0.00    -0.275 OA
ENDBRANCH  11  16
ENDBRANCH   3   8
BRANCH   2  19
HETATM   19  C4  UNL     1      19.322  32.934  24.986  1.00  0.00     0.211 C 
HETATM   20  O2  UNL     1      19.147  32.958  23.766  1.00  0.00    -0.644 OA
HETATM   21  O3  UNL     1      18.173  32.815  25.758  1.00  0.00    -0.644 OA
ENDBRANCH   2  19
BRANCH   1  22
HETATM   22  C1  UNL     1      20.408  35.293  26.757  1.00  0.00     0.266 C 
HETATM   23  N1  UNL     1      20.965  36.518  26.180  1.00  0.00    -0.057 NA
HETATM   24  O1  UNL     1      19.476  35.532  27.532  1.00  0.00    -0.271 OA
ENDBRANCH   1  22
BRANCH   5  25
HETATM   25  O9  UNL     1      23.175  34.895  26.922  1.00  0.00    -0.367 OA
ATOM     26  H9  UNL     1      23.438  35.006  27.828  1.00  0.00     0.213 HD
ENDBRANCH   5  25
TORSDOF 7
ENDMDL
MODEL 4
REMARK VINA RESULT: -5.743295831      1.845      3.079
REMARK  7 active torsions:
REMARK  status: ('A' for Active; 'I' for Inactive)
REMARK    1  A    between atoms: C1_2  and  C2_4 
REMARK    2  A    between atoms: C3_5  and  C4_6 
REMARK    3  A    between atoms: C5_9  and  O4_10 
REMARK    4  A    between atoms: C5_9  and  C6_12 
REMARK    5  A    between atoms: C6_12  and  O5_13 
REMARK    6  A    between atoms: C7_17  and  C8_18 
REMARK    7  A    between atoms: C10_24  and  O9_25 
ROOT
HETATM    1  C2  UNL     1      18.562  35.014  26.815  1.00  0.00     0.080 C 
HETATM    2  C3  UNL     1      19.702  34.353  26.606  1.00  0.00     0.101 C 
HETATM    3  C5  UNL     1      19.328  33.114  25.934  1.00  0.00     0.258 C 
HETATM    4  O8  UNL     1      18.047  32.858  26.533  1.00  0.00    -0.312 OA
HETATM    5  C10 UNL     1      17.469  34.091  26.283  1.00  0.00     0.301 C 
ENDROOT
BRANCH   3   6
HETATM    6  O4  UNL     1      19.031  33.352  24.580  1.00  0.00    -0.357 OA
ATOM      7  H4  UNL     1      19.300  32.617  24.043  1.00  0.00     0.213 HD
ENDBRANCH   3   6
BRANCH   3   8
HETATM    8  C6  UNL     1      20.079  31.888  26.097  1.00  0.00     0.270 C 
HETATM    9  N2  UNL     1      19.435  30.629  25.817  1.00  0.00    -0.094 NA
HETATM   10  N3  UNL     1      20.469  29.705  26.006  1.00  0.00    -0.123 NA
HETATM   11  C7  UNL     1      21.686  30.330  25.547  1.00  0.00     0.258 C 
HETATM   12  C9  UNL     1      21.311  31.745  25.304  1.00  0.00     0.214 C 
HETATM   13  O7  UNL     1      21.904  32.520  24.625  1.00  0.00    -0.290 OA
BRANCH   8  14
HETATM   14  O5  UNL     1      20.503  31.773  27.453  1.00  0.00    -0.362 OA
ATOM     15  H5  UNL     1      21.432  31.574  27.475  1.00  0.00     0.212 HD
ENDBRANCH   8  14
BRANCH  11  16
HETATM   16  C8  UNL     1      22.289  29.678  24.393  1.00  0.00     0.259 C 
HETATM   17  N4  UNL     1      23.595  29.144  24.519  1.00  0.00    -0.060 NA
HETATM   18  O6  UNL     1      21.644  29.604  23.323  1.00  0.00    -0.275 OA
ENDBRANCH  11  16
ENDBRANCH   3   8
BRANCH   2  19
HETATM   19  C4  UNL     1      20.995  34.865  26.990  1.00  0.00     0.211 C 
HETATM   20  O2  UNL     1      21.631  34.459  27.964  1.00  0.00    -0.644 OA
HETATM   21  O3  UNL     1      21.602  35.874  26.251  1.00  0.00    -0.644 OA
ENDBRANCH   2  19
BRANCH   1  22
HETATM   22  C1  UNL     1      18.213  36.272  27.395  1.00  0.00     0.266 C 
HETATM   23  N1  UNL     1      17.617  36.238  28.732  1.00  0.00    -0.057 NA
HETATM   24  O1  UNL     1      18.322  37.427  26.969  1.00  0.00    -0.271 OA
ENDBRANCH   1  22
BRANCH   5  25
HETATM   25  O9  UNL     1      16.295  34.271  26.996  1.00  0.00    -0.367 OA
ATOM     26  H9  UNL     1      15.587  33.775  26.600  1.00  0.00     0.213 HD
ENDBRANCH   5  25
TORSDOF 7
ENDMDL
MODEL 5
REMARK VINA RESULT: -5.705856250      3.102      6.966
REMARK  7 active torsions:
REMARK  status: ('A' for Active; 'I' for Inactive)
REMARK    1  A    between atoms: C1_2  and  C2_4 
REMARK    2  A    between atoms: C3_5  and  C4_6 
REMARK    3  A    between atoms: C5_9  and  O4_10 
REMARK    4  A    between atoms: C5_9  and  C6_12 
REMARK    5  A    between atoms: C6_12  and  O5_13 
REMARK    6  A    between atoms: C7_17  and  C8_18 
REMARK    7  A    between atoms: C10_24  and  O9_25 
ROOT
HETATM    1  C2  UNL     1      22.438  29.249  23.612  1.00  0.00     0.080 C 
HETATM    2  C3  UNL     1      21.843  30.444  23.588  1.00  0.00     0.101 C 
HETATM    3  C5  UNL     1      21.707  30.851  24.981  1.00  0.00     0.258 C 
HETATM    4  O8  UNL     1      21.505  29.578  25.617  1.00  0.00    -0.312 OA
HETATM    5  C10 UNL     1      22.609  28.927  25.095  1.00  0.00     0.301 C 
ENDROOT
BRANCH   3   6
HETATM    6  O4  UNL     1      22.939  31.296  25.492  1.00  0.00    -0.357 OA
ATOM      7  H4  UNL     1      22.863  31.511  26.414  1.00  0.00     0.213 HD
ENDBRANCH   3   6
BRANCH   3   8
HETATM    8  C6  UNL     1      20.618  31.686  25.441  1.00  0.00     0.270 C 
HETATM    9  N2  UNL     1      19.264  31.209  25.304  1.00  0.00    -0.094 NA
HETATM   10  N3  UNL     1      18.517  32.225  25.912  1.00  0.00    -0.123 NA
HETATM   11  C7  UNL     1      19.297  32.719  27.021  1.00  0.00     0.258 C 
HETATM   12  C9  UNL     1      20.626  32.080  26.859  1.00  0.00     0.214 C 
HETATM   13  O7  UNL     1      21.449  31.950  27.707  1.00  0.00    -0.290 OA
BRANCH   8  14
HETATM   14  O5  UNL     1      20.632  32.916  24.721  1.00  0.00    -0.362 OA
ATOM     15  H5  UNL     1      20.551  32.735  23.791  1.00  0.00     0.212 HD
ENDBRANCH   8  14
BRANCH  11  16
HETATM   16  C8  UNL     1      18.690  32.486  28.324  1.00  0.00     0.259 C 
HETATM   17  N4  UNL     1      18.664  33.547  29.263  1.00  0.00    -0.060 NA
HETATM   18  O6  UNL     1      18.208  31.360  28.583  1.00  0.00    -0.275 OA
ENDBRANCH  11  16
ENDBRANCH   3   8
BRANCH   2  19
HETATM   19  C4  UNL     1      21.471  31.117  22.368  1.00  0.00     0.211 C 
HETATM   20  O2  UNL     1      21.813  32.268  22.088  1.00  0.00    -0.644 OA
HETATM   21  O3  UNL     1      20.684  30.475  21.420  1.00  0.00    -0.644 OA
ENDBRANCH   2  19
BRANCH   1  22
HETATM   22  C1  UNL     1      22.874  28.315  22.624  1.00  0.00     0.266 C 
HETATM   23  N1  UNL     1      24.253  27.836  22.732  1.00  0.00    -0.057 NA
HETATM   24  O1  UNL     1      22.288  27.815  21.657  1.00  0.00    -0.271 OA
ENDBRANCH   1  22
BRANCH   5  25
HETATM   25  O9  UNL     1      22.553  27.557  25.301  1.00  0.00    -0.367 OA
ATOM     26  H9  UNL     1      22.134  27.364  26.132  1.00  0.00     0.213 HD
ENDBRANCH   5  25
TORSDOF 7
ENDMDL
