MODEL 1
REMARK VINA RESULT: -3.988351004      0.000      0.000
REMARK  0 active torsions:
REMARK  status: ('A' for Active; 'I' for Inactive)
ROOT
HETATM    1  S1  UNL     1      54.771  28.040  22.028  1.00  0.00    -0.062 SA
HETATM    2  C1  UNL     1      54.801  29.695  21.282  1.00  0.00     0.257 C 
HETATM    3  C2  UNL     1      55.899  29.815  20.248  1.00  0.00     0.046 C 
HETATM    4  C3  UNL     1      55.401  31.018  19.460  1.00  0.00     0.030 C 
HETATM    5  C4  UNL     1      53.929  30.767  19.409  1.00  0.00     0.233 C 
HETATM    6  N1  UNL     1      53.614  29.782  20.427  1.00  0.00    -0.061 N 
ATOM      7  H11 UNL     1      52.756  29.987  20.940  1.00  0.00     0.278 HD
ATOM      8  H12 UNL     1      53.318  28.884  20.047  1.00  0.00     0.278 HD
ENDROOT
TORSDOF 0
ENDMDL
MODEL 2
REMARK VINA RESULT: -3.836499696      1.292      1.292
REMARK  0 active torsions:
REMARK  status: ('A' for Active; 'I' for Inactive)
ROOT
HETATM    1  S1  UNL     1      56.887  28.025  21.781  1.00  0.00    -0.062 SA
HETATM    2  C1  UNL     1      56.222  29.630  21.252  1.00  0.00     0.257 C 
HETATM    3  C2  UNL     1      56.657  29.971  19.844  1.00  0.00     0.046 C 
HETATM    4  C3  UNL     1      55.613  31.016  19.482  1.00  0.00     0.030 C 
HETATM    5  C4  UNL     1      54.375  30.443  20.092  1.00  0.00     0.233 C 
HETATM    6  N1  UNL     1      54.784  29.434  21.051  1.00  0.00    -0.061 N 
ATOM      7  H11 UNL     1      54.245  29.453  21.917  1.00  0.00     0.278 HD
ATOM      8  H12 UNL     1      54.537  28.485  20.774  1.00  0.00     0.278 HD
ENDROOT
TORSDOF 0
ENDMDL
MODEL 3
REMARK VINA RESULT: -3.767793534      2.265      3.089
REMARK  0 active torsions:
REMARK  status: ('A' for Active; 'I' for Inactive)
ROOT
HETATM    1  S1  UNL     1      56.187  30.814  20.225  1.00  0.00    -0.062 SA
HETATM    2  C1  UNL     1      55.652  29.129  20.637  1.00  0.00     0.257 C 
HETATM    3  C2  UNL     1      56.608  28.465  21.603  1.00  0.00     0.046 C 
HETATM    4  C3  UNL     1      55.717  27.362  22.155  1.00  0.00     0.030 C 
HETATM    5  C4  UNL     1      54.404  28.061  22.287  1.00  0.00     0.233 C 
HETATM    6  N1  UNL     1      54.465  29.269  21.486  1.00  0.00    -0.061 N 
ATOM      7  H11 UNL     1      53.609  29.455  20.962  1.00  0.00     0.278 HD
ATOM      8  H12 UNL     1      54.459  30.126  22.039  1.00  0.00     0.278 HD
ENDROOT
TORSDOF 0
ENDMDL
MODEL 4
REMARK VINA RESULT: -3.760930252      2.024      2.678
REMARK  0 active torsions:
REMARK  status: ('A' for Active; 'I' for Inactive)
ROOT
HETATM    1  S1  UNL     1      53.729  30.792  19.666  1.00  0.00    -0.062 SA
HETATM    2  C1  UNL     1      55.191  29.748  19.933  1.00  0.00     0.257 C 
HETATM    3  C2  UNL     1      56.411  30.580  20.264  1.00  0.00     0.046 C 
HETATM    4  C3  UNL     1      57.292  29.524  20.915  1.00  0.00     0.030 C 
HETATM    5  C4  UNL     1      56.301  28.744  21.716  1.00  0.00     0.233 C 
HETATM    6  N1  UNL     1      54.978  29.061  21.209  1.00  0.00    -0.061 N 
ATOM      7  H11 UNL     1      54.364  28.249  21.138  1.00  0.00     0.278 HD
ATOM      8  H12 UNL     1      54.406  29.590  21.867  1.00  0.00     0.278 HD
ENDROOT
TORSDOF 0
ENDMDL
MODEL 5
REMARK VINA RESULT: -3.678038332      2.300      3.245
REMARK  0 active torsions:
REMARK  status: ('A' for Active; 'I' for Inactive)
ROOT
HETATM    1  S1  UNL     1      54.066  30.393  20.057  1.00  0.00    -0.062 SA
HETATM    2  C1  UNL     1      55.247  29.583  21.174  1.00  0.00     0.257 C 
HETATM    3  C2  UNL     1      54.639  28.365  21.833  1.00  0.00     0.046 C 
HETATM    4  C3  UNL     1      55.900  27.629  22.262  1.00  0.00     0.030 C 
HETATM    5  C4  UNL     1      56.802  27.853  21.093  1.00  0.00     0.233 C 
HETATM    6  N1  UNL     1      56.256  28.952  20.319  1.00  0.00    -0.061 N 
ATOM      7  H11 UNL     1      56.965  29.602  19.977  1.00  0.00     0.278 HD
ATOM      8  H12 UNL     1      55.899  28.670  19.407  1.00  0.00     0.278 HD
ENDROOT
TORSDOF 0
ENDMDL
