MODEL 1
REMARK VINA RESULT: -5.441526098      0.000      0.000
REMARK  1 active torsions:
REMARK  status: ('A' for Active; 'I' for Inactive)
REMARK    1  A    between atoms: C1_4  and  C2_6 
ROOT
HETATM    1  C2  UNL     1      55.306  30.320  20.604  1.00  0.00     0.050 C 
HETATM    2  C3  UNL     1      55.091  28.993  21.346  1.00  0.00     0.012 C 
HETATM    3  C4  UNL     1      56.492  28.514  21.626  1.00  0.00     0.001 C 
HETATM    4  C5  UNL     1      57.431  29.405  20.844  1.00  0.00     0.001 C 
HETATM    5  C6  UNL     1      56.520  29.955  19.765  1.00  0.00     0.012 C 
ENDROOT
BRANCH   1   6
HETATM    6  C1  UNL     1      54.104  30.556  19.765  1.00  0.00     0.090 C 
HETATM    7  N1  UNL     1      53.022  29.833  19.889  1.00  0.00    -0.391 N 
ATOM      8  H12 UNL     1      52.196  29.995  19.312  1.00  0.00     0.157 HD
ATOM      9  H11 UNL     1      52.982  29.080  20.575  1.00  0.00     0.157 HD
HETATM   10  N2  UNL     1      54.160  31.598  18.815  1.00  0.00    -0.088 NA
ENDBRANCH   1   6
TORSDOF 1
ENDMDL
MODEL 2
REMARK VINA RESULT: -5.376040707      0.925      1.108
REMARK  1 active torsions:
REMARK  status: ('A' for Active; 'I' for Inactive)
REMARK    1  A    between atoms: C1_4  and  C2_6 
ROOT
HETATM    1  C2  UNL     1      55.545  29.620  21.153  1.00  0.00     0.050 C 
HETATM    2  C3  UNL     1      54.776  28.452  21.788  1.00  0.00     0.012 C 
HETATM    3  C4  UNL     1      55.867  27.530  22.268  1.00  0.00     0.001 C 
HETATM    4  C5  UNL     1      57.168  28.042  21.690  1.00  0.00     0.001 C 
HETATM    5  C6  UNL     1      56.689  28.857  20.505  1.00  0.00     0.012 C 
ENDROOT
BRANCH   1   6
HETATM    6  C1  UNL     1      54.652  30.241  20.143  1.00  0.00     0.090 C 
HETATM    7  N1  UNL     1      53.385  29.927  20.055  1.00  0.00    -0.391 N 
ATOM      8  H12 UNL     1      52.771  30.354  19.362  1.00  0.00     0.157 HD
ATOM      9  H11 UNL     1      52.980  29.239  20.690  1.00  0.00     0.157 HD
HETATM   10  N2  UNL     1      55.212  31.193  19.266  1.00  0.00    -0.088 NA
ENDBRANCH   1   6
TORSDOF 1
ENDMDL
MODEL 3
REMARK VINA RESULT: -5.314376796      1.035      2.137
REMARK  1 active torsions:
REMARK  status: ('A' for Active; 'I' for Inactive)
REMARK    1  A    between atoms: C1_4  and  C2_6 
ROOT
HETATM    1  C2  UNL     1      54.571  30.078  19.631  1.00  0.00     0.050 C 
HETATM    2  C3  UNL     1      55.786  31.018  19.612  1.00  0.00     0.012 C 
HETATM    3  C4  UNL     1      56.686  30.454  20.681  1.00  0.00     0.001 C 
HETATM    4  C5  UNL     1      55.887  29.410  21.430  1.00  0.00     0.001 C 
HETATM    5  C6  UNL     1      54.461  29.825  21.127  1.00  0.00     0.012 C 
ENDROOT
BRANCH   1   6
HETATM    6  C1  UNL     1      53.411  30.844  19.113  1.00  0.00     0.090 C 
HETATM    7  N1  UNL     1      53.545  32.041  18.602  1.00  0.00    -0.391 N 
ATOM      8  H12 UNL     1      52.748  32.567  18.246  1.00  0.00     0.157 HD
ATOM      9  H11 UNL     1      54.465  32.477  18.551  1.00  0.00     0.157 HD
HETATM   10  N2  UNL     1      52.138  30.239  19.185  1.00  0.00    -0.088 NA
ENDBRANCH   1   6
TORSDOF 1
ENDMDL
MODEL 4
REMARK VINA RESULT: -5.252734731      0.909      1.652
REMARK  1 active torsions:
REMARK  status: ('A' for Active; 'I' for Inactive)
REMARK    1  A    between atoms: C1_4  and  C2_6 
ROOT
HETATM    1  C2  UNL     1      54.689  29.790  19.814  1.00  0.00     0.050 C 
HETATM    2  C3  UNL     1      55.781  30.869  19.776  1.00  0.00     0.012 C 
HETATM    3  C4  UNL     1      56.809  30.366  20.757  1.00  0.00     0.001 C 
HETATM    4  C5  UNL     1      56.188  29.200  21.492  1.00  0.00     0.001 C 
HETATM    5  C6  UNL     1      54.707  29.454  21.297  1.00  0.00     0.012 C 
ENDROOT
BRANCH   1   6
HETATM    6  C1  UNL     1      53.416  30.435  19.408  1.00  0.00     0.090 C 
HETATM    7  N1  UNL     1      52.274  29.797  19.449  1.00  0.00    -0.391 N 
ATOM      8  H12 UNL     1      51.399  30.241  19.170  1.00  0.00     0.157 HD
ATOM      9  H11 UNL     1      52.237  28.829  19.765  1.00  0.00     0.157 HD
HETATM   10  N2  UNL     1      53.467  31.776  18.971  1.00  0.00    -0.088 NA
ENDBRANCH   1   6
TORSDOF 1
ENDMDL
MODEL 5
REMARK VINA RESULT: -5.162152170      0.492      1.263
REMARK  1 active torsions:
REMARK  status: ('A' for Active; 'I' for Inactive)
REMARK    1  A    between atoms: C1_4  and  C2_6 
ROOT
HETATM    1  C2  UNL     1      55.048  30.618  20.300  1.00  0.00     0.050 C 
HETATM    2  C3  UNL     1      54.768  29.356  21.128  1.00  0.00     0.012 C 
HETATM    3  C4  UNL     1      56.144  28.862  21.495  1.00  0.00     0.001 C 
HETATM    4  C5  UNL     1      57.136  29.669  20.686  1.00  0.00     0.001 C 
HETATM    5  C6  UNL     1      56.281  30.161  19.536  1.00  0.00     0.012 C 
ENDROOT
BRANCH   1   6
HETATM    6  C1  UNL     1      53.885  30.824  19.401  1.00  0.00     0.090 C 
HETATM    7  N1  UNL     1      53.764  31.896  18.661  1.00  0.00    -0.391 N 
ATOM      8  H12 UNL     1      52.965  32.037  18.043  1.00  0.00     0.157 HD
ATOM      9  H11 UNL     1      54.478  32.624  18.690  1.00  0.00     0.157 HD
HETATM   10  N2  UNL     1      52.897  29.817  19.362  1.00  0.00    -0.088 NA
ENDBRANCH   1   6
TORSDOF 1
ENDMDL
