MODEL 1
REMARK VINA RESULT: -10.724482244      0.000      0.000
REMARK  7 active torsions:
REMARK  status: ('A' for Active; 'I' for Inactive)
REMARK    1  A    between atoms: C4_6  and  N2_7 
REMARK    2  A    between atoms: N6_17  and  C7_18 
REMARK    3  A    between atoms: N7_21  and  C10_22 
REMARK    4  A    between atoms: C11_25  and  N9_26 
REMARK    5  A    between atoms: C16_34  and  N11_35 
REMARK    6  A    between atoms: C20_39  and  C21_40 
REMARK    7  A    between atoms: C21_40  and  N12_41 
ROOT
HETATM    1  C1  UNL     1      40.760  -9.741 135.839  1.00  0.00     0.019 C 
HETATM    2  C2  UNL     1      40.381  -8.770 135.235  1.00  0.00    -0.057 C 
HETATM    3  C3  UNL     1      39.939  -7.602 134.530  1.00  0.00     0.133 A 
HETATM    4  N1  UNL     1      39.968  -7.603 133.187  1.00  0.00    -0.182 N 
ATOM      5  H1  UNL     1      40.300  -8.425 132.682  1.00  0.00     0.185 HD
HETATM    6  C4  UNL     1      39.553  -6.503 132.504  1.00  0.00     0.678 A 
HETATM    7  N3  UNL     1      39.103  -5.389 133.121  1.00  0.00    -0.173 N 
ATOM      8  H3  UNL     1      38.800  -4.586 132.570  1.00  0.00     0.186 HD
HETATM    9  C5  UNL     1      39.057  -5.344 134.463  1.00  0.00     0.167 A 
HETATM   10  C6  UNL     1      39.481  -6.466 135.162  1.00  0.00     0.128 A 
HETATM   11  N4  UNL     1      39.332  -6.156 136.449  1.00  0.00    -0.278 N 
ATOM     12  H4  UNL     1      39.554  -6.766 137.236  1.00  0.00     0.184 HD
HETATM   13  N5  UNL     1      38.851  -4.930 136.539  1.00  0.00    -0.018 NA
HETATM   14  N6  UNL     1      38.669  -4.400 135.340  1.00  0.00    -0.253 N 
ENDROOT
BRANCH   6  15
HETATM   15  N2  UNL     1      39.597  -6.541 131.211  1.00  0.00    -0.234 N 
ATOM     16  H22 UNL     1      38.858  -7.021 130.698  1.00  0.00     0.174 HD
ATOM     17  H21 UNL     1      40.381  -6.082 130.746  1.00  0.00     0.174 HD
ENDBRANCH   6  15
BRANCH  14  18
HETATM   18  C7  UNL     1      38.150  -3.057 135.042  1.00  0.00     0.111 C 
HETATM   19  C8  UNL     1      37.434  -2.595 136.276  1.00  0.00     0.047 C 
HETATM   20  C9  UNL     1      37.343  -1.095 136.390  1.00  0.00     0.143 C 
HETATM   21  N7  UNL     1      38.667  -0.525 136.256  1.00  0.00    -0.216 N 
HETATM   22  C23 UNL     1      39.755  -1.407 135.895  1.00  0.00     0.143 C 
HETATM   23  C24 UNL     1      39.329  -2.190 134.677  1.00  0.00     0.047 C 
BRANCH  21  24
HETATM   24  C10 UNL     1      38.949   0.845 136.466  1.00  0.00     0.709 A 
HETATM   25  N8  UNL     1      38.109   1.646 137.185  1.00  0.00    -0.021 N 
HETATM   26  C11 UNL     1      38.343   2.942 137.397  1.00  0.00     0.709 A 
ATOM     27  H8  UNL     1      37.263   1.234 137.579  1.00  0.00     0.203 HD
HETATM   28  N10 UNL     1      39.461   3.463 136.869  1.00  0.00    -0.021 N 
HETATM   29  C16 UNL     1      40.333   2.711 136.143  1.00  0.00     0.709 A 
ATOM     30  H10 UNL     1      39.664   4.451 137.017  1.00  0.00     0.203 HD
HETATM   31  N16 UNL     1      40.058   1.407 135.955  1.00  0.00    -0.021 N 
ATOM     32  H16 UNL     1      40.705   0.833 135.413  1.00  0.00     0.203 HD
BRANCH  26  33
HETATM   33  N9  UNL     1      37.424   3.706 138.159  1.00  0.00    -0.213 N 
HETATM   34  C12 UNL     1      36.429   3.044 138.975  1.00  0.00     0.167 C 
HETATM   35  C13 UNL     1      36.469   3.596 140.383  1.00  0.00     0.188 C 
HETATM   36  O1  UNL     1      36.835   4.924 140.436  1.00  0.00    -0.388 OA
HETATM   37  C14 UNL     1      36.525   5.622 139.263  1.00  0.00     0.188 C 
HETATM   38  C15 UNL     1      37.445   5.155 138.150  1.00  0.00     0.167 C 
ENDBRANCH  26  33
BRANCH  29  39
HETATM   39  N11 UNL     1      41.525   3.286 135.589  1.00  0.00    -0.210 N 
HETATM   40  C17 UNL     1      42.309   2.665 134.574  1.00  0.00     0.142 C 
HETATM   41  C18 UNL     1      43.325   3.699 134.171  1.00  0.00     0.022 C 
HETATM   42  C19 UNL     1      42.979   4.954 134.885  1.00  0.00     0.029 C 
HETATM   43  C20 UNL     1      42.079   4.532 135.982  1.00  0.00     0.122 C 
BRANCH  43  44
HETATM   44  C21 UNL     1      42.742   4.511 137.343  1.00  0.00     0.177 C 
BRANCH  44  45
HETATM   45  N12 UNL     1      42.824   5.773 137.998  1.00  0.00    -0.269 N 
HETATM   46  C22 UNL     1      43.800   6.112 138.849  1.00  0.00     0.219 A 
HETATM   47  N13 UNL     1      43.548   7.361 139.266  1.00  0.00    -0.279 N 
HETATM   48  N14 UNL     1      42.441   7.747 138.670  1.00  0.00    -0.227 N 
ATOM     49  H13 UNL     1      44.107   7.908 139.921  1.00  0.00     0.189 HD
HETATM   50  N15 UNL     1      41.999   6.783 137.898  1.00  0.00    -0.225 N 
ATOM     51  H14 UNL     1      41.995   8.657 138.789  1.00  0.00     0.210 HD
ATOM     52  H15 UNL     1      41.159   6.815 137.321  1.00  0.00     0.210 HD
ENDBRANCH  44  45
ENDBRANCH  43  44
ENDBRANCH  29  39
ENDBRANCH  21  24
ENDBRANCH  14  18
TORSDOF 7
ENDMDL
MODEL 2
REMARK VINA RESULT: -10.478067387      2.984      4.269
REMARK  7 active torsions:
REMARK  status: ('A' for Active; 'I' for Inactive)
REMARK    1  A    between atoms: C4_6  and  N2_7 
REMARK    2  A    between atoms: N6_17  and  C7_18 
REMARK    3  A    between atoms: N7_21  and  C10_22 
REMARK    4  A    between atoms: C11_25  and  N9_26 
REMARK    5  A    between atoms: C16_34  and  N11_35 
REMARK    6  A    between atoms: C20_39  and  C21_40 
REMARK    7  A    between atoms: C21_40  and  N12_41 
ROOT
HETATM    1  C1  UNL     1      43.353  -4.540 128.200  1.00  0.00     0.019 C 
HETATM    2  C2  UNL     1      42.463  -4.318 128.981  1.00  0.00    -0.057 C 
HETATM    3  C3  UNL     1      41.403  -4.033 129.903  1.00  0.00     0.133 A 
HETATM    4  N1  UNL     1      40.479  -4.979 130.142  1.00  0.00    -0.182 N 
ATOM      5  H1  UNL     1      40.537  -5.883 129.673  1.00  0.00     0.185 HD
HETATM    6  C4  UNL     1      39.466  -4.725 131.013  1.00  0.00     0.678 A 
HETATM    7  N3  UNL     1      39.341  -3.547 131.663  1.00  0.00    -0.173 N 
ATOM      8  H3  UNL     1      38.567  -3.398 132.309  1.00  0.00     0.186 HD
HETATM    9  C5  UNL     1      40.243  -2.573 131.453  1.00  0.00     0.167 A 
HETATM   10  C6  UNL     1      41.277  -2.830 130.564  1.00  0.00     0.128 A 
HETATM   11  N4  UNL     1      42.011  -1.718 130.544  1.00  0.00    -0.278 N 
ATOM     12  H4  UNL     1      42.853  -1.572 129.988  1.00  0.00     0.184 HD
HETATM   13  N5  UNL     1      41.467  -0.836 131.363  1.00  0.00    -0.018 NA
HETATM   14  N6  UNL     1      40.381  -1.325 131.939  1.00  0.00    -0.253 N 
ENDROOT
BRANCH   6  15
HETATM   15  N2  UNL     1      38.594  -5.659 131.217  1.00  0.00    -0.234 N 
ATOM     16  H22 UNL     1      37.730  -5.666 130.675  1.00  0.00     0.174 HD
ATOM     17  H21 UNL     1      38.806  -6.365 131.923  1.00  0.00     0.174 HD
ENDBRANCH   6  15
BRANCH  14  18
HETATM   18  C7  UNL     1      39.514  -0.638 132.907  1.00  0.00     0.111 C 
HETATM   19  C8  UNL     1      39.910  -1.141 134.263  1.00  0.00     0.047 C 
HETATM   20  C9  UNL     1      39.575  -0.184 135.378  1.00  0.00     0.143 C 
HETATM   21  N7  UNL     1      40.129   1.118 135.072  1.00  0.00    -0.216 N 
HETATM   22  C23 UNL     1      40.724   1.316 133.769  1.00  0.00     0.143 C 
HETATM   23  C24 UNL     1      39.733   0.844 132.733  1.00  0.00     0.047 C 
BRANCH  21  24
HETATM   24  C10 UNL     1      40.123   2.200 135.983  1.00  0.00     0.709 A 
HETATM   25  N8  UNL     1      39.091   2.394 136.856  1.00  0.00    -0.021 N 
HETATM   26  C11 UNL     1      39.051   3.406 137.724  1.00  0.00     0.709 A 
ATOM     27  H8  UNL     1      38.313   1.733 136.845  1.00  0.00     0.203 HD
HETATM   28  N10 UNL     1      40.084   4.263 137.722  1.00  0.00    -0.021 N 
HETATM   29  C16 UNL     1      41.139   4.118 136.873  1.00  0.00     0.709 A 
ATOM     30  H10 UNL     1      40.079   5.045 138.376  1.00  0.00     0.203 HD
HETATM   31  N16 UNL     1      41.138   3.081 136.014  1.00  0.00    -0.021 N 
ATOM     32  H16 UNL     1      41.922   2.962 135.374  1.00  0.00     0.203 HD
BRANCH  26  33
HETATM   33  N9  UNL     1      37.946   3.536 138.601  1.00  0.00    -0.213 N 
HETATM   34  C12 UNL     1      36.698   2.868 138.303  1.00  0.00     0.167 C 
HETATM   35  C13 UNL     1      36.240   2.072 139.505  1.00  0.00     0.188 C 
HETATM   36  O1  UNL     1      36.610   2.641 140.706  1.00  0.00    -0.388 OA
HETATM   37  C14 UNL     1      36.777   4.028 140.623  1.00  0.00     0.188 C 
HETATM   38  C15 UNL     1      38.022   4.331 139.811  1.00  0.00     0.167 C 
ENDBRANCH  26  33
BRANCH  29  39
HETATM   39  N11 UNL     1      42.235   5.043 136.888  1.00  0.00    -0.210 N 
HETATM   40  C17 UNL     1      42.112   6.425 136.565  1.00  0.00     0.142 C 
HETATM   41  C18 UNL     1      43.447   7.031 136.904  1.00  0.00     0.022 C 
HETATM   42  C19 UNL     1      44.252   5.973 137.565  1.00  0.00     0.029 C 
HETATM   43  C20 UNL     1      43.573   4.705 137.217  1.00  0.00     0.122 C 
BRANCH  43  44
HETATM   44  C21 UNL     1      44.287   3.904 136.147  1.00  0.00     0.177 C 
BRANCH  44  45
HETATM   45  N12 UNL     1      44.984   2.754 136.614  1.00  0.00    -0.269 N 
HETATM   46  C22 UNL     1      46.196   2.792 137.182  1.00  0.00     0.219 A 
HETATM   47  N13 UNL     1      46.532   1.530 137.487  1.00  0.00    -0.279 N 
HETATM   48  N14 UNL     1      45.533   0.765 137.104  1.00  0.00    -0.227 N 
ATOM     49  H13 UNL     1      47.396   1.222 137.933  1.00  0.00     0.189 HD
HETATM   50  N15 UNL     1      44.591   1.507 136.572  1.00  0.00    -0.225 N 
ATOM     51  H14 UNL     1      45.497  -0.249 137.205  1.00  0.00     0.210 HD
ATOM     52  H15 UNL     1      43.706   1.170 136.192  1.00  0.00     0.210 HD
ENDBRANCH  44  45
ENDBRANCH  43  44
ENDBRANCH  29  39
ENDBRANCH  21  24
ENDBRANCH  14  18
TORSDOF 7
ENDMDL
MODEL 3
REMARK VINA RESULT: -10.374992842      6.043     12.185
REMARK  7 active torsions:
REMARK  status: ('A' for Active; 'I' for Inactive)
REMARK    1  A    between atoms: C4_6  and  N2_7 
REMARK    2  A    between atoms: N6_17  and  C7_18 
REMARK    3  A    between atoms: N7_21  and  C10_22 
REMARK    4  A    between atoms: C11_25  and  N9_26 
REMARK    5  A    between atoms: C16_34  and  N11_35 
REMARK    6  A    between atoms: C20_39  and  C21_40 
REMARK    7  A    between atoms: C21_40  and  N12_41 
ROOT
HETATM    1  C1  UNL     1      45.431   5.440 135.584  1.00  0.00     0.019 C 
HETATM    2  C2  UNL     1      44.791   4.441 135.372  1.00  0.00    -0.057 C 
HETATM    3  C3  UNL     1      44.031   3.257 135.099  1.00  0.00     0.133 A 
HETATM    4  N1  UNL     1      44.322   2.129 135.769  1.00  0.00    -0.182 N 
ATOM      5  H1  UNL     1      45.072   2.122 136.460  1.00  0.00     0.185 HD
HETATM    6  C4  UNL     1      43.610   0.997 135.522  1.00  0.00     0.678 A 
HETATM    7  N3  UNL     1      42.606   0.950 134.620  1.00  0.00    -0.173 N 
ATOM      8  H3  UNL     1      42.096   0.080 134.466  1.00  0.00     0.186 HD
HETATM    9  C5  UNL     1      42.281   2.054 133.927  1.00  0.00     0.167 A 
HETATM   10  C6  UNL     1      43.007   3.211 134.178  1.00  0.00     0.128 A 
HETATM   11  N4  UNL     1      42.487   4.135 133.371  1.00  0.00    -0.278 N 
ATOM     12  H4  UNL     1      42.794   5.106 133.305  1.00  0.00     0.184 HD
HETATM   13  N5  UNL     1      41.511   3.588 132.671  1.00  0.00    -0.018 NA
HETATM   14  N6  UNL     1      41.354   2.312 132.986  1.00  0.00    -0.253 N 
ENDROOT
BRANCH   6  15
HETATM   15  N2  UNL     1      43.920  -0.070 136.186  1.00  0.00    -0.234 N 
ATOM     16  H22 UNL     1      44.730  -0.620 135.900  1.00  0.00     0.174 HD
ATOM     17  H21 UNL     1      43.334  -0.325 136.981  1.00  0.00     0.174 HD
ENDBRANCH   6  15
BRANCH  14  18
HETATM   18  C7  UNL     1      40.369   1.380 132.417  1.00  0.00     0.111 C 
HETATM   19  C8  UNL     1      40.212   1.757 130.974  1.00  0.00     0.047 C 
HETATM   20  C9  UNL     1      39.726   0.623 130.109  1.00  0.00     0.143 C 
HETATM   21  N7  UNL     1      40.582  -0.527 130.304  1.00  0.00    -0.216 N 
HETATM   22  C23 UNL     1      41.587  -0.461 131.343  1.00  0.00     0.143 C 
HETATM   23  C24 UNL     1      40.906  -0.016 132.614  1.00  0.00     0.047 C 
BRANCH  21  24
HETATM   24  C10 UNL     1      40.490  -1.707 129.528  1.00  0.00     0.709 A 
HETATM   25  N8  UNL     1      41.521  -2.600 129.460  1.00  0.00    -0.021 N 
HETATM   26  C11 UNL     1      41.469  -3.718 128.734  1.00  0.00     0.709 A 
ATOM     27  H8  UNL     1      42.372  -2.403 129.988  1.00  0.00     0.203 HD
HETATM   28  N10 UNL     1      40.341  -3.958 128.048  1.00  0.00    -0.021 N 
HETATM   29  C16 UNL     1      39.283  -3.101 128.080  1.00  0.00     0.709 A 
ATOM     30  H10 UNL     1      40.274  -4.806 127.486  1.00  0.00     0.203 HD
HETATM   31  N16 UNL     1      39.379  -1.985 128.826  1.00  0.00    -0.021 N 
ATOM     32  H16 UNL     1      38.592  -1.337 128.859  1.00  0.00     0.203 HD
BRANCH  26  33
HETATM   33  N9  UNL     1      42.580  -4.597 128.718  1.00  0.00    -0.213 N 
HETATM   34  C12 UNL     1      43.367  -4.751 127.513  1.00  0.00     0.167 C 
HETATM   35  C13 UNL     1      44.835  -4.561 127.830  1.00  0.00     0.188 C 
HETATM   36  O1  UNL     1      45.174  -4.973 129.101  1.00  0.00    -0.388 OA
HETATM   37  C14 UNL     1      44.325  -5.970 129.596  1.00  0.00     0.188 C 
HETATM   38  C15 UNL     1      42.964  -5.363 129.886  1.00  0.00     0.167 C 
ENDBRANCH  26  33
BRANCH  29  39
HETATM   39  N11 UNL     1      38.085  -3.377 127.341  1.00  0.00    -0.210 N 
HETATM   40  C17 UNL     1      37.092  -4.311 127.756  1.00  0.00     0.142 C 
HETATM   41  C18 UNL     1      35.947  -4.124 126.798  1.00  0.00     0.022 C 
HETATM   42  C19 UNL     1      36.279  -2.958 125.942  1.00  0.00     0.029 C 
HETATM   43  C20 UNL     1      37.738  -2.766 126.107  1.00  0.00     0.122 C 
BRANCH  43  44
HETATM   44  C21 UNL     1      38.555  -3.251 124.928  1.00  0.00     0.177 C 
BRANCH  44  45
HETATM   45  N12 UNL     1      39.653  -2.419 124.567  1.00  0.00    -0.269 N 
HETATM   46  C22 UNL     1      39.853  -1.190 125.059  1.00  0.00     0.219 A 
HETATM   47  N13 UNL     1      40.973  -0.714 124.494  1.00  0.00    -0.279 N 
HETATM   48  N14 UNL     1      41.419  -1.648 123.684  1.00  0.00    -0.227 N 
ATOM     49  H13 UNL     1      41.396   0.199 124.661  1.00  0.00     0.189 HD
HETATM   50  N15 UNL     1      40.618  -2.686 123.726  1.00  0.00    -0.225 N 
ATOM     51  H14 UNL     1      42.260  -1.576 123.110  1.00  0.00     0.210 HD
ATOM     52  H15 UNL     1      40.729  -3.550 123.196  1.00  0.00     0.210 HD
ENDBRANCH  44  45
ENDBRANCH  43  44
ENDBRANCH  29  39
ENDBRANCH  21  24
ENDBRANCH  14  18
TORSDOF 7
ENDMDL
MODEL 4
REMARK VINA RESULT: -10.369164771      1.901      3.980
REMARK  7 active torsions:
REMARK  status: ('A' for Active; 'I' for Inactive)
REMARK    1  A    between atoms: C4_6  and  N2_7 
REMARK    2  A    between atoms: N6_17  and  C7_18 
REMARK    3  A    between atoms: N7_21  and  C10_22 
REMARK    4  A    between atoms: C11_25  and  N9_26 
REMARK    5  A    between atoms: C16_34  and  N11_35 
REMARK    6  A    between atoms: C20_39  and  C21_40 
REMARK    7  A    between atoms: C21_40  and  N12_41 
ROOT
HETATM    1  C1  UNL     1      40.819 -10.054 136.321  1.00  0.00     0.019 C 
HETATM    2  C2  UNL     1      40.461  -9.094 135.686  1.00  0.00    -0.057 C 
HETATM    3  C3  UNL     1      40.043  -7.941 134.944  1.00  0.00     0.133 A 
HETATM    4  N1  UNL     1      40.122  -7.966 133.603  1.00  0.00    -0.182 N 
ATOM      5  H1  UNL     1      40.474  -8.796 133.126  1.00  0.00     0.185 HD
HETATM    6  C4  UNL     1      39.731  -6.880 132.885  1.00  0.00     0.678 A 
HETATM    7  N3  UNL     1      39.256  -5.755 133.465  1.00  0.00    -0.173 N 
ATOM      8  H3  UNL     1      38.972  -4.963 132.889  1.00  0.00     0.186 HD
HETATM    9  C5  UNL     1      39.160  -5.686 134.803  1.00  0.00     0.167 A 
HETATM   10  C6  UNL     1      39.560  -6.794 135.538  1.00  0.00     0.128 A 
HETATM   11  N4  UNL     1      39.363  -6.462 136.813  1.00  0.00    -0.278 N 
ATOM     12  H4  UNL     1      39.557  -7.057 137.618  1.00  0.00     0.184 HD
HETATM   13  N5  UNL     1      38.877  -5.235 136.863  1.00  0.00    -0.018 NA
HETATM   14  N6  UNL     1      38.738  -4.728 135.648  1.00  0.00    -0.253 N 
ENDROOT
BRANCH   6  15
HETATM   15  N2  UNL     1      39.823  -6.940 131.596  1.00  0.00    -0.234 N 
ATOM     16  H22 UNL     1      39.016  -6.693 131.024  1.00  0.00     0.174 HD
ATOM     17  H21 UNL     1      40.712  -7.238 131.194  1.00  0.00     0.174 HD
ENDBRANCH   6  15
BRANCH  14  18
HETATM   18  C7  UNL     1      38.228  -3.391 135.307  1.00  0.00     0.111 C 
HETATM   19  C8  UNL     1      37.763  -2.774 136.592  1.00  0.00     0.047 C 
HETATM   20  C9  UNL     1      37.754  -1.267 136.563  1.00  0.00     0.143 C 
HETATM   21  N7  UNL     1      39.054  -0.790 136.143  1.00  0.00    -0.216 N 
HETATM   22  C23 UNL     1      40.024  -1.763 135.693  1.00  0.00     0.143 C 
HETATM   23  C24 UNL     1      39.357  -2.633 134.655  1.00  0.00     0.047 C 
BRANCH  21  24
HETATM   24  C10 UNL     1      39.424   0.576 136.157  1.00  0.00     0.709 A 
HETATM   25  N8  UNL     1      40.276   1.095 135.225  1.00  0.00    -0.021 N 
HETATM   26  C11 UNL     1      40.648   2.376 135.212  1.00  0.00     0.709 A 
ATOM     27  H8  UNL     1      40.645   0.475 134.503  1.00  0.00     0.203 HD
HETATM   28  N10 UNL     1      40.151   3.174 136.170  1.00  0.00    -0.021 N 
HETATM   29  C16 UNL     1      39.299   2.708 137.124  1.00  0.00     0.709 A 
ATOM     30  H10 UNL     1      40.419   4.157 136.183  1.00  0.00     0.203 HD
HETATM   31  N16 UNL     1      38.949   1.409 137.098  1.00  0.00    -0.021 N 
ATOM     32  H16 UNL     1      38.310   1.050 137.808  1.00  0.00     0.203 HD
BRANCH  26  33
HETATM   33  N9  UNL     1      41.533   2.840 134.208  1.00  0.00    -0.213 N 
HETATM   34  C12 UNL     1      41.450   2.309 132.864  1.00  0.00     0.167 C 
HETATM   35  C13 UNL     1      41.371   3.445 131.867  1.00  0.00     0.188 C 
HETATM   36  O1  UNL     1      42.051   4.573 132.272  1.00  0.00    -0.388 OA
HETATM   37  C14 UNL     1      43.106   4.288 133.146  1.00  0.00     0.188 C 
HETATM   38  C15 UNL     1      42.539   3.846 134.483  1.00  0.00     0.167 C 
ENDBRANCH  26  33
BRANCH  29  39
HETATM   39  N11 UNL     1      38.776   3.578 138.138  1.00  0.00    -0.210 N 
HETATM   40  C17 UNL     1      37.457   3.478 138.667  1.00  0.00     0.142 C 
HETATM   41  C18 UNL     1      37.420   4.444 139.821  1.00  0.00     0.022 C 
HETATM   42  C19 UNL     1      38.799   4.961 140.003  1.00  0.00     0.029 C 
HETATM   43  C20 UNL     1      39.495   4.647 138.735  1.00  0.00     0.122 C 
BRANCH  43  44
HETATM   44  C21 UNL     1      39.684   5.846 137.829  1.00  0.00     0.177 C 
BRANCH  44  45
HETATM   45  N12 UNL     1      41.037   6.201 137.568  1.00  0.00    -0.269 N 
HETATM   46  C22 UNL     1      42.090   5.471 137.952  1.00  0.00     0.219 A 
HETATM   47  N13 UNL     1      43.193   6.113 137.538  1.00  0.00    -0.279 N 
HETATM   48  N14 UNL     1      42.791   7.203 136.922  1.00  0.00    -0.227 N 
ATOM     49  H13 UNL     1      44.158   5.813 137.674  1.00  0.00     0.189 HD
HETATM   50  N15 UNL     1      41.480   7.259 136.938  1.00  0.00    -0.225 N 
ATOM     51  H14 UNL     1      43.404   7.898 136.496  1.00  0.00     0.210 HD
ATOM     52  H15 UNL     1      40.907   7.999 136.532  1.00  0.00     0.210 HD
ENDBRANCH  44  45
ENDBRANCH  43  44
ENDBRANCH  29  39
ENDBRANCH  21  24
ENDBRANCH  14  18
TORSDOF 7
ENDMDL
MODEL 5
REMARK VINA RESULT: -10.360568380      3.945      4.985
REMARK  7 active torsions:
REMARK  status: ('A' for Active; 'I' for Inactive)
REMARK    1  A    between atoms: C4_6  and  N2_7 
REMARK    2  A    between atoms: N6_17  and  C7_18 
REMARK    3  A    between atoms: N7_21  and  C10_22 
REMARK    4  A    between atoms: C11_25  and  N9_26 
REMARK    5  A    between atoms: C16_34  and  N11_35 
REMARK    6  A    between atoms: C20_39  and  C21_40 
REMARK    7  A    between atoms: C21_40  and  N12_41 
ROOT
HETATM    1  C1  UNL     1      42.251  -4.789 126.914  1.00  0.00     0.019 C 
HETATM    2  C2  UNL     1      41.752  -3.748 127.261  1.00  0.00    -0.057 C 
HETATM    3  C3  UNL     1      41.171  -2.509 127.688  1.00  0.00     0.133 A 
HETATM    4  N1  UNL     1      40.792  -1.614 126.761  1.00  0.00    -0.182 N 
ATOM      5  H1  UNL     1      40.917  -1.819 125.769  1.00  0.00     0.185 HD
HETATM    6  C4  UNL     1      40.242  -0.434 127.150  1.00  0.00     0.678 A 
HETATM    7  N3  UNL     1      40.052  -0.110 128.448  1.00  0.00    -0.173 N 
ATOM      8  H3  UNL     1      39.634   0.786 128.697  1.00  0.00     0.186 HD
HETATM    9  C5  UNL     1      40.417  -0.975 129.409  1.00  0.00     0.167 A 
HETATM   10  C6  UNL     1      40.980  -2.181 129.014  1.00  0.00     0.128 A 
HETATM   11  N4  UNL     1      41.243  -2.836 130.144  1.00  0.00    -0.278 N 
ATOM     12  H4  UNL     1      41.664  -3.762 130.209  1.00  0.00     0.184 HD
HETATM   13  N5  UNL     1      40.869  -2.087 131.165  1.00  0.00    -0.018 NA
HETATM   14  N6  UNL     1      40.357  -0.938 130.753  1.00  0.00    -0.253 N 
ENDROOT
BRANCH   6  15
HETATM   15  N2  UNL     1      39.890   0.404 126.228  1.00  0.00    -0.234 N 
ATOM     16  H22 UNL     1      39.446   1.283 126.493  1.00  0.00     0.174 HD
ATOM     17  H21 UNL     1      40.073   0.150 125.257  1.00  0.00     0.174 HD
ENDBRANCH   6  15
BRANCH  14  18
HETATM   18  C7  UNL     1      39.835   0.146 131.599  1.00  0.00     0.111 C 
HETATM   19  C8  UNL     1      39.402  -0.491 132.885  1.00  0.00     0.047 C 
HETATM   20  C9  UNL     1      39.389   0.464 134.051  1.00  0.00     0.143 C 
HETATM   21  N7  UNL     1      40.676   1.118 134.147  1.00  0.00    -0.216 N 
HETATM   22  C23 UNL     1      41.637   0.890 133.090  1.00  0.00     0.143 C 
HETATM   23  C24 UNL     1      40.945   1.152 131.775  1.00  0.00     0.047 C 
BRANCH  21  24
HETATM   24  C10 UNL     1      41.043   1.961 135.223  1.00  0.00     0.709 A 
HETATM   25  N8  UNL     1      40.104   2.584 135.995  1.00  0.00    -0.021 N 
HETATM   26  C11 UNL     1      40.416   3.388 137.012  1.00  0.00     0.709 A 
ATOM     27  H8  UNL     1      39.118   2.427 135.783  1.00  0.00     0.203 HD
HETATM   28  N10 UNL     1      41.718   3.580 137.272  1.00  0.00    -0.021 N 
HETATM   29  C16 UNL     1      42.695   2.985 136.535  1.00  0.00     0.709 A 
ATOM     30  H10 UNL     1      41.983   4.190 138.045  1.00  0.00     0.203 HD
HETATM   31  N16 UNL     1      42.336   2.180 135.518  1.00  0.00    -0.021 N 
ATOM     32  H16 UNL     1      43.059   1.727 134.959  1.00  0.00     0.203 HD
BRANCH  26  33
HETATM   33  N9  UNL     1      39.383   3.995 137.769  1.00  0.00    -0.213 N 
HETATM   34  C12 UNL     1      38.021   3.522 137.651  1.00  0.00     0.167 C 
HETATM   35  C13 UNL     1      37.452   3.243 139.025  1.00  0.00     0.188 C 
HETATM   36  O1  UNL     1      37.960   4.072 140.002  1.00  0.00    -0.388 OA
HETATM   37  C14 UNL     1      38.390   5.306 139.500  1.00  0.00     0.188 C 
HETATM   38  C15 UNL     1      39.647   5.095 138.675  1.00  0.00     0.167 C 
ENDBRANCH  26  33
BRANCH  29  39
HETATM   39  N11 UNL     1      44.082   3.200 136.831  1.00  0.00    -0.210 N 
HETATM   40  C17 UNL     1      45.037   2.152 136.971  1.00  0.00     0.142 C 
HETATM   41  C18 UNL     1      46.370   2.843 137.076  1.00  0.00     0.022 C 
HETATM   42  C19 UNL     1      46.134   4.288 136.837  1.00  0.00     0.029 C 
HETATM   43  C20 UNL     1      44.678   4.474 137.029  1.00  0.00     0.122 C 
BRANCH  43  44
HETATM   44  C21 UNL     1      44.313   5.127 138.346  1.00  0.00     0.177 C 
BRANCH  44  45
HETATM   45  N12 UNL     1      43.550   6.324 138.239  1.00  0.00    -0.269 N 
HETATM   46  C22 UNL     1      43.170   6.867 137.076  1.00  0.00     0.219 A 
HETATM   47  N13 UNL     1      42.476   7.979 137.364  1.00  0.00    -0.279 N 
HETATM   48  N14 UNL     1      42.452   8.084 138.675  1.00  0.00    -0.227 N 
ATOM     49  H13 UNL     1      42.050   8.619 136.695  1.00  0.00     0.189 HD
HETATM   50  N15 UNL     1      43.104   7.079 139.209  1.00  0.00    -0.225 N 
ATOM     51  H14 UNL     1      41.995   8.833 139.196  1.00  0.00     0.210 HD
ATOM     52  H15 UNL     1      43.239   6.915 140.206  1.00  0.00     0.210 HD
ENDBRANCH  44  45
ENDBRANCH  43  44
ENDBRANCH  29  39
ENDBRANCH  21  24
ENDBRANCH  14  18
TORSDOF 7
ENDMDL
