MODEL 1
REMARK VINA RESULT: -8.793353237      0.000      0.000
REMARK  10 active torsions:
REMARK  status: ('A' for Active; 'I' for Inactive)
REMARK    1  A    between atoms: C12_12  and  N1_13 
REMARK       I    between atoms: N1_13  and  C13_15 
REMARK    2  A    between atoms: C13_15  and  C14_17 
REMARK    3  A    between atoms: C14_17  and  C15_18 
REMARK    4  A    between atoms: C15_18  and  C16_19 
REMARK    5  A    between atoms: C16_19  and  C17_20 
REMARK    6  A    between atoms: C17_20  and  N2_21 
REMARK    7  A    between atoms: N2_21  and  C19_23 
REMARK    8  A    between atoms: C19_23  and  C20_24 
REMARK    9  A    between atoms: C20_24  and  C21_25 
REMARK   10  A    between atoms: C25_29  and  C26_30 
ROOT
HETATM    1  C1  UNL     1      11.889  -5.487  20.982  1.00  0.00     0.102 C 
HETATM    2  C2  UNL     1      11.719  -5.730  22.176  1.00  0.00    -0.153 C 
HETATM    3  C3  UNL     1      11.552  -5.962  23.568  1.00  0.00    -0.014 C 
HETATM    4  C4  UNL     1      10.993  -7.056  24.033  1.00  0.00    -0.046 C 
HETATM    5  C5  UNL     1      10.898  -7.128  25.547  1.00  0.00    -0.011 C 
HETATM    6  C6  UNL     1       9.787  -6.185  25.959  1.00  0.00     0.021 C 
HETATM    7  C7  UNL     1      10.514  -8.487  26.055  1.00  0.00     0.015 C 
HETATM    8  C8  UNL     1       9.343  -8.994  25.312  1.00  0.00     0.007 C 
HETATM    9  C9  UNL     1       9.349  -8.912  23.876  1.00  0.00     0.000 C 
HETATM   10  C10 UNL     1       9.371 -10.275  23.232  1.00  0.00     0.008 C 
HETATM   11  C11 UNL     1      10.738 -10.431  22.682  1.00  0.00     0.027 C 
HETATM   12  C12 UNL     1      11.534  -9.207  23.089  1.00  0.00     0.097 C 
HETATM   13  C23 UNL     1      10.494  -8.103  23.211  1.00  0.00     0.005 C 
HETATM   14  C24 UNL     1       9.966  -7.926  21.868  1.00  0.00     0.023 C 
HETATM   15  C25 UNL     1      12.183  -6.695  26.147  1.00  0.00     0.026 C 
HETATM   16  C29 UNL     1      12.771  -5.411  25.638  1.00  0.00     0.015 C 
HETATM   17  C30 UNL     1      12.069  -4.873  24.451  1.00  0.00     0.048 C 
ENDROOT
BRANCH  15  18
HETATM   18  C26 UNL     1      12.303  -6.626  27.606  1.00  0.00    -0.088 C 
HETATM   19  C27 UNL     1      11.474  -6.272  28.541  1.00  0.00     0.014 C 
HETATM   20  C28 UNL     1      13.688  -7.044  28.117  1.00  0.00     0.043 C 
ENDBRANCH  15  18
BRANCH  12  21
HETATM   21  N1  UNL     1      12.576  -8.971  22.136  1.00  0.00    -0.355 N 
HETATM   22  C13 UNL     1      13.935  -8.705  22.531  1.00  0.00     0.217 C 
HETATM   23  O1  UNL     1      14.179  -8.687  23.760  1.00  0.00    -0.274 OA
ATOM     24  H1  UNL     1      12.348  -8.991  21.142  1.00  0.00     0.162 HD
BRANCH  22  25
HETATM   25  C14 UNL     1      15.035  -8.457  21.596  1.00  0.00     0.103 C 
BRANCH  25  26
HETATM   26  C15 UNL     1      16.155  -9.440  21.715  1.00  0.00     0.011 C 
BRANCH  26  27
HETATM   27  C16 UNL     1      16.371 -10.029  20.313  1.00  0.00     0.031 C 
BRANCH  27  28
HETATM   28  C17 UNL     1      15.214 -10.929  20.023  1.00  0.00     0.271 C 
BRANCH  28  29
HETATM   29  N2  UNL     1      15.548 -11.953  19.083  1.00  0.00     0.084 N 
HETATM   30  C18 UNL     1      16.810 -11.633  18.424  1.00  0.00     0.309 C 
BRANCH  29  31
HETATM   31  C19 UNL     1      14.487 -12.159  18.144  1.00  0.00     0.271 C 
BRANCH  31  32
HETATM   32  C20 UNL     1      14.996 -12.460  16.748  1.00  0.00     0.030 C 
BRANCH  32  33
HETATM   33  C21 UNL     1      14.547 -13.880  16.406  1.00  0.00    -0.003 C 
HETATM   34  C22 UNL     1      15.691 -14.846  16.481  1.00  0.00     0.005 C 
ENDBRANCH  32  33
ENDBRANCH  31  32
ENDBRANCH  29  31
ENDBRANCH  28  29
ENDBRANCH  27  28
ENDBRANCH  26  27
ENDBRANCH  25  26
ENDBRANCH  22  25
ENDBRANCH  12  21
TORSDOF 10
ENDMDL
MODEL 2
REMARK VINA RESULT: -8.666397293      4.088      7.557
REMARK  10 active torsions:
REMARK  status: ('A' for Active; 'I' for Inactive)
REMARK    1  A    between atoms: C12_12  and  N1_13 
REMARK       I    between atoms: N1_13  and  C13_15 
REMARK    2  A    between atoms: C13_15  and  C14_17 
REMARK    3  A    between atoms: C14_17  and  C15_18 
REMARK    4  A    between atoms: C15_18  and  C16_19 
REMARK    5  A    between atoms: C16_19  and  C17_20 
REMARK    6  A    between atoms: C17_20  and  N2_21 
REMARK    7  A    between atoms: N2_21  and  C19_23 
REMARK    8  A    between atoms: C19_23  and  C20_24 
REMARK    9  A    between atoms: C20_24  and  C21_25 
REMARK   10  A    between atoms: C25_29  and  C26_30 
ROOT
HETATM    1  C1  UNL     1      14.824  -7.340  25.558  1.00  0.00     0.102 C 
HETATM    2  C2  UNL     1      13.906  -7.681  24.812  1.00  0.00    -0.153 C 
HETATM    3  C3  UNL     1      12.883  -8.066  23.904  1.00  0.00    -0.014 C 
HETATM    4  C4  UNL     1      11.667  -8.360  24.306  1.00  0.00    -0.046 C 
HETATM    5  C5  UNL     1      10.707  -8.751  23.195  1.00  0.00    -0.011 C 
HETATM    6  C6  UNL     1      11.086 -10.154  22.767  1.00  0.00     0.021 C 
HETATM    7  C7  UNL     1       9.275  -8.812  23.640  1.00  0.00     0.015 C 
HETATM    8  C8  UNL     1       9.166  -9.592  24.889  1.00  0.00     0.007 C 
HETATM    9  C9  UNL     1      10.076  -9.303  25.965  1.00  0.00     0.000 C 
HETATM   10  C10 UNL     1       9.367  -8.739  27.170  1.00  0.00     0.008 C 
HETATM   11  C11 UNL     1       9.731  -7.303  27.207  1.00  0.00     0.027 C 
HETATM   12  C12 UNL     1      10.567  -7.014  25.976  1.00  0.00     0.097 C 
HETATM   13  C23 UNL     1      11.252  -8.336  25.665  1.00  0.00     0.005 C 
HETATM   14  C24 UNL     1      12.120  -8.593  26.804  1.00  0.00     0.023 C 
HETATM   15  C25 UNL     1      10.857  -7.813  22.057  1.00  0.00     0.026 C 
HETATM   16  C29 UNL     1      12.254  -7.539  21.580  1.00  0.00     0.015 C 
HETATM   17  C30 UNL     1      13.297  -8.098  22.469  1.00  0.00     0.048 C 
ENDROOT
BRANCH  15  18
HETATM   18  C26 UNL     1      10.068  -8.035  20.840  1.00  0.00    -0.088 C 
HETATM   19  C27 UNL     1       9.123  -8.875  20.546  1.00  0.00     0.014 C 
HETATM   20  C28 UNL     1      10.453  -7.092  19.692  1.00  0.00     0.043 C 
ENDBRANCH  15  18
BRANCH  12  21
HETATM   21  N1  UNL     1      11.442  -5.911  26.235  1.00  0.00    -0.355 N 
HETATM   22  C13 UNL     1      11.089  -4.555  25.906  1.00  0.00     0.217 C 
HETATM   23  O1  UNL     1       9.968  -4.369  25.375  1.00  0.00    -0.274 OA
ATOM     24  H1  UNL     1      12.348  -6.092  26.668  1.00  0.00     0.162 HD
BRANCH  22  25
HETATM   25  C14 UNL     1      11.947  -3.393  26.151  1.00  0.00     0.103 C 
BRANCH  25  26
HETATM   26  C15 UNL     1      11.222  -2.088  26.087  1.00  0.00     0.011 C 
BRANCH  26  27
HETATM   27  C16 UNL     1      11.938  -1.241  25.024  1.00  0.00     0.031 C 
BRANCH  27  28
HETATM   28  C17 UNL     1      10.887  -0.643  24.147  1.00  0.00     0.271 C 
BRANCH  28  29
HETATM   29  N2  UNL     1      11.043  -1.025  22.779  1.00  0.00     0.084 N 
HETATM   30  C18 UNL     1      10.189  -0.200  21.930  1.00  0.00     0.309 C 
BRANCH  29  31
HETATM   31  C19 UNL     1      10.790  -2.423  22.600  1.00  0.00     0.271 C 
BRANCH  31  32
HETATM   32  C20 UNL     1      11.836  -3.098  21.735  1.00  0.00     0.030 C 
BRANCH  32  33
HETATM   33  C21 UNL     1      12.411  -4.254  22.551  1.00  0.00    -0.003 C 
HETATM   34  C22 UNL     1      13.725  -3.883  23.169  1.00  0.00     0.005 C 
ENDBRANCH  32  33
ENDBRANCH  31  32
ENDBRANCH  29  31
ENDBRANCH  28  29
ENDBRANCH  27  28
ENDBRANCH  26  27
ENDBRANCH  25  26
ENDBRANCH  22  25
ENDBRANCH  12  21
TORSDOF 10
ENDMDL
MODEL 3
REMARK VINA RESULT: -8.653145042      1.212      2.288
REMARK  10 active torsions:
REMARK  status: ('A' for Active; 'I' for Inactive)
REMARK    1  A    between atoms: C12_12  and  N1_13 
REMARK       I    between atoms: N1_13  and  C13_15 
REMARK    2  A    between atoms: C13_15  and  C14_17 
REMARK    3  A    between atoms: C14_17  and  C15_18 
REMARK    4  A    between atoms: C15_18  and  C16_19 
REMARK    5  A    between atoms: C16_19  and  C17_20 
REMARK    6  A    between atoms: C17_20  and  N2_21 
REMARK    7  A    between atoms: N2_21  and  C19_23 
REMARK    8  A    between atoms: C19_23  and  C20_24 
REMARK    9  A    between atoms: C20_24  and  C21_25 
REMARK   10  A    between atoms: C25_29  and  C26_30 
ROOT
HETATM    1  C1  UNL     1      11.830  -5.506  21.007  1.00  0.00     0.102 C 
HETATM    2  C2  UNL     1      11.648  -5.746  22.200  1.00  0.00    -0.153 C 
HETATM    3  C3  UNL     1      11.467  -5.974  23.591  1.00  0.00    -0.014 C 
HETATM    4  C4  UNL     1      10.910  -7.069  24.054  1.00  0.00    -0.046 C 
HETATM    5  C5  UNL     1      10.798  -7.136  25.568  1.00  0.00    -0.011 C 
HETATM    6  C6  UNL     1       9.677  -6.198  25.963  1.00  0.00     0.021 C 
HETATM    7  C7  UNL     1      10.417  -8.496  26.077  1.00  0.00     0.015 C 
HETATM    8  C8  UNL     1       9.257  -9.012  25.322  1.00  0.00     0.007 C 
HETATM    9  C9  UNL     1       9.278  -8.936  23.886  1.00  0.00     0.000 C 
HETATM   10  C10 UNL     1       9.317 -10.302  23.247  1.00  0.00     0.008 C 
HETATM   11  C11 UNL     1      10.690 -10.451  22.713  1.00  0.00     0.027 C 
HETATM   12  C12 UNL     1      11.474  -9.220  23.124  1.00  0.00     0.097 C 
HETATM   13  C23 UNL     1      10.426  -8.122  23.231  1.00  0.00     0.005 C 
HETATM   14  C24 UNL     1       9.912  -7.954  21.881  1.00  0.00     0.023 C 
HETATM   15  C25 UNL     1      12.074  -6.693  26.179  1.00  0.00     0.026 C 
HETATM   16  C29 UNL     1      12.660  -5.407  25.672  1.00  0.00     0.015 C 
HETATM   17  C30 UNL     1      11.968  -4.878  24.475  1.00  0.00     0.048 C 
ENDROOT
BRANCH  15  18
HETATM   18  C26 UNL     1      12.177  -6.618  27.640  1.00  0.00    -0.088 C 
HETATM   19  C27 UNL     1      11.323  -6.305  28.567  1.00  0.00     0.014 C 
HETATM   20  C28 UNL     1      13.577  -6.965  28.164  1.00  0.00     0.043 C 
ENDBRANCH  15  18
BRANCH  12  21
HETATM   21  N1  UNL     1      12.525  -8.981  22.182  1.00  0.00    -0.355 N 
HETATM   22  C13 UNL     1      13.873  -8.684  22.591  1.00  0.00     0.217 C 
HETATM   23  O1  UNL     1      14.099  -8.639  23.823  1.00  0.00    -0.274 OA
ATOM     24  H1  UNL     1      12.312  -9.023  21.185  1.00  0.00     0.162 HD
BRANCH  22  25
HETATM   25  C14 UNL     1      14.982  -8.432  21.667  1.00  0.00     0.103 C 
BRANCH  25  26
HETATM   26  C15 UNL     1      15.986  -9.538  21.622  1.00  0.00     0.011 C 
BRANCH  26  27
HETATM   27  C16 UNL     1      16.411  -9.682  20.152  1.00  0.00     0.031 C 
BRANCH  27  28
HETATM   28  C17 UNL     1      16.130 -11.090  19.742  1.00  0.00     0.271 C 
BRANCH  28  29
HETATM   29  N2  UNL     1      17.176 -11.636  18.935  1.00  0.00     0.084 N 
HETATM   30  C18 UNL     1      16.686 -12.800  18.203  1.00  0.00     0.309 C 
BRANCH  29  31
HETATM   31  C19 UNL     1      18.331 -11.943  19.723  1.00  0.00     0.271 C 
BRANCH  31  32
HETATM   32  C20 UNL     1      19.589 -11.284  19.194  1.00  0.00     0.030 C 
BRANCH  32  33
HETATM   33  C21 UNL     1      20.479 -10.988  20.400  1.00  0.00    -0.003 C 
HETATM   34  C22 UNL     1      19.708 -10.312  21.493  1.00  0.00     0.005 C 
ENDBRANCH  32  33
ENDBRANCH  31  32
ENDBRANCH  29  31
ENDBRANCH  28  29
ENDBRANCH  27  28
ENDBRANCH  26  27
ENDBRANCH  25  26
ENDBRANCH  22  25
ENDBRANCH  12  21
TORSDOF 10
ENDMDL
MODEL 4
REMARK VINA RESULT: -8.608873113      3.691      6.326
REMARK  10 active torsions:
REMARK  status: ('A' for Active; 'I' for Inactive)
REMARK    1  A    between atoms: C12_12  and  N1_13 
REMARK       I    between atoms: N1_13  and  C13_15 
REMARK    2  A    between atoms: C13_15  and  C14_17 
REMARK    3  A    between atoms: C14_17  and  C15_18 
REMARK    4  A    between atoms: C15_18  and  C16_19 
REMARK    5  A    between atoms: C16_19  and  C17_20 
REMARK    6  A    between atoms: C17_20  and  N2_21 
REMARK    7  A    between atoms: N2_21  and  C19_23 
REMARK    8  A    between atoms: C19_23  and  C20_24 
REMARK    9  A    between atoms: C20_24  and  C21_25 
REMARK   10  A    between atoms: C25_29  and  C26_30 
ROOT
HETATM    1  C1  UNL     1      11.599  -5.578  28.582  1.00  0.00     0.102 C 
HETATM    2  C2  UNL     1      11.728  -4.891  27.569  1.00  0.00    -0.153 C 
HETATM    3  C3  UNL     1      11.831  -4.063  26.419  1.00  0.00    -0.014 C 
HETATM    4  C4  UNL     1      12.674  -4.322  25.445  1.00  0.00    -0.046 C 
HETATM    5  C5  UNL     1      12.646  -3.327  24.298  1.00  0.00    -0.011 C 
HETATM    6  C6  UNL     1      13.342  -2.075  24.791  1.00  0.00     0.021 C 
HETATM    7  C7  UNL     1      13.406  -3.790  23.089  1.00  0.00     0.015 C 
HETATM    8  C8  UNL     1      14.743  -4.276  23.488  1.00  0.00     0.007 C 
HETATM    9  C9  UNL     1      14.844  -5.186  24.597  1.00  0.00     0.000 C 
HETATM   10  C10 UNL     1      15.331  -6.548  24.170  1.00  0.00     0.008 C 
HETATM   11  C11 UNL     1      14.148  -7.437  24.256  1.00  0.00     0.027 C 
HETATM   12  C12 UNL     1      12.960  -6.576  24.638  1.00  0.00     0.097 C 
HETATM   13  C23 UNL     1      13.563  -5.431  25.439  1.00  0.00     0.005 C 
HETATM   14  C24 UNL     1      14.126  -6.053  26.627  1.00  0.00     0.023 C 
HETATM   15  C25 UNL     1      11.240  -3.021  23.939  1.00  0.00     0.026 C 
HETATM   16  C29 UNL     1      10.312  -2.671  25.066  1.00  0.00     0.015 C 
HETATM   17  C30 UNL     1      10.906  -2.891  26.405  1.00  0.00     0.048 C 
ENDROOT
BRANCH  15  18
HETATM   18  C26 UNL     1      10.969  -2.032  22.892  1.00  0.00    -0.088 C 
HETATM   19  C27 UNL     1      10.855  -2.126  21.602  1.00  0.00     0.014 C 
HETATM   20  C28 UNL     1      10.804  -0.607  23.437  1.00  0.00     0.043 C 
ENDBRANCH  15  18
BRANCH  12  21
HETATM   21  N1  UNL     1      11.991  -7.371  25.330  1.00  0.00    -0.355 N 
HETATM   22  C13 UNL     1      10.579  -7.258  25.076  1.00  0.00     0.217 C 
HETATM   23  O1  UNL     1      10.219  -6.425  24.211  1.00  0.00    -0.274 OA
ATOM     24  H1  UNL     1      12.313  -8.041  26.029  1.00  0.00     0.162 HD
BRANCH  22  25
HETATM   25  C14 UNL     1       9.550  -8.048  25.757  1.00  0.00     0.103 C 
BRANCH  25  26
HETATM   26  C15 UNL     1       9.641  -9.514  25.483  1.00  0.00     0.011 C 
BRANCH  26  27
HETATM   27  C16 UNL     1       9.147  -9.721  24.043  1.00  0.00     0.031 C 
BRANCH  27  28
HETATM   28  C17 UNL     1      10.265 -10.344  23.272  1.00  0.00     0.271 C 
BRANCH  28  29
HETATM   29  N2  UNL     1      10.432  -9.745  21.984  1.00  0.00     0.084 N 
HETATM   30  C18 UNL     1      11.725  -9.074  21.911  1.00  0.00     0.309 C 
BRANCH  29  31
HETATM   31  C19 UNL     1       9.348  -8.860  21.681  1.00  0.00     0.271 C 
BRANCH  31  32
HETATM   32  C20 UNL     1       8.630  -9.237  20.400  1.00  0.00     0.030 C 
BRANCH  32  33
HETATM   33  C21 UNL     1       8.117 -10.664  20.579  1.00  0.00    -0.003 C 
HETATM   34  C22 UNL     1       6.694 -10.676  21.050  1.00  0.00     0.005 C 
ENDBRANCH  32  33
ENDBRANCH  31  32
ENDBRANCH  29  31
ENDBRANCH  28  29
ENDBRANCH  27  28
ENDBRANCH  26  27
ENDBRANCH  25  26
ENDBRANCH  22  25
ENDBRANCH  12  21
TORSDOF 10
ENDMDL
MODEL 5
REMARK VINA RESULT: -8.499574355      2.765      5.763
REMARK  10 active torsions:
REMARK  status: ('A' for Active; 'I' for Inactive)
REMARK    1  A    between atoms: C12_12  and  N1_13 
REMARK       I    between atoms: N1_13  and  C13_15 
REMARK    2  A    between atoms: C13_15  and  C14_17 
REMARK    3  A    between atoms: C14_17  and  C15_18 
REMARK    4  A    between atoms: C15_18  and  C16_19 
REMARK    5  A    between atoms: C16_19  and  C17_20 
REMARK    6  A    between atoms: C17_20  and  N2_21 
REMARK    7  A    between atoms: N2_21  and  C19_23 
REMARK    8  A    between atoms: C19_23  and  C20_24 
REMARK    9  A    between atoms: C20_24  and  C21_25 
REMARK   10  A    between atoms: C25_29  and  C26_30 
ROOT
HETATM    1  C1  UNL     1      10.826  -6.434  28.237  1.00  0.00     0.102 C 
HETATM    2  C2  UNL     1      11.117  -5.678  27.311  1.00  0.00    -0.153 C 
HETATM    3  C3  UNL     1      11.404  -4.775  26.251  1.00  0.00    -0.014 C 
HETATM    4  C4  UNL     1      12.447  -4.926  25.467  1.00  0.00    -0.046 C 
HETATM    5  C5  UNL     1      12.593  -3.863  24.391  1.00  0.00    -0.011 C 
HETATM    6  C6  UNL     1      13.085  -2.608  25.084  1.00  0.00     0.021 C 
HETATM    7  C7  UNL     1      13.619  -4.206  23.351  1.00  0.00     0.015 C 
HETATM    8  C8  UNL     1      14.872  -4.642  24.000  1.00  0.00     0.007 C 
HETATM    9  C9  UNL     1      14.799  -5.613  25.059  1.00  0.00     0.000 C 
HETATM   10  C10 UNL     1      15.455  -6.916  24.678  1.00  0.00     0.008 C 
HETATM   11  C11 UNL     1      14.344  -7.873  24.466  1.00  0.00     0.027 C 
HETATM   12  C12 UNL     1      13.047  -7.105  24.628  1.00  0.00     0.097 C 
HETATM   13  C23 UNL     1      13.390  -5.981  25.595  1.00  0.00     0.005 C 
HETATM   14  C24 UNL     1      13.732  -6.644  26.844  1.00  0.00     0.023 C 
HETATM   15  C25 UNL     1      11.276  -3.613  23.758  1.00  0.00     0.026 C 
HETATM   16  C29 UNL     1      10.111  -3.387  24.677  1.00  0.00     0.015 C 
HETATM   17  C30 UNL     1      10.425  -3.657  26.099  1.00  0.00     0.048 C 
ENDROOT
BRANCH  15  18
HETATM   18  C26 UNL     1      11.165  -2.576  22.727  1.00  0.00    -0.088 C 
HETATM   19  C27 UNL     1      11.227  -2.615  21.431  1.00  0.00     0.014 C 
HETATM   20  C28 UNL     1      10.945  -1.172  23.306  1.00  0.00     0.043 C 
ENDBRANCH  15  18
BRANCH  12  21
HETATM   21  N1  UNL     1      12.010  -7.994  25.058  1.00  0.00    -0.355 N 
HETATM   22  C13 UNL     1      10.677  -7.940  24.519  1.00  0.00     0.217 C 
HETATM   23  O1  UNL     1      10.449  -7.071  23.644  1.00  0.00    -0.274 OA
ATOM     24  H1  UNL     1      12.224  -8.691  25.772  1.00  0.00     0.162 HD
BRANCH  22  25
HETATM   25  C14 UNL     1       9.583  -8.826  24.925  1.00  0.00     0.103 C 
BRANCH  25  26
HETATM   26  C15 UNL     1       9.491 -10.075  24.110  1.00  0.00     0.011 C 
BRANCH  26  27
HETATM   27  C16 UNL     1       8.553  -9.762  22.934  1.00  0.00     0.031 C 
BRANCH  27  28
HETATM   28  C17 UNL     1       9.246 -10.194  21.683  1.00  0.00     0.271 C 
BRANCH  28  29
HETATM   29  N2  UNL     1      10.375  -9.372  21.379  1.00  0.00     0.084 N 
HETATM   30  C18 UNL     1      10.008  -8.369  20.385  1.00  0.00     0.309 C 
BRANCH  29  31
HETATM   31  C19 UNL     1      11.493 -10.162  20.959  1.00  0.00     0.271 C 
BRANCH  31  32
HETATM   32  C20 UNL     1      12.697  -9.994  21.864  1.00  0.00     0.030 C 
BRANCH  32  33
HETATM   33  C21 UNL     1      13.908 -10.523  21.099  1.00  0.00    -0.003 C 
HETATM   34  C22 UNL     1      15.137  -9.719  21.400  1.00  0.00     0.005 C 
ENDBRANCH  32  33
ENDBRANCH  31  32
ENDBRANCH  29  31
ENDBRANCH  28  29
ENDBRANCH  27  28
ENDBRANCH  26  27
ENDBRANCH  25  26
ENDBRANCH  22  25
ENDBRANCH  12  21
TORSDOF 10
ENDMDL
