MODEL 1
REMARK VINA RESULT: -9.329984482      0.000      0.000
REMARK  3 active torsions:
REMARK  status: ('A' for Active; 'I' for Inactive)
REMARK    1  A    between atoms: C2_2  and  O1_3 
REMARK    2  A    between atoms: O1_3  and  C3_4 
REMARK    3  A    between atoms: C3_4  and  C4_6 
ROOT
HETATM    1  C4  UNL     1      19.502 -11.256  20.053  1.00  0.00     0.090 C 
HETATM    2  C5  UNL     1      20.640 -11.641  20.978  1.00  0.00     0.015 C 
HETATM    3  C6  UNL     1      21.979 -11.595  20.282  1.00  0.00     0.001 C 
HETATM    4  C7  UNL     1      21.994 -12.255  18.952  1.00  0.00     0.000 C 
HETATM    5  C8  UNL     1      21.075 -13.426  18.817  1.00  0.00     0.006 C 
HETATM    6  C9  UNL     1      19.974 -13.067  17.859  1.00  0.00     0.071 C 
HETATM    7  C10 UNL     1      18.618 -13.010  18.486  1.00  0.00     0.201 C 
HETATM    8  C11 UNL     1      18.610 -12.459  19.881  1.00  0.00     0.086 C 
HETATM    9  O3  UNL     1      17.985 -14.260  18.534  1.00  0.00    -0.197 OA
HETATM   10  O4  UNL     1      16.708 -13.865  18.600  1.00  0.00    -0.197 OA
HETATM   11  C12 UNL     1      16.655 -13.088  17.416  1.00  0.00     0.205 C 
HETATM   12  C13 UNL     1      15.465 -12.217  17.387  1.00  0.00     0.076 C 
HETATM   13  C14 UNL     1      14.573 -12.375  16.201  1.00  0.00    -0.009 C 
HETATM   14  C15 UNL     1      13.954 -13.749  16.185  1.00  0.00     0.010 C 
HETATM   15  C16 UNL     1      14.956 -14.616  15.474  1.00  0.00    -0.009 C 
HETATM   16  C17 UNL     1      15.914 -15.247  16.470  1.00  0.00     0.015 C 
HETATM   17  C18 UNL     1      16.806 -14.031  16.280  1.00  0.00     0.056 C 
HETATM   18  C19 UNL     1      16.091 -13.711  15.038  1.00  0.00    -0.001 C 
HETATM   19  C20 UNL     1      15.484 -12.349  14.965  1.00  0.00     0.010 C 
HETATM   20  O5  UNL     1      17.786 -12.287  17.622  1.00  0.00    -0.313 OA
ENDROOT
BRANCH   1  21
HETATM   21  C3  UNL     1      18.700 -10.225  20.766  1.00  0.00     0.263 C 
HETATM   22  O2  UNL     1      18.972  -9.730  21.861  1.00  0.00    -0.265 OA
BRANCH  21  23
HETATM   23  O1  UNL     1      17.550  -9.802  20.113  1.00  0.00    -0.322 OA
BRANCH  23  24
HETATM   24  C2  UNL     1      16.460  -9.208  20.747  1.00  0.00     0.174 C 
HETATM   25  C1  UNL     1      15.293 -10.198  20.674  1.00  0.00     0.034 C 
ENDBRANCH  23  24
ENDBRANCH  21  23
ENDBRANCH   1  21
TORSDOF 3
ENDMDL
MODEL 2
REMARK VINA RESULT: -9.041563477      7.646     10.165
REMARK  3 active torsions:
REMARK  status: ('A' for Active; 'I' for Inactive)
REMARK    1  A    between atoms: C2_2  and  O1_3 
REMARK    2  A    between atoms: O1_3  and  C3_4 
REMARK    3  A    between atoms: C3_4  and  C4_6 
ROOT
HETATM    1  C4  UNL     1      13.538  -4.381  24.247  1.00  0.00     0.090 C 
HETATM    2  C5  UNL     1      13.639  -2.869  24.262  1.00  0.00     0.015 C 
HETATM    3  C6  UNL     1      12.720  -2.246  25.285  1.00  0.00     0.001 C 
HETATM    4  C7  UNL     1      11.337  -2.788  25.268  1.00  0.00     0.000 C 
HETATM    5  C8  UNL     1      10.845  -3.219  23.924  1.00  0.00     0.006 C 
HETATM    6  C9  UNL     1      10.691  -4.714  23.924  1.00  0.00     0.071 C 
HETATM    7  C10 UNL     1      11.624  -5.419  22.992  1.00  0.00     0.201 C 
HETATM    8  C11 UNL     1      12.989  -4.803  22.909  1.00  0.00     0.086 C 
HETATM    9  O3  UNL     1      11.130  -5.503  21.683  1.00  0.00    -0.197 OA
HETATM   10  O4  UNL     1      11.818  -6.566  21.249  1.00  0.00    -0.197 OA
HETATM   11  C12 UNL     1      11.407  -7.509  22.224  1.00  0.00     0.205 C 
HETATM   12  C13 UNL     1      12.275  -8.702  22.230  1.00  0.00     0.076 C 
HETATM   13  C14 UNL     1      11.583 -10.009  22.036  1.00  0.00    -0.009 C 
HETATM   14  C15 UNL     1      10.965 -10.081  20.665  1.00  0.00     0.010 C 
HETATM   15  C16 UNL     1       9.608  -9.452  20.819  1.00  0.00    -0.009 C 
HETATM   16  C17 UNL     1       9.675  -7.964  20.523  1.00  0.00     0.015 C 
HETATM   17  C18 UNL     1       9.960  -7.751  22.000  1.00  0.00     0.056 C 
HETATM   18  C19 UNL     1       9.450  -9.098  22.285  1.00  0.00    -0.001 C 
HETATM   19  C20 UNL     1      10.388 -10.015  22.999  1.00  0.00     0.010 C 
HETATM   20  O5  UNL     1      11.669  -6.763  23.381  1.00  0.00    -0.313 OA
ENDROOT
BRANCH   1  21
HETATM   21  C3  UNL     1      14.929  -4.904  24.327  1.00  0.00     0.263 C 
HETATM   22  O2  UNL     1      15.872  -4.556  23.616  1.00  0.00    -0.265 OA
BRANCH  21  23
HETATM   23  O1  UNL     1      15.151  -5.870  25.301  1.00  0.00    -0.322 OA
BRANCH  23  24
HETATM   24  C2  UNL     1      14.632  -7.162  25.258  1.00  0.00     0.174 C 
HETATM   25  C1  UNL     1      15.382  -7.921  24.159  1.00  0.00     0.034 C 
ENDBRANCH  23  24
ENDBRANCH  21  23
ENDBRANCH   1  21
TORSDOF 3
ENDMDL
MODEL 3
REMARK VINA RESULT: -8.870768349      9.089     12.375
REMARK  3 active torsions:
REMARK  status: ('A' for Active; 'I' for Inactive)
REMARK    1  A    between atoms: C2_2  and  O1_3 
REMARK    2  A    between atoms: O1_3  and  C3_4 
REMARK    3  A    between atoms: C3_4  and  C4_6 
ROOT
HETATM    1  C4  UNL     1      10.018  -6.345  28.223  1.00  0.00     0.090 C 
HETATM    2  C5  UNL     1      10.682  -5.351  29.155  1.00  0.00     0.015 C 
HETATM    3  C6  UNL     1      10.111  -3.962  29.005  1.00  0.00     0.001 C 
HETATM    4  C7  UNL     1       9.970  -3.512  27.597  1.00  0.00     0.000 C 
HETATM    5  C8  UNL     1      11.002  -4.045  26.658  1.00  0.00     0.006 C 
HETATM    6  C9  UNL     1      10.337  -4.991  25.697  1.00  0.00     0.071 C 
HETATM    7  C10 UNL     1      10.788  -6.409  25.832  1.00  0.00     0.201 C 
HETATM    8  C11 UNL     1      11.054  -6.837  27.245  1.00  0.00     0.086 C 
HETATM    9  O3  UNL     1      11.947  -6.688  25.093  1.00  0.00    -0.197 OA
HETATM   10  O4  UNL     1      11.809  -8.011  24.946  1.00  0.00    -0.197 OA
HETATM   11  C12 UNL     1      10.542  -8.033  24.312  1.00  0.00     0.205 C 
HETATM   12  C13 UNL     1       9.942  -9.381  24.335  1.00  0.00     0.076 C 
HETATM   13  C14 UNL     1       9.569  -9.948  23.007  1.00  0.00    -0.009 C 
HETATM   14  C15 UNL     1      10.796 -10.167  22.162  1.00  0.00     0.010 C 
HETATM   15  C16 UNL     1      11.029  -8.853  21.470  1.00  0.00    -0.009 C 
HETATM   16  C17 UNL     1      11.961  -7.978  22.290  1.00  0.00     0.015 C 
HETATM   17  C18 UNL     1      10.724  -7.418  22.974  1.00  0.00     0.056 C 
HETATM   18  C19 UNL     1       9.895  -7.933  21.876  1.00  0.00    -0.001 C 
HETATM   19  C20 UNL     1       8.785  -8.852  22.271  1.00  0.00     0.010 C 
HETATM   20  O5  UNL     1       9.832  -7.216  25.202  1.00  0.00    -0.313 OA
ENDROOT
BRANCH   1  21
HETATM   21  C3  UNL     1       9.622  -7.514  29.055  1.00  0.00     0.263 C 
HETATM   22  O2  UNL     1       9.261  -8.612  28.631  1.00  0.00    -0.265 OA
BRANCH  21  23
HETATM   23  O1  UNL     1       9.677  -7.318  30.429  1.00  0.00    -0.322 OA
BRANCH  23  24
HETATM   24  C2  UNL     1       8.595  -7.493  31.291  1.00  0.00     0.174 C 
HETATM   25  C1  UNL     1       8.307  -6.138  31.945  1.00  0.00     0.034 C 
ENDBRANCH  23  24
ENDBRANCH  21  23
ENDBRANCH   1  21
TORSDOF 3
ENDMDL
MODEL 4
REMARK VINA RESULT: -8.613058839      9.242     12.528
REMARK  3 active torsions:
REMARK  status: ('A' for Active; 'I' for Inactive)
REMARK    1  A    between atoms: C2_2  and  O1_3 
REMARK    2  A    between atoms: O1_3  and  C3_4 
REMARK    3  A    between atoms: C3_4  and  C4_6 
ROOT
HETATM    1  C4  UNL     1      10.555  -7.407  22.136  1.00  0.00     0.090 C 
HETATM    2  C5  UNL     1      10.620  -8.737  21.412  1.00  0.00     0.015 C 
HETATM    3  C6  UNL     1       9.290  -9.451  21.415  1.00  0.00     0.001 C 
HETATM    4  C7  UNL     1       8.622  -9.484  22.740  1.00  0.00     0.000 C 
HETATM    5  C8  UNL     1       9.547  -9.536  23.913  1.00  0.00     0.006 C 
HETATM    6  C9  UNL     1       9.446  -8.238  24.665  1.00  0.00     0.071 C 
HETATM    7  C10 UNL     1      10.700  -7.426  24.645  1.00  0.00     0.201 C 
HETATM    8  C11 UNL     1      11.449  -7.487  23.346  1.00  0.00     0.086 C 
HETATM    9  O3  UNL     1      11.601  -7.785  25.656  1.00  0.00    -0.197 OA
HETATM   10  O4  UNL     1      12.296  -6.646  25.757  1.00  0.00    -0.197 OA
HETATM   11  C12 UNL     1      11.227  -5.760  26.041  1.00  0.00     0.205 C 
HETATM   12  C13 UNL     1      11.623  -4.350  25.857  1.00  0.00     0.076 C 
HETATM   13  C14 UNL     1      11.431  -3.463  27.041  1.00  0.00    -0.009 C 
HETATM   14  C15 UNL     1      12.326  -3.892  28.174  1.00  0.00     0.010 C 
HETATM   15  C16 UNL     1      11.542  -4.944  28.909  1.00  0.00    -0.009 C 
HETATM   16  C17 UNL     1      11.861  -6.324  28.361  1.00  0.00     0.015 C 
HETATM   17  C18 UNL     1      10.714  -6.128  27.384  1.00  0.00     0.056 C 
HETATM   18  C19 UNL     1      10.192  -5.044  28.227  1.00  0.00    -0.001 C 
HETATM   19  C20 UNL     1      10.008  -3.723  27.554  1.00  0.00     0.010 C 
HETATM   20  O5  UNL     1      10.358  -6.116  25.002  1.00  0.00    -0.313 OA
ENDROOT
BRANCH   1  21
HETATM   21  C3  UNL     1      11.154  -6.394  21.224  1.00  0.00     0.263 C 
HETATM   22  O2  UNL     1      11.069  -6.389  19.996  1.00  0.00    -0.265 OA
BRANCH  21  23
HETATM   23  O1  UNL     1      11.864  -5.374  21.845  1.00  0.00    -0.322 OA
BRANCH  23  24
HETATM   24  C2  UNL     1      11.918  -4.060  21.384  1.00  0.00     0.174 C 
HETATM   25  C1  UNL     1      11.212  -3.182  22.422  1.00  0.00     0.034 C 
ENDBRANCH  23  24
ENDBRANCH  21  23
ENDBRANCH   1  21
TORSDOF 3
ENDMDL
MODEL 5
REMARK VINA RESULT: -8.463967013      1.463      5.758
REMARK  3 active torsions:
REMARK  status: ('A' for Active; 'I' for Inactive)
REMARK    1  A    between atoms: C2_2  and  O1_3 
REMARK    2  A    between atoms: O1_3  and  C3_4 
REMARK    3  A    between atoms: C3_4  and  C4_6 
ROOT
HETATM    1  C4  UNL     1      15.384 -12.307  18.514  1.00  0.00     0.090 C 
HETATM    2  C5  UNL     1      14.485 -12.241  17.296  1.00  0.00     0.015 C 
HETATM    3  C6  UNL     1      14.128 -13.612  16.776  1.00  0.00     0.001 C 
HETATM    4  C7  UNL     1      15.285 -14.536  16.659  1.00  0.00     0.000 C 
HETATM    5  C8  UNL     1      16.586 -13.880  16.326  1.00  0.00     0.006 C 
HETATM    6  C9  UNL     1      17.501 -13.992  17.513  1.00  0.00     0.071 C 
HETATM    7  C10 UNL     1      17.842 -12.679  18.141  1.00  0.00     0.201 C 
HETATM    8  C11 UNL     1      16.712 -11.692  18.152  1.00  0.00     0.086 C 
HETATM    9  O3  UNL     1      18.933 -12.047  17.530  1.00  0.00    -0.197 OA
HETATM   10  O4  UNL     1      19.339 -11.269  18.540  1.00  0.00    -0.197 OA
HETATM   11  C12 UNL     1      19.556 -12.270  19.519  1.00  0.00     0.205 C 
HETATM   12  C13 UNL     1      19.673 -11.696  20.873  1.00  0.00     0.076 C 
HETATM   13  C14 UNL     1      20.926 -12.027  21.612  1.00  0.00    -0.009 C 
HETATM   14  C15 UNL     1      22.123 -11.434  20.918  1.00  0.00     0.010 C 
HETATM   15  C16 UNL     1      22.525 -12.460  19.895  1.00  0.00    -0.009 C 
HETATM   16  C17 UNL     1      21.836 -12.188  18.570  1.00  0.00     0.015 C 
HETATM   17  C18 UNL     1      20.706 -13.084  19.049  1.00  0.00     0.056 C 
HETATM   18  C19 UNL     1      21.597 -13.646  20.072  1.00  0.00    -0.001 C 
HETATM   19  C20 UNL     1      21.118 -13.545  21.483  1.00  0.00     0.010 C 
HETATM   20  O5  UNL     1      18.331 -12.943  19.427  1.00  0.00    -0.313 OA
ENDROOT
BRANCH   1  21
HETATM   21  C3  UNL     1      14.771 -11.430  19.548  1.00  0.00     0.263 C 
HETATM   22  O2  UNL     1      13.618 -11.511  19.971  1.00  0.00    -0.265 OA
BRANCH  21  23
HETATM   23  O1  UNL     1      15.599 -10.440  20.062  1.00  0.00    -0.322 OA
BRANCH  23  24
HETATM   24  C2  UNL     1      15.307  -9.681  21.194  1.00  0.00     0.174 C 
HETATM   25  C1  UNL     1      16.640  -9.269  21.826  1.00  0.00     0.034 C 
ENDBRANCH  23  24
ENDBRANCH  21  23
ENDBRANCH   1  21
TORSDOF 3
ENDMDL
