MODEL 1
REMARK VINA RESULT: -6.676854851      0.000      0.000
REMARK  11 active torsions:
REMARK  status: ('A' for Active; 'I' for Inactive)
REMARK    1  A    between atoms: N1_1  and  C1_4 
REMARK    2  A    between atoms: C2_7  and  N3_8 
REMARK    3  A    between atoms: N3_8  and  C3_10 
REMARK    4  A    between atoms: C3_10  and  C4_11 
REMARK    5  A    between atoms: C4_11  and  O1_12 
REMARK    6  A    between atoms: C6_19  and  N6_20 
REMARK    7  A    between atoms: N6_20  and  C7_21 
REMARK    8  A    between atoms: N6_20  and  C8_26 
REMARK    9  A    between atoms: C7_21  and  N7_22 
REMARK   10  A    between atoms: C8_26  and  C9_27 
REMARK   11  A    between atoms: C9_27  and  O2_28 
ROOT
HETATM    1  C1  UNL     1      -5.219  -0.470  53.801  1.00  0.00     0.146 A 
HETATM    2  N2  UNL     1      -6.389  -0.671  53.184  1.00  0.00    -0.174 N 
ATOM      3  H2  UNL     1      -7.149  -1.160  53.657  1.00  0.00     0.186 HD
HETATM    4  C2  UNL     1      -6.544  -0.207  51.907  1.00  0.00     0.685 A 
HETATM    5  N4  UNL     1      -5.494   0.440  51.327  1.00  0.00    -0.173 N 
ATOM      6  H4  UNL     1      -5.607   0.788  50.375  1.00  0.00     0.186 HD
HETATM    7  C5  UNL     1      -4.329   0.641  51.939  1.00  0.00     0.167 A 
HETATM    8  N5  UNL     1      -3.163   1.240  51.584  1.00  0.00    -0.173 N 
ATOM      9  H5  UNL     1      -2.996   1.677  50.677  1.00  0.00     0.186 HD
HETATM   10  C6  UNL     1      -2.263   1.185  52.566  1.00  0.00     0.688 A 
HETATM   11  N8  UNL     1      -2.918   0.518  53.570  1.00  0.00    -0.184 N 
ATOM     12  H8  UNL     1      -2.514   0.300  54.482  1.00  0.00     0.184 HD
HETATM   13  C10 UNL     1      -4.143   0.197  53.196  1.00  0.00     0.138 A 
ENDROOT
BRANCH  10  14
HETATM   14  N6  UNL     1      -0.961   1.707  52.621  1.00  0.00    -0.170 N 
BRANCH  14  15
HETATM   15  C7  UNL     1       0.115   0.690  52.456  1.00  0.00     0.376 C 
BRANCH  15  16
HETATM   16  N7  UNL     1       1.231   1.184  51.723  1.00  0.00    -0.062 N 
ATOM     17  H73 UNL     1       0.993   2.045  51.231  1.00  0.00     0.276 HD
ATOM     18  H72 UNL     1       1.949   1.546  52.351  1.00  0.00     0.276 HD
ATOM     19  H71 UNL     1       1.619   0.491  51.082  1.00  0.00     0.276 HD
ENDBRANCH  15  16
ENDBRANCH  14  15
BRANCH  14  20
HETATM   20  C8  UNL     1      -0.495   3.014  52.805  1.00  0.00     0.109 C 
BRANCH  20  21
HETATM   21  C9  UNL     1      -1.396   4.161  52.892  1.00  0.00     0.209 C 
BRANCH  21  22
HETATM   22  O2  UNL     1      -0.893   5.144  53.757  1.00  0.00    -0.396 OA
ATOM     23  H2  UNL     1      -0.963   6.011  53.376  1.00  0.00     0.209 HD
ENDBRANCH  21  22
ENDBRANCH  20  21
ENDBRANCH  14  20
ENDBRANCH  10  14
BRANCH   1  24
HETATM   24  N1  UNL     1      -5.086  -0.910  54.999  1.00  0.00    -0.383 N 
ATOM     25  H12 UNL     1      -5.736  -1.617  55.342  1.00  0.00     0.157 HD
ATOM     26  H11 UNL     1      -4.327  -0.533  55.566  1.00  0.00     0.157 HD
ENDBRANCH   1  24
BRANCH   4  27
HETATM   27  N3  UNL     1      -7.631  -0.397  51.334  1.00  0.00    -0.203 N 
ATOM     28  H3  UNL     1      -8.347   0.296  51.552  1.00  0.00     0.183 HD
BRANCH  27  29
HETATM   29  C3  UNL     1      -8.047  -1.385  50.450  1.00  0.00     0.105 C 
BRANCH  29  30
HETATM   30  C4  UNL     1      -6.873  -2.178  49.877  1.00  0.00     0.209 C 
BRANCH  30  31
HETATM   31  O1  UNL     1      -7.347  -3.125  48.997  1.00  0.00    -0.396 OA
ATOM     32  H1  UNL     1      -7.389  -2.751  48.125  1.00  0.00     0.209 HD
ENDBRANCH  30  31
ENDBRANCH  29  30
ENDBRANCH  27  29
ENDBRANCH   4  27
TORSDOF 11
ENDMDL
MODEL 2
REMARK VINA RESULT: -6.639294563      4.603      6.590
REMARK  11 active torsions:
REMARK  status: ('A' for Active; 'I' for Inactive)
REMARK    1  A    between atoms: N1_1  and  C1_4 
REMARK    2  A    between atoms: C2_7  and  N3_8 
REMARK    3  A    between atoms: N3_8  and  C3_10 
REMARK    4  A    between atoms: C3_10  and  C4_11 
REMARK    5  A    between atoms: C4_11  and  O1_12 
REMARK    6  A    between atoms: C6_19  and  N6_20 
REMARK    7  A    between atoms: N6_20  and  C7_21 
REMARK    8  A    between atoms: N6_20  and  C8_26 
REMARK    9  A    between atoms: C7_21  and  N7_22 
REMARK   10  A    between atoms: C8_26  and  C9_27 
REMARK   11  A    between atoms: C9_27  and  O2_28 
ROOT
HETATM    1  C1  UNL     1       0.278   1.006  51.955  1.00  0.00     0.146 A 
HETATM    2  N2  UNL     1      -0.510   2.061  51.717  1.00  0.00    -0.174 N 
ATOM      3  H2  UNL     1      -0.275   2.730  50.984  1.00  0.00     0.186 HD
HETATM    4  C2  UNL     1      -1.636   2.221  52.475  1.00  0.00     0.685 A 
HETATM    5  N4  UNL     1      -1.900   1.294  53.438  1.00  0.00    -0.173 N 
ATOM      6  H4  UNL     1      -2.740   1.410  54.005  1.00  0.00     0.186 HD
HETATM    7  C5  UNL     1      -1.117   0.244  53.677  1.00  0.00     0.167 A 
HETATM    8  N5  UNL     1      -1.162  -0.791  54.557  1.00  0.00    -0.173 N 
ATOM      9  H5  UNL     1      -1.900  -0.925  55.248  1.00  0.00     0.186 HD
HETATM   10  C6  UNL     1      -0.121  -1.610  54.405  1.00  0.00     0.688 A 
HETATM   11  N8  UNL     1       0.593  -1.043  53.379  1.00  0.00    -0.184 N 
ATOM     12  H8  UNL     1       1.462  -1.419  53.000  1.00  0.00     0.184 HD
HETATM   13  C10 UNL     1       0.000   0.056  52.949  1.00  0.00     0.138 A 
ENDROOT
BRANCH  10  14
HETATM   14  N6  UNL     1       0.190  -2.801  55.080  1.00  0.00    -0.170 N 
BRANCH  14  15
HETATM   15  C7  UNL     1      -0.566  -3.992  54.601  1.00  0.00     0.376 C 
BRANCH  15  16
HETATM   16  N7  UNL     1       0.028  -5.220  55.008  1.00  0.00    -0.062 N 
ATOM     17  H73 UNL     1       0.503  -5.118  55.904  1.00  0.00     0.276 HD
ATOM     18  H72 UNL     1      -0.684  -5.900  55.275  1.00  0.00     0.276 HD
ATOM     19  H71 UNL     1       0.657  -5.607  54.303  1.00  0.00     0.276 HD
ENDBRANCH  15  16
ENDBRANCH  14  15
BRANCH  14  20
HETATM   20  C8  UNL     1       1.083  -3.066  56.124  1.00  0.00     0.109 C 
BRANCH  20  21
HETATM   21  C9  UNL     1       1.114  -2.271  57.349  1.00  0.00     0.209 C 
BRANCH  21  22
HETATM   22  O2  UNL     1       2.152  -1.328  57.322  1.00  0.00    -0.396 OA
ATOM     23  H2  UNL     1       2.597  -1.276  58.159  1.00  0.00     0.209 HD
ENDBRANCH  21  22
ENDBRANCH  20  21
ENDBRANCH  14  20
ENDBRANCH  10  14
BRANCH   1  24
HETATM   24  N1  UNL     1       1.332   0.866  51.237  1.00  0.00    -0.383 N 
ATOM     25  H12 UNL     1       2.124   0.348  51.616  1.00  0.00     0.157 HD
ATOM     26  H11 UNL     1       1.336   1.283  50.306  1.00  0.00     0.157 HD
ENDBRANCH   1  24
BRANCH   4  27
HETATM   27  N3  UNL     1      -2.366   3.204  52.254  1.00  0.00    -0.203 N 
ATOM     28  H3  UNL     1      -3.186   2.997  51.683  1.00  0.00     0.183 HD
BRANCH  27  29
HETATM   29  C3  UNL     1      -2.266   4.533  52.645  1.00  0.00     0.105 C 
BRANCH  29  30
HETATM   30  C4  UNL     1      -3.636   5.194  52.796  1.00  0.00     0.209 C 
BRANCH  30  31
HETATM   31  O1  UNL     1      -3.472   6.488  53.238  1.00  0.00    -0.396 OA
ATOM     32  H1  UNL     1      -4.289   6.801  53.608  1.00  0.00     0.209 HD
ENDBRANCH  30  31
ENDBRANCH  29  30
ENDBRANCH  27  29
ENDBRANCH   4  27
TORSDOF 11
ENDMDL
MODEL 3
REMARK VINA RESULT: -6.613972718      2.947      6.545
REMARK  11 active torsions:
REMARK  status: ('A' for Active; 'I' for Inactive)
REMARK    1  A    between atoms: N1_1  and  C1_4 
REMARK    2  A    between atoms: C2_7  and  N3_8 
REMARK    3  A    between atoms: N3_8  and  C3_10 
REMARK    4  A    between atoms: C3_10  and  C4_11 
REMARK    5  A    between atoms: C4_11  and  O1_12 
REMARK    6  A    between atoms: C6_19  and  N6_20 
REMARK    7  A    between atoms: N6_20  and  C7_21 
REMARK    8  A    between atoms: N6_20  and  C8_26 
REMARK    9  A    between atoms: C7_21  and  N7_22 
REMARK   10  A    between atoms: C8_26  and  C9_27 
REMARK   11  A    between atoms: C9_27  and  O2_28 
ROOT
HETATM    1  C1  UNL     1      -1.633   3.348  52.706  1.00  0.00     0.146 A 
HETATM    2  N2  UNL     1      -0.417   2.889  52.392  1.00  0.00    -0.174 N 
ATOM      3  H2  UNL     1       0.409   3.472  52.524  1.00  0.00     0.186 HD
HETATM    4  C2  UNL     1      -0.304   1.621  51.893  1.00  0.00     0.685 A 
HETATM    5  N4  UNL     1      -1.442   0.887  51.740  1.00  0.00    -0.173 N 
ATOM      6  H4  UNL     1      -1.361  -0.059  51.369  1.00  0.00     0.186 HD
HETATM    7  C5  UNL     1      -2.654   1.342  52.051  1.00  0.00     0.167 A 
HETATM    8  N5  UNL     1      -3.907   0.819  51.991  1.00  0.00    -0.173 N 
ATOM      9  H5  UNL     1      -4.121  -0.120  51.655  1.00  0.00     0.186 HD
HETATM   10  C6  UNL     1      -4.822   1.686  52.426  1.00  0.00     0.688 A 
HETATM   11  N8  UNL     1      -4.086   2.792  52.768  1.00  0.00    -0.184 N 
ATOM     12  H8  UNL     1      -4.478   3.656  53.143  1.00  0.00     0.184 HD
HETATM   13  C10 UNL     1      -2.801   2.586  52.545  1.00  0.00     0.138 A 
ENDROOT
BRANCH  10  14
HETATM   14  N6  UNL     1      -6.211   1.533  52.560  1.00  0.00    -0.170 N 
BRANCH  14  15
HETATM   15  C7  UNL     1      -6.683   0.122  52.482  1.00  0.00     0.376 C 
BRANCH  15  16
HETATM   16  N7  UNL     1      -7.677  -0.071  51.481  1.00  0.00    -0.062 N 
ATOM     17  H73 UNL     1      -7.599  -0.997  51.062  1.00  0.00     0.276 HD
ATOM     18  H72 UNL     1      -8.604  -0.156  51.899  1.00  0.00     0.276 HD
ATOM     19  H71 UNL     1      -7.663   0.657  50.766  1.00  0.00     0.276 HD
ENDBRANCH  15  16
ENDBRANCH  14  15
BRANCH  14  20
HETATM   20  C8  UNL     1      -7.230   2.471  52.752  1.00  0.00     0.109 C 
BRANCH  20  21
HETATM   21  C9  UNL     1      -8.274   2.298  53.760  1.00  0.00     0.209 C 
BRANCH  21  22
HETATM   22  O2  UNL     1      -9.523   2.055  53.169  1.00  0.00    -0.396 OA
ATOM     23  H2  UNL     1      -9.450   1.968  52.226  1.00  0.00     0.209 HD
ENDBRANCH  21  22
ENDBRANCH  20  21
ENDBRANCH  14  20
ENDBRANCH  10  14
BRANCH   1  24
HETATM   24  N1  UNL     1      -1.726   4.539  53.174  1.00  0.00    -0.383 N 
ATOM     25  H12 UNL     1      -0.927   5.167  53.091  1.00  0.00     0.157 HD
ATOM     26  H11 UNL     1      -2.604   4.814  53.613  1.00  0.00     0.157 HD
ENDBRANCH   1  24
BRANCH   4  27
HETATM   27  N3  UNL     1       0.828   1.196  51.599  1.00  0.00    -0.203 N 
ATOM     28  H3  UNL     1       1.563   1.902  51.641  1.00  0.00     0.183 HD
BRANCH  27  29
HETATM   29  C3  UNL     1       1.271  -0.066  51.225  1.00  0.00     0.105 C 
BRANCH  29  30
HETATM   30  C4  UNL     1       1.708  -0.113  49.762  1.00  0.00     0.209 C 
BRANCH  30  31
HETATM   31  O1  UNL     1       0.821  -0.884  49.045  1.00  0.00    -0.396 OA
ATOM     32  H1  UNL     1       1.095  -1.793  49.077  1.00  0.00     0.209 HD
ENDBRANCH  30  31
ENDBRANCH  29  30
ENDBRANCH  27  29
ENDBRANCH   4  27
TORSDOF 11
ENDMDL
MODEL 4
REMARK VINA RESULT: -6.595990539      4.329      6.883
REMARK  11 active torsions:
REMARK  status: ('A' for Active; 'I' for Inactive)
REMARK    1  A    between atoms: N1_1  and  C1_4 
REMARK    2  A    between atoms: C2_7  and  N3_8 
REMARK    3  A    between atoms: N3_8  and  C3_10 
REMARK    4  A    between atoms: C3_10  and  C4_11 
REMARK    5  A    between atoms: C4_11  and  O1_12 
REMARK    6  A    between atoms: C6_19  and  N6_20 
REMARK    7  A    between atoms: N6_20  and  C7_21 
REMARK    8  A    between atoms: N6_20  and  C8_26 
REMARK    9  A    between atoms: C7_21  and  N7_22 
REMARK   10  A    between atoms: C8_26  and  C9_27 
REMARK   11  A    between atoms: C9_27  and  O2_28 
ROOT
HETATM    1  C1  UNL     1       0.386   0.633  51.924  1.00  0.00     0.146 A 
HETATM    2  N2  UNL     1      -0.247   1.771  51.619  1.00  0.00    -0.174 N 
ATOM      3  H2  UNL     1       0.066   2.347  50.839  1.00  0.00     0.186 HD
HETATM    4  C2  UNL     1      -1.324   2.144  52.376  1.00  0.00     0.685 A 
HETATM    5  N4  UNL     1      -1.698   1.334  53.405  1.00  0.00    -0.173 N 
ATOM      6  H4  UNL     1      -2.501   1.609  53.970  1.00  0.00     0.186 HD
HETATM    7  C5  UNL     1      -1.069   0.201  53.710  1.00  0.00     0.167 A 
HETATM    8  N5  UNL     1      -1.243  -0.753  54.662  1.00  0.00    -0.173 N 
ATOM      9  H5  UNL     1      -1.979  -0.731  55.369  1.00  0.00     0.186 HD
HETATM   10  C6  UNL     1      -0.334  -1.723  54.559  1.00  0.00     0.688 A 
HETATM   11  N8  UNL     1       0.432  -1.337  53.488  1.00  0.00    -0.184 N 
ATOM     12  H8  UNL     1       1.231  -1.860  53.128  1.00  0.00     0.184 HD
HETATM   13  C10 UNL     1      -0.005  -0.196  52.987  1.00  0.00     0.138 A 
ENDROOT
BRANCH  10  14
HETATM   14  N6  UNL     1      -0.183  -2.896  55.314  1.00  0.00    -0.170 N 
BRANCH  14  15
HETATM   15  C7  UNL     1       1.107  -2.988  56.053  1.00  0.00     0.376 C 
BRANCH  15  16
HETATM   16  N7  UNL     1       1.248  -1.973  57.040  1.00  0.00    -0.062 N 
ATOM     17  H73 UNL     1       1.713  -1.151  56.656  1.00  0.00     0.276 HD
ATOM     18  H72 UNL     1       0.345  -1.559  57.271  1.00  0.00     0.276 HD
ATOM     19  H71 UNL     1       1.725  -2.304  57.880  1.00  0.00     0.276 HD
ENDBRANCH  15  16
ENDBRANCH  14  15
BRANCH  14  20
HETATM   20  C8  UNL     1      -1.030  -3.996  55.493  1.00  0.00     0.109 C 
BRANCH  20  21
HETATM   21  C9  UNL     1      -0.752  -5.302  54.900  1.00  0.00     0.209 C 
BRANCH  21  22
HETATM   22  O2  UNL     1      -1.629  -5.582  53.842  1.00  0.00    -0.396 OA
ATOM     23  H2  UNL     1      -1.312  -5.221  53.023  1.00  0.00     0.209 HD
ENDBRANCH  21  22
ENDBRANCH  20  21
ENDBRANCH  14  20
ENDBRANCH  10  14
BRANCH   1  24
HETATM   24  N1  UNL     1       1.394   0.293  51.207  1.00  0.00    -0.383 N 
ATOM     25  H12 UNL     1       1.740   0.941  50.500  1.00  0.00     0.157 HD
ATOM     26  H11 UNL     1       1.814  -0.621  51.375  1.00  0.00     0.157 HD
ENDBRANCH   1  24
BRANCH   4  27
HETATM   27  N3  UNL     1      -1.910   3.205  52.092  1.00  0.00    -0.203 N 
ATOM     28  H3  UNL     1      -2.406   3.183  51.201  1.00  0.00     0.183 HD
BRANCH  27  29
HETATM   29  C3  UNL     1      -2.011   4.412  52.771  1.00  0.00     0.105 C 
BRANCH  29  30
HETATM   30  C4  UNL     1      -3.422   4.995  52.704  1.00  0.00     0.209 C 
BRANCH  30  31
HETATM   31  O1  UNL     1      -3.403   6.292  53.166  1.00  0.00    -0.396 OA
ATOM     32  H1  UNL     1      -4.234   6.492  53.580  1.00  0.00     0.209 HD
ENDBRANCH  30  31
ENDBRANCH  29  30
ENDBRANCH  27  29
ENDBRANCH   4  27
TORSDOF 11
ENDMDL
MODEL 5
REMARK VINA RESULT: -6.558114778      3.730      5.289
REMARK  11 active torsions:
REMARK  status: ('A' for Active; 'I' for Inactive)
REMARK    1  A    between atoms: N1_1  and  C1_4 
REMARK    2  A    between atoms: C2_7  and  N3_8 
REMARK    3  A    between atoms: N3_8  and  C3_10 
REMARK    4  A    between atoms: C3_10  and  C4_11 
REMARK    5  A    between atoms: C4_11  and  O1_12 
REMARK    6  A    between atoms: C6_19  and  N6_20 
REMARK    7  A    between atoms: N6_20  and  C7_21 
REMARK    8  A    between atoms: N6_20  and  C8_26 
REMARK    9  A    between atoms: C7_21  and  N7_22 
REMARK   10  A    between atoms: C8_26  and  C9_27 
REMARK   11  A    between atoms: C9_27  and  O2_28 
ROOT
HETATM    1  C1  UNL     1      -1.982  -1.901  52.300  1.00  0.00     0.146 A 
HETATM    2  N2  UNL     1      -1.349  -2.861  52.983  1.00  0.00    -0.174 N 
ATOM      3  H2  UNL     1      -1.440  -3.839  52.711  1.00  0.00     0.186 HD
HETATM    4  C2  UNL     1      -0.575  -2.502  54.052  1.00  0.00     0.685 A 
HETATM    5  N4  UNL     1      -0.489  -1.179  54.368  1.00  0.00    -0.173 N 
ATOM      6  H4  UNL     1       0.088  -0.908  55.164  1.00  0.00     0.186 HD
HETATM    7  C5  UNL     1      -1.118  -0.222  53.689  1.00  0.00     0.167 A 
HETATM    8  N5  UNL     1      -1.191   1.130  53.803  1.00  0.00    -0.173 N 
ATOM      9  H5  UNL     1      -0.707   1.671  54.520  1.00  0.00     0.186 HD
HETATM   10  C6  UNL     1      -1.972   1.662  52.863  1.00  0.00     0.688 A 
HETATM   11  N8  UNL     1      -2.395   0.575  52.140  1.00  0.00    -0.184 N 
ATOM     12  H8  UNL     1      -3.018   0.623  51.332  1.00  0.00     0.184 HD
HETATM   13  C10 UNL     1      -1.889  -0.541  52.632  1.00  0.00     0.138 A 
ENDROOT
BRANCH  10  14
HETATM   14  N6  UNL     1      -2.281   3.007  52.608  1.00  0.00    -0.170 N 
BRANCH  14  15
HETATM   15  C7  UNL     1      -3.701   3.370  52.874  1.00  0.00     0.376 C 
BRANCH  15  16
HETATM   16  N7  UNL     1      -3.883   4.768  53.074  1.00  0.00    -0.062 N 
ATOM     17  H73 UNL     1      -3.183   5.140  53.716  1.00  0.00     0.276 HD
ATOM     18  H72 UNL     1      -3.633   5.292  52.236  1.00  0.00     0.276 HD
ATOM     19  H71 UNL     1      -4.826   5.002  53.385  1.00  0.00     0.276 HD
ENDBRANCH  15  16
ENDBRANCH  14  15
BRANCH  14  20
HETATM   20  C8  UNL     1      -1.492   4.066  52.146  1.00  0.00     0.109 C 
BRANCH  20  21
HETATM   21  C9  UNL     1      -0.357   4.586  52.904  1.00  0.00     0.209 C 
BRANCH  21  22
HETATM   22  O2  UNL     1      -0.779   5.314  54.026  1.00  0.00    -0.396 OA
ATOM     23  H2  UNL     1      -1.672   5.095  54.267  1.00  0.00     0.209 HD
ENDBRANCH  21  22
ENDBRANCH  20  21
ENDBRANCH  14  20
ENDBRANCH  10  14
BRANCH   1  24
HETATM   24  N1  UNL     1      -2.704  -2.250  51.299  1.00  0.00    -0.383 N 
ATOM     25  H12 UNL     1      -2.641  -3.206  50.951  1.00  0.00     0.157 HD
ATOM     26  H11 UNL     1      -3.321  -1.550  50.886  1.00  0.00     0.157 HD
ENDBRANCH   1  24
BRANCH   4  27
HETATM   27  N3  UNL     1       0.011  -3.396  54.688  1.00  0.00    -0.203 N 
ATOM     28  H3  UNL     1       1.028  -3.342  54.646  1.00  0.00     0.183 HD
BRANCH  27  29
HETATM   29  C3  UNL     1      -0.471  -4.456  55.446  1.00  0.00     0.105 C 
BRANCH  29  30
HETATM   30  C4  UNL     1      -0.527  -5.758  54.647  1.00  0.00     0.209 C 
BRANCH  30  31
HETATM   31  O1  UNL     1      -1.642  -5.750  53.839  1.00  0.00    -0.396 OA
ATOM     32  H1  UNL     1      -1.617  -4.987  53.274  1.00  0.00     0.209 HD
ENDBRANCH  30  31
ENDBRANCH  29  30
ENDBRANCH  27  29
ENDBRANCH   4  27
TORSDOF 11
ENDMDL
