MODEL 1
REMARK VINA RESULT: -6.527673689      0.000      0.000
REMARK  10 active torsions:
REMARK  status: ('A' for Active; 'I' for Inactive)
REMARK    1  A    between atoms: N1_1  and  C1_4 
REMARK    2  A    between atoms: N3_8  and  C3_9 
REMARK    3  A    between atoms: C3_9  and  C4_10 
REMARK    4  A    between atoms: C4_10  and  N4_11 
REMARK    5  A    between atoms: N4_11  and  C5_13 
REMARK    6  A    between atoms: C5_13  and  C6_14 
REMARK    7  A    between atoms: C6_14  and  N5_15 
REMARK    8  A    between atoms: N5_15  and  C7_18 
REMARK    9  A    between atoms: C10_21  and  N6_22 
REMARK   10  A    between atoms: C11_26  and  O1_27 
ROOT
HETATM    1  C5  UNL     1      -1.512   1.045  53.360  1.00  0.00     0.141 C 
ENDROOT
BRANCH   1   2
HETATM    2  N4  UNL     1      -0.612  -0.046  53.626  1.00  0.00    -0.418 N 
ATOM      3  H4  UNL     1      -0.631  -0.567  54.502  1.00  0.00     0.153 HD
BRANCH   2   4
HETATM    4  C4  UNL     1       0.310  -0.347  52.577  1.00  0.00     0.135 C 
BRANCH   4   5
HETATM    5  C3  UNL     1       0.941   0.852  51.945  1.00  0.00     0.169 C 
BRANCH   5   6
HETATM    6  N3  UNL     1       1.748   0.522  50.792  1.00  0.00    -0.272 N 
HETATM    7  C2  UNL     1       1.389  -0.365  49.833  1.00  0.00     0.218 A 
HETATM    8  N2  UNL     1       2.382  -0.396  48.936  1.00  0.00    -0.185 N 
HETATM    9  C1  UNL     1       3.353   0.442  49.303  1.00  0.00     0.691 A 
ATOM     10  H2  UNL     1       2.395  -0.974  48.097  1.00  0.00     0.185 HD
HETATM   11  N7  UNL     1       2.944   1.003  50.454  1.00  0.00    -0.129 N 
ATOM     12  H7  UNL     1       3.471   1.693  50.989  1.00  0.00     0.206 HD
BRANCH   9  13
HETATM   13  N1  UNL     1       4.463   0.698  48.715  1.00  0.00    -0.233 N 
ATOM     14  H12 UNL     1       5.360   0.817  49.188  1.00  0.00     0.174 HD
ATOM     15  H11 UNL     1       4.649   0.827  47.721  1.00  0.00     0.174 HD
ENDBRANCH   9  13
ENDBRANCH   5   6
ENDBRANCH   4   5
ENDBRANCH   2   4
ENDBRANCH   1   2
BRANCH   1  16
HETATM   16  C6  UNL     1      -2.958   0.670  53.686  1.00  0.00     0.252 C 
BRANCH  16  17
HETATM   17  N5  UNL     1      -3.257  -0.527  52.939  1.00  0.00    -0.067 N 
ATOM     18  H52 UNL     1      -2.458  -1.161  52.927  1.00  0.00     0.277 HD
ATOM     19  H51 UNL     1      -3.925  -1.114  53.439  1.00  0.00     0.277 HD
BRANCH  17  20
HETATM   20  C7  UNL     1      -3.715  -0.246  51.596  1.00  0.00     0.216 C 
HETATM   21  C8  UNL     1      -4.938   0.628  51.717  1.00  0.00     0.038 C 
HETATM   22  C9  UNL     1      -6.062  -0.379  51.683  1.00  0.00     0.037 C 
HETATM   23  C10 UNL     1      -5.622  -1.250  50.517  1.00  0.00     0.214 C 
HETATM   24  C11 UNL     1      -4.173  -1.520  50.939  1.00  0.00     0.179 C 
BRANCH  23  25
HETATM   25  N6  UNL     1      -6.363  -2.465  50.387  1.00  0.00    -0.072 N 
ATOM     26  H63 UNL     1      -5.827  -3.157  49.865  1.00  0.00     0.274 HD
ATOM     27  H62 UNL     1      -6.430  -2.942  51.287  1.00  0.00     0.274 HD
ATOM     28  H61 UNL     1      -7.289  -2.345  49.977  1.00  0.00     0.274 HD
ENDBRANCH  23  25
BRANCH  24  29
HETATM   29  O1  UNL     1      -3.448  -1.847  49.820  1.00  0.00    -0.391 OA
ATOM     30  H1  UNL     1      -3.051  -1.096  49.396  1.00  0.00     0.210 HD
ENDBRANCH  24  29
ENDBRANCH  17  20
ENDBRANCH  16  17
ENDBRANCH   1  16
TORSDOF 10
ENDMDL
MODEL 2
REMARK VINA RESULT: -6.501695115      3.869      5.367
REMARK  10 active torsions:
REMARK  status: ('A' for Active; 'I' for Inactive)
REMARK    1  A    between atoms: N1_1  and  C1_4 
REMARK    2  A    between atoms: N3_8  and  C3_9 
REMARK    3  A    between atoms: C3_9  and  C4_10 
REMARK    4  A    between atoms: C4_10  and  N4_11 
REMARK    5  A    between atoms: N4_11  and  C5_13 
REMARK    6  A    between atoms: C5_13  and  C6_14 
REMARK    7  A    between atoms: C6_14  and  N5_15 
REMARK    8  A    between atoms: N5_15  and  C7_18 
REMARK    9  A    between atoms: C10_21  and  N6_22 
REMARK   10  A    between atoms: C11_26  and  O1_27 
ROOT
HETATM    1  C5  UNL     1      -0.603  -1.813  53.619  1.00  0.00     0.141 C 
ENDROOT
BRANCH   1   2
HETATM    2  N4  UNL     1      -0.402  -0.393  53.494  1.00  0.00    -0.418 N 
ATOM      3  H4  UNL     1      -0.388   0.228  54.302  1.00  0.00     0.153 HD
BRANCH   2   4
HETATM    4  C4  UNL     1      -0.224   0.084  52.159  1.00  0.00     0.135 C 
BRANCH   4   5
HETATM    5  C3  UNL     1       0.986   0.941  51.965  1.00  0.00     0.169 C 
BRANCH   5   6
HETATM    6  N3  UNL     1       1.769   0.556  50.813  1.00  0.00    -0.272 N 
HETATM    7  C2  UNL     1       1.375  -0.347  49.884  1.00  0.00     0.218 A 
HETATM    8  N2  UNL     1       2.356  -0.431  48.977  1.00  0.00    -0.185 N 
HETATM    9  C1  UNL     1       3.353   0.389  49.309  1.00  0.00     0.691 A 
ATOM     10  H2  UNL     1       2.343  -1.033  48.154  1.00  0.00     0.185 HD
HETATM   11  N7  UNL     1       2.974   0.994  50.448  1.00  0.00    -0.129 N 
ATOM     12  H7  UNL     1       3.526   1.684  50.957  1.00  0.00     0.206 HD
BRANCH   9  13
HETATM   13  N1  UNL     1       4.463   0.598  48.702  1.00  0.00    -0.233 N 
ATOM     14  H12 UNL     1       4.576   0.635  47.688  1.00  0.00     0.174 HD
ATOM     15  H11 UNL     1       5.391   0.755  49.095  1.00  0.00     0.174 HD
ENDBRANCH   9  13
ENDBRANCH   5   6
ENDBRANCH   4   5
ENDBRANCH   2   4
ENDBRANCH   1   2
BRANCH   1  16
HETATM   16  C6  UNL     1       0.542  -2.475  54.385  1.00  0.00     0.252 C 
BRANCH  16  17
HETATM   17  N5  UNL     1       0.032  -3.723  54.900  1.00  0.00    -0.067 N 
ATOM     18  H52 UNL     1      -0.917  -3.896  54.568  1.00  0.00     0.277 HD
ATOM     19  H51 UNL     1       0.504  -4.518  54.469  1.00  0.00     0.277 HD
BRANCH  17  20
HETATM   20  C7  UNL     1       0.099  -3.798  56.343  1.00  0.00     0.216 C 
HETATM   21  C8  UNL     1      -1.314  -3.944  56.848  1.00  0.00     0.038 C 
HETATM   22  C9  UNL     1      -1.707  -2.514  57.133  1.00  0.00     0.037 C 
HETATM   23  C10 UNL     1      -0.473  -2.028  57.876  1.00  0.00     0.214 C 
HETATM   24  C11 UNL     1       0.610  -2.495  56.895  1.00  0.00     0.179 C 
BRANCH  23  25
HETATM   25  N6  UNL     1      -0.429  -0.612  58.067  1.00  0.00    -0.072 N 
ATOM     26  H63 UNL     1      -0.079  -0.387  58.997  1.00  0.00     0.274 HD
ATOM     27  H62 UNL     1       0.310  -0.197  57.499  1.00  0.00     0.274 HD
ATOM     28  H61 UNL     1      -1.318  -0.143  57.895  1.00  0.00     0.274 HD
ENDBRANCH  23  25
BRANCH  24  29
HETATM   29  O1  UNL     1       1.793  -2.620  57.580  1.00  0.00    -0.391 OA
ATOM     30  H1  UNL     1       2.210  -1.787  57.767  1.00  0.00     0.210 HD
ENDBRANCH  24  29
ENDBRANCH  17  20
ENDBRANCH  16  17
ENDBRANCH   1  16
TORSDOF 10
ENDMDL
MODEL 3
REMARK VINA RESULT: -6.282395109      1.661      1.815
REMARK  10 active torsions:
REMARK  status: ('A' for Active; 'I' for Inactive)
REMARK    1  A    between atoms: N1_1  and  C1_4 
REMARK    2  A    between atoms: N3_8  and  C3_9 
REMARK    3  A    between atoms: C3_9  and  C4_10 
REMARK    4  A    between atoms: C4_10  and  N4_11 
REMARK    5  A    between atoms: N4_11  and  C5_13 
REMARK    6  A    between atoms: C5_13  and  C6_14 
REMARK    7  A    between atoms: C6_14  and  N5_15 
REMARK    8  A    between atoms: N5_15  and  C7_18 
REMARK    9  A    between atoms: C10_21  and  N6_22 
REMARK   10  A    between atoms: C11_26  and  O1_27 
ROOT
HETATM    1  C5  UNL     1      -1.990   2.646  52.577  1.00  0.00     0.141 C 
ENDROOT
BRANCH   1   2
HETATM    2  N4  UNL     1      -0.966   2.340  51.614  1.00  0.00    -0.418 N 
ATOM      3  H4  UNL     1      -0.593   3.041  50.974  1.00  0.00     0.153 HD
BRANCH   2   4
HETATM    4  C4  UNL     1      -0.508   0.987  51.617  1.00  0.00     0.135 C 
BRANCH   4   5
HETATM    5  C3  UNL     1       0.942   0.826  51.942  1.00  0.00     0.169 C 
BRANCH   5   6
HETATM    6  N3  UNL     1       1.747   0.506  50.784  1.00  0.00    -0.272 N 
HETATM    7  C2  UNL     1       1.382  -0.364  49.813  1.00  0.00     0.218 A 
HETATM    8  N2  UNL     1       2.375  -0.390  48.916  1.00  0.00    -0.185 N 
HETATM    9  C1  UNL     1       3.351   0.435  49.294  1.00  0.00     0.691 A 
ATOM     10  H2  UNL     1       2.384  -0.957  48.068  1.00  0.00     0.185 HD
HETATM   11  N7  UNL     1       2.947   0.983  50.453  1.00  0.00    -0.129 N 
ATOM     12  H7  UNL     1       3.478   1.663  50.997  1.00  0.00     0.206 HD
BRANCH   9  13
HETATM   13  N1  UNL     1       4.463   0.692  48.710  1.00  0.00    -0.233 N 
ATOM     14  H12 UNL     1       4.897   0.105  47.997  1.00  0.00     0.174 HD
ATOM     15  H11 UNL     1       5.090   1.485  48.842  1.00  0.00     0.174 HD
ENDBRANCH   9  13
ENDBRANCH   5   6
ENDBRANCH   4   5
ENDBRANCH   2   4
ENDBRANCH   1   2
BRANCH   1  16
HETATM   16  C6  UNL     1      -2.687   1.380  53.075  1.00  0.00     0.252 C 
BRANCH  16  17
HETATM   17  N5  UNL     1      -3.935   1.280  52.357  1.00  0.00    -0.067 N 
ATOM     18  H52 UNL     1      -4.673   1.801  52.832  1.00  0.00     0.277 HD
ATOM     19  H51 UNL     1      -3.898   1.806  51.484  1.00  0.00     0.277 HD
BRANCH  17  20
HETATM   20  C7  UNL     1      -4.335  -0.089  52.123  1.00  0.00     0.216 C 
HETATM   21  C8  UNL     1      -4.248  -0.331  50.637  1.00  0.00     0.038 C 
HETATM   22  C9  UNL     1      -5.656  -0.044  50.177  1.00  0.00     0.037 C 
HETATM   23  C10 UNL     1      -6.453  -0.806  51.224  1.00  0.00     0.214 C 
HETATM   24  C11 UNL     1      -5.783  -0.265  52.492  1.00  0.00     0.179 C 
BRANCH  23  25
HETATM   25  N6  UNL     1      -7.853  -0.521  51.210  1.00  0.00    -0.072 N 
ATOM     26  H63 UNL     1      -8.151  -0.236  50.277  1.00  0.00     0.274 HD
ATOM     27  H62 UNL     1      -8.395  -1.380  51.310  1.00  0.00     0.274 HD
ATOM     28  H61 UNL     1      -8.143   0.168  51.904  1.00  0.00     0.274 HD
ENDBRANCH  23  25
BRANCH  24  29
HETATM   29  O1  UNL     1      -5.981  -1.168  53.508  1.00  0.00    -0.391 OA
ATOM     30  H1  UNL     1      -6.892  -1.409  53.625  1.00  0.00     0.210 HD
ENDBRANCH  24  29
ENDBRANCH  17  20
ENDBRANCH  16  17
ENDBRANCH   1  16
TORSDOF 10
ENDMDL
MODEL 4
REMARK VINA RESULT: -6.251166586      3.540      4.914
REMARK  10 active torsions:
REMARK  status: ('A' for Active; 'I' for Inactive)
REMARK    1  A    between atoms: N1_1  and  C1_4 
REMARK    2  A    between atoms: N3_8  and  C3_9 
REMARK    3  A    between atoms: C3_9  and  C4_10 
REMARK    4  A    between atoms: C4_10  and  N4_11 
REMARK    5  A    between atoms: N4_11  and  C5_13 
REMARK    6  A    between atoms: C5_13  and  C6_14 
REMARK    7  A    between atoms: C6_14  and  N5_15 
REMARK    8  A    between atoms: N5_15  and  C7_18 
REMARK    9  A    between atoms: C10_21  and  N6_22 
REMARK   10  A    between atoms: C11_26  and  O1_27 
ROOT
HETATM    1  C5  UNL     1      -1.498  -0.337  54.193  1.00  0.00     0.141 C 
ENDROOT
BRANCH   1   2
HETATM    2  N4  UNL     1      -0.198  -0.533  53.608  1.00  0.00    -0.418 N 
ATOM      3  H4  UNL     1       0.591  -0.899  54.142  1.00  0.00     0.153 HD
BRANCH   2   4
HETATM    4  C4  UNL     1      -0.089  -0.181  52.228  1.00  0.00     0.135 C 
BRANCH   4   5
HETATM    5  C3  UNL     1       0.962   0.841  51.932  1.00  0.00     0.169 C 
BRANCH   5   6
HETATM    6  N3  UNL     1       1.766   0.505  50.778  1.00  0.00    -0.272 N 
HETATM    7  C2  UNL     1       1.401  -0.382  49.822  1.00  0.00     0.218 A 
HETATM    8  N2  UNL     1       2.393  -0.419  48.924  1.00  0.00    -0.185 N 
HETATM    9  C1  UNL     1       3.368   0.415  49.287  1.00  0.00     0.691 A 
ATOM     10  H2  UNL     1       2.402  -0.999  48.085  1.00  0.00     0.185 HD
HETATM   11  N7  UNL     1       2.964   0.980  50.438  1.00  0.00    -0.129 N 
ATOM     12  H7  UNL     1       3.494   1.669  50.971  1.00  0.00     0.206 HD
BRANCH   9  13
HETATM   13  N1  UNL     1       4.479   0.665  48.698  1.00  0.00    -0.233 N 
ATOM     14  H12 UNL     1       5.384   0.280  48.969  1.00  0.00     0.174 HD
ATOM     15  H11 UNL     1       4.658   1.264  47.892  1.00  0.00     0.174 HD
ENDBRANCH   9  13
ENDBRANCH   5   6
ENDBRANCH   4   5
ENDBRANCH   2   4
ENDBRANCH   1   2
BRANCH   1  16
HETATM   16  C6  UNL     1      -1.752  -1.321  55.335  1.00  0.00     0.252 C 
BRANCH  16  17
HETATM   17  N5  UNL     1      -0.669  -1.160  56.274  1.00  0.00    -0.067 N 
ATOM     18  H52 UNL     1       0.135  -0.712  55.832  1.00  0.00     0.277 HD
ATOM     19  H51 UNL     1      -0.891  -0.449  56.971  1.00  0.00     0.277 HD
BRANCH  17  20
HETATM   20  C7  UNL     1      -0.288  -2.404  56.903  1.00  0.00     0.216 C 
HETATM   21  C8  UNL     1       1.178  -2.616  56.622  1.00  0.00     0.038 C 
HETATM   22  C9  UNL     1       1.151  -3.475  55.381  1.00  0.00     0.037 C 
HETATM   23  C10 UNL     1       0.097  -4.498  55.771  1.00  0.00     0.214 C 
HETATM   24  C11 UNL     1      -1.010  -3.548  56.244  1.00  0.00     0.179 C 
BRANCH  23  25
HETATM   25  N6  UNL     1      -0.346  -5.319  54.689  1.00  0.00    -0.072 N 
ATOM     26  H63 UNL     1      -1.256  -5.006  54.351  1.00  0.00     0.274 HD
ATOM     27  H62 UNL     1       0.216  -5.145  53.854  1.00  0.00     0.274 HD
ATOM     28  H61 UNL     1      -0.367  -6.315  54.905  1.00  0.00     0.274 HD
ENDBRANCH  23  25
BRANCH  24  29
HETATM   29  O1  UNL     1      -1.838  -4.235  57.097  1.00  0.00    -0.391 OA
ATOM     30  H1  UNL     1      -2.100  -5.085  56.765  1.00  0.00     0.210 HD
ENDBRANCH  24  29
ENDBRANCH  17  20
ENDBRANCH  16  17
ENDBRANCH   1  16
TORSDOF 10
ENDMDL
MODEL 5
REMARK VINA RESULT: -6.242961428      3.701      5.805
REMARK  10 active torsions:
REMARK  status: ('A' for Active; 'I' for Inactive)
REMARK    1  A    between atoms: N1_1  and  C1_4 
REMARK    2  A    between atoms: N3_8  and  C3_9 
REMARK    3  A    between atoms: C3_9  and  C4_10 
REMARK    4  A    between atoms: C4_10  and  N4_11 
REMARK    5  A    between atoms: N4_11  and  C5_13 
REMARK    6  A    between atoms: C5_13  and  C6_14 
REMARK    7  A    between atoms: C6_14  and  N5_15 
REMARK    8  A    between atoms: N5_15  and  C7_18 
REMARK    9  A    between atoms: C10_21  and  N6_22 
REMARK   10  A    between atoms: C11_26  and  O1_27 
ROOT
HETATM    1  C5  UNL     1      -0.838  -1.597  53.220  1.00  0.00     0.141 C 
ENDROOT
BRANCH   1   2
HETATM    2  N4  UNL     1       0.256  -1.513  54.151  1.00  0.00    -0.418 N 
ATOM      3  H4  UNL     1       0.826  -0.672  54.248  1.00  0.00     0.153 HD
BRANCH   2   4
HETATM    4  C4  UNL     1       0.489  -2.688  54.928  1.00  0.00     0.135 C 
BRANCH   4   5
HETATM    5  C3  UNL     1      -0.593  -3.003  55.911  1.00  0.00     0.169 C 
BRANCH   5   6
HETATM    6  N3  UNL     1      -1.209  -4.290  55.677  1.00  0.00    -0.272 N 
HETATM    7  C2  UNL     1      -0.903  -5.110  54.644  1.00  0.00     0.218 A 
HETATM    8  N2  UNL     1      -1.671  -6.200  54.769  1.00  0.00    -0.185 N 
HETATM    9  C1  UNL     1      -2.448  -6.088  55.846  1.00  0.00     0.691 A 
ATOM     10  H2  UNL     1      -1.662  -6.998  54.134  1.00  0.00     0.185 HD
HETATM   11  N7  UNL     1      -2.150  -4.900  56.398  1.00  0.00    -0.129 N 
ATOM     12  H7  UNL     1      -2.579  -4.521  57.243  1.00  0.00     0.206 HD
BRANCH   9  13
HETATM   13  N1  UNL     1      -3.315  -6.914  56.305  1.00  0.00    -0.233 N 
ATOM     14  H12 UNL     1      -4.252  -6.662  56.620  1.00  0.00     0.174 HD
ATOM     15  H11 UNL     1      -3.235  -7.922  56.438  1.00  0.00     0.174 HD
ENDBRANCH   9  13
ENDBRANCH   5   6
ENDBRANCH   4   5
ENDBRANCH   2   4
ENDBRANCH   1   2
BRANCH   1  16
HETATM   16  C6  UNL     1      -1.616  -0.283  53.150  1.00  0.00     0.252 C 
BRANCH  16  17
HETATM   17  N5  UNL     1      -3.001  -0.629  52.942  1.00  0.00    -0.067 N 
ATOM     18  H52 UNL     1      -3.166  -1.616  53.141  1.00  0.00     0.277 HD
ATOM     19  H51 UNL     1      -3.594  -0.215  53.661  1.00  0.00     0.277 HD
BRANCH  17  20
HETATM   20  C7  UNL     1      -3.469  -0.282  51.619  1.00  0.00     0.216 C 
HETATM   21  C8  UNL     1      -4.593   0.709  51.789  1.00  0.00     0.038 C 
HETATM   22  C9  UNL     1      -5.814  -0.179  51.777  1.00  0.00     0.037 C 
HETATM   23  C10 UNL     1      -5.500  -1.072  50.587  1.00  0.00     0.214 C 
HETATM   24  C11 UNL     1      -4.073  -1.493  50.960  1.00  0.00     0.179 C 
BRANCH  23  25
HETATM   25  N6  UNL     1      -6.364  -2.203  50.466  1.00  0.00    -0.072 N 
ATOM     26  H63 UNL     1      -6.291  -2.799  51.290  1.00  0.00     0.274 HD
ATOM     27  H62 UNL     1      -7.340  -1.919  50.545  1.00  0.00     0.274 HD
ATOM     28  H61 UNL     1      -6.217  -2.748  49.616  1.00  0.00     0.274 HD
ENDBRANCH  23  25
BRANCH  24  29
HETATM   29  O1  UNL     1      -3.419  -1.874  49.815  1.00  0.00    -0.391 OA
ATOM     30  H1  UNL     1      -3.443  -2.811  49.661  1.00  0.00     0.210 HD
ENDBRANCH  24  29
ENDBRANCH  17  20
ENDBRANCH  16  17
ENDBRANCH   1  16
TORSDOF 10
ENDMDL
