MODEL 1
REMARK VINA RESULT: -9.110651224      0.000      0.000
REMARK  3 active torsions:
REMARK  status: ('A' for Active; 'I' for Inactive)
REMARK    1  A    between atoms: N1_1  and  C1_4 
REMARK    2  A    between atoms: C2_7  and  C3_8 
REMARK    3  A    between atoms: C8_20  and  C9_21 
ROOT
HETATM    1  C1  UNL     1      46.514   6.207  13.066  1.00  0.00     0.699 A 
HETATM    2  N2  UNL     1      45.930   5.693  11.943  1.00  0.00    -0.188 N 
ATOM      3  H2  UNL     1      45.524   6.321  11.250  1.00  0.00     0.184 HD
HETATM    4  C2  UNL     1      45.888   4.367  11.749  1.00  0.00     0.076 A 
HETATM    5  C6  UNL     1      46.446   3.558  12.709  1.00  0.00     0.083 A 
HETATM    6  C7  UNL     1      47.033   4.100  13.841  1.00  0.00     0.149 A 
HETATM    7  N5  UNL     1      47.630   3.513  14.893  1.00  0.00    -0.322 N 
ATOM      8  H5  UNL     1      47.752   2.510  15.031  1.00  0.00     0.169 HD
HETATM    9  C8  UNL     1      48.035   4.475  15.723  1.00  0.00     0.169 A 
HETATM   10  N10 UNL     1      47.679   5.642  15.167  1.00  0.00    -0.259 N 
ATOM     11  H10 UNL     1      47.857   6.560  15.574  1.00  0.00     0.190 HD
HETATM   12  N11 UNL     1      47.058   5.430  14.004  1.00  0.00    -0.068 N 
ENDROOT
BRANCH   4  13
HETATM   13  C3  UNL     1      45.249   3.820  10.522  1.00  0.00     0.060 C 
HETATM   14  N3  UNL     1      45.408   2.643  10.047  1.00  0.00    -0.367 N 
HETATM   15  C4  UNL     1      44.657   2.402   8.844  1.00  0.00     0.355 C 
ATOM     16  H3  UNL     1      46.011   1.942  10.480  1.00  0.00     0.161 HD
HETATM   17  N4  UNL     1      44.262   3.740   8.435  1.00  0.00    -0.054 N 
HETATM   18  C5  UNL     1      44.313   4.540   9.632  1.00  0.00     0.293 C 
ATOM     19  H42 UNL     1      44.819   4.116   7.668  1.00  0.00     0.279 HD
ATOM     20  H41 UNL     1      43.361   3.773   7.958  1.00  0.00     0.279 HD
ENDBRANCH   4  13
BRANCH   1  21
HETATM   21  N1  UNL     1      46.538   7.486  13.221  1.00  0.00    -0.233 N 
ATOM     22  H12 UNL     1      46.726   8.079  12.414  1.00  0.00     0.174 HD
ATOM     23  H11 UNL     1      46.368   7.870  14.151  1.00  0.00     0.174 HD
ENDBRANCH   1  21
BRANCH   9  24
HETATM   24  C9  UNL     1      48.732   4.246  16.990  1.00  0.00     0.177 A 
HETATM   25  N6  UNL     1      50.066   4.235  17.125  1.00  0.00    -0.267 N 
HETATM   26  N7  UNL     1      50.339   3.997  18.414  1.00  0.00    -0.007 NA
ATOM     27  H6  UNL     1      50.748   4.381  16.381  1.00  0.00     0.185 HD
HETATM   28  N8  UNL     1      49.198   3.861  19.081  1.00  0.00    -0.007 NA
HETATM   29  N9  UNL     1      48.197   4.015  18.199  1.00  0.00    -0.267 N 
ATOM     30  H9  UNL     1      47.201   3.966  18.413  1.00  0.00     0.185 HD
ENDBRANCH   9  24
TORSDOF 3
ENDMDL
MODEL 2
REMARK VINA RESULT: -8.471536712      2.313      3.656
REMARK  3 active torsions:
REMARK  status: ('A' for Active; 'I' for Inactive)
REMARK    1  A    between atoms: N1_1  and  C1_4 
REMARK    2  A    between atoms: C2_7  and  C3_8 
REMARK    3  A    between atoms: C8_20  and  C9_21 
ROOT
HETATM    1  C1  UNL     1      45.328   4.866  13.023  1.00  0.00     0.699 A 
HETATM    2  N2  UNL     1      44.806   5.939  12.359  1.00  0.00    -0.188 N 
ATOM      3  H2  UNL     1      43.985   5.817  11.766  1.00  0.00     0.184 HD
HETATM    4  C2  UNL     1      45.365   7.150  12.484  1.00  0.00     0.076 A 
HETATM    5  C6  UNL     1      46.470   7.269  13.293  1.00  0.00     0.083 A 
HETATM    6  C7  UNL     1      46.985   6.167  13.957  1.00  0.00     0.149 A 
HETATM    7  N5  UNL     1      48.037   6.049  14.785  1.00  0.00    -0.322 N 
ATOM      8  H5  UNL     1      48.662   6.802  15.072  1.00  0.00     0.169 HD
HETATM    9  C8  UNL     1      48.118   4.773  15.165  1.00  0.00     0.169 A 
HETATM   10  N10 UNL     1      47.111   4.125  14.561  1.00  0.00    -0.259 N 
ATOM     11  H10 UNL     1      46.916   3.129  14.662  1.00  0.00     0.190 HD
HETATM   12  N11 UNL     1      46.400   4.971  13.811  1.00  0.00    -0.068 N 
ENDROOT
BRANCH   4  13
HETATM   13  C3  UNL     1      44.786   8.311  11.754  1.00  0.00     0.060 C 
HETATM   14  N3  UNL     1      43.755   8.290  10.997  1.00  0.00    -0.367 N 
HETATM   15  C4  UNL     1      43.435   9.571  10.427  1.00  0.00     0.355 C 
ATOM     16  H3  UNL     1      43.212   7.445  10.815  1.00  0.00     0.161 HD
HETATM   17  N4  UNL     1      44.642  10.344  10.668  1.00  0.00    -0.054 N 
HETATM   18  C5  UNL     1      45.300   9.697  11.774  1.00  0.00     0.293 C 
ATOM     19  H42 UNL     1      45.234  10.449   9.844  1.00  0.00     0.279 HD
ATOM     20  H41 UNL     1      44.468  11.337  10.819  1.00  0.00     0.279 HD
ENDBRANCH   4  13
BRANCH   1  21
HETATM   21  N1  UNL     1      44.766   3.716  12.882  1.00  0.00    -0.233 N 
ATOM     22  H12 UNL     1      44.314   3.491  11.996  1.00  0.00     0.174 HD
ATOM     23  H11 UNL     1      44.787   3.060  13.663  1.00  0.00     0.174 HD
ENDBRANCH   1  21
BRANCH   9  24
HETATM   24  C9  UNL     1      49.134   4.234  16.070  1.00  0.00     0.177 A 
HETATM   25  N6  UNL     1      50.075   4.974  16.673  1.00  0.00    -0.267 N 
HETATM   26  N7  UNL     1      50.820   4.150  17.419  1.00  0.00    -0.007 NA
ATOM     27  H6  UNL     1      50.201   5.982  16.581  1.00  0.00     0.185 HD
HETATM   28  N8  UNL     1      50.358   2.911  17.290  1.00  0.00    -0.007 NA
HETATM   29  N9  UNL     1      49.310   2.959  16.453  1.00  0.00    -0.267 N 
ATOM     30  H9  UNL     1      48.744   2.164  16.158  1.00  0.00     0.185 HD
ENDBRANCH   9  24
TORSDOF 3
ENDMDL
MODEL 3
REMARK VINA RESULT: -8.330379106      2.399      7.284
REMARK  3 active torsions:
REMARK  status: ('A' for Active; 'I' for Inactive)
REMARK    1  A    between atoms: N1_1  and  C1_4 
REMARK    2  A    between atoms: C2_7  and  C3_8 
REMARK    3  A    between atoms: C8_20  and  C9_21 
ROOT
HETATM    1  C1  UNL     1      46.047   4.164  13.003  1.00  0.00     0.699 A 
HETATM    2  N2  UNL     1      46.939   3.762  13.955  1.00  0.00    -0.188 N 
ATOM      3  H2  UNL     1      47.082   2.767  14.128  1.00  0.00     0.184 HD
HETATM    4  C2  UNL     1      47.628   4.668  14.663  1.00  0.00     0.076 A 
HETATM    5  C6  UNL     1      47.404   5.997  14.397  1.00  0.00     0.083 A 
HETATM    6  C7  UNL     1      46.494   6.384  13.427  1.00  0.00     0.149 A 
HETATM    7  N5  UNL     1      46.119   7.604  13.005  1.00  0.00    -0.322 N 
ATOM      8  H5  UNL     1      46.469   8.495  13.357  1.00  0.00     0.169 HD
HETATM    9  C8  UNL     1      45.207   7.443  12.045  1.00  0.00     0.169 A 
HETATM   10  N10 UNL     1      45.036   6.122  11.892  1.00  0.00    -0.259 N 
ATOM     11  H10 UNL     1      44.396   5.691  11.224  1.00  0.00     0.190 HD
HETATM   12  N11 UNL     1      45.822   5.452  12.738  1.00  0.00    -0.068 N 
ENDROOT
BRANCH   4  13
HETATM   13  C3  UNL     1      48.597   4.216  15.698  1.00  0.00     0.060 C 
HETATM   14  N3  UNL     1      49.516   4.927  16.235  1.00  0.00    -0.367 N 
HETATM   15  C4  UNL     1      50.300   4.213  17.207  1.00  0.00     0.355 C 
ATOM     16  H3  UNL     1      49.676   5.906  15.997  1.00  0.00     0.161 HD
HETATM   17  N4  UNL     1      49.953   2.825  16.947  1.00  0.00    -0.054 N 
HETATM   18  C5  UNL     1      48.672   2.864  16.290  1.00  0.00     0.293 C 
ATOM     19  H42 UNL     1      50.666   2.316  16.425  1.00  0.00     0.279 HD
ATOM     20  H41 UNL     1      49.970   2.237  17.780  1.00  0.00     0.279 HD
ENDBRANCH   4  13
BRANCH   1  21
HETATM   21  N1  UNL     1      45.402   3.267  12.340  1.00  0.00    -0.233 N 
ATOM     22  H12 UNL     1      45.739   2.305  12.352  1.00  0.00     0.174 HD
ATOM     23  H11 UNL     1      44.569   3.545  11.821  1.00  0.00     0.174 HD
ENDBRANCH   1  21
BRANCH   9  24
HETATM   24  C9  UNL     1      44.550   8.535  11.326  1.00  0.00     0.177 A 
HETATM   25  N6  UNL     1      45.120   9.722  11.074  1.00  0.00    -0.267 N 
HETATM   26  N7  UNL     1      44.229  10.463  10.404  1.00  0.00    -0.007 NA
ATOM     27  H6  UNL     1      46.061  10.009  11.343  1.00  0.00     0.185 HD
HETATM   28  N8  UNL     1      43.116   9.757  10.235  1.00  0.00    -0.007 NA
HETATM   29  N9  UNL     1      43.312   8.558  10.807  1.00  0.00    -0.267 N 
ATOM     30  H9  UNL     1      42.636   7.795  10.841  1.00  0.00     0.185 HD
ENDBRANCH   9  24
TORSDOF 3
ENDMDL
MODEL 4
REMARK VINA RESULT: -8.303126858      2.078      3.379
REMARK  3 active torsions:
REMARK  status: ('A' for Active; 'I' for Inactive)
REMARK    1  A    between atoms: N1_1  and  C1_4 
REMARK    2  A    between atoms: C2_7  and  C3_8 
REMARK    3  A    between atoms: C8_20  and  C9_21 
ROOT
HETATM    1  C1  UNL     1      45.845   4.298  12.753  1.00  0.00     0.699 A 
HETATM    2  N2  UNL     1      45.224   5.308  12.076  1.00  0.00    -0.188 N 
ATOM      3  H2  UNL     1      44.543   5.088  11.349  1.00  0.00     0.184 HD
HETATM    4  C2  UNL     1      45.504   6.587  12.363  1.00  0.00     0.076 A 
HETATM    5  C6  UNL     1      46.428   6.838  13.349  1.00  0.00     0.083 A 
HETATM    6  C7  UNL     1      47.048   5.798  14.023  1.00  0.00     0.149 A 
HETATM    7  N5  UNL     1      47.965   5.806  15.005  1.00  0.00    -0.322 N 
ATOM      8  H5  UNL     1      48.377   6.634  15.435  1.00  0.00     0.169 HD
HETATM    9  C8  UNL     1      48.242   4.539  15.316  1.00  0.00     0.169 A 
HETATM   10  N10 UNL     1      47.488   3.770  14.517  1.00  0.00    -0.259 N 
ATOM     11  H10 UNL     1      47.484   2.750  14.525  1.00  0.00     0.190 HD
HETATM   12  N11 UNL     1      46.744   4.531  13.711  1.00  0.00    -0.068 N 
ENDROOT
BRANCH   4  13
HETATM   13  C3  UNL     1      44.821   7.678  11.617  1.00  0.00     0.060 C 
HETATM   14  N3  UNL     1      45.251   8.874  11.463  1.00  0.00    -0.367 N 
HETATM   15  C4  UNL     1      44.368   9.707  10.692  1.00  0.00     0.355 C 
ATOM     16  H3  UNL     1      46.136   9.203  11.850  1.00  0.00     0.161 HD
HETATM   17  N4  UNL     1      43.132   8.942  10.676  1.00  0.00    -0.054 N 
HETATM   18  C5  UNL     1      43.520   7.577  10.922  1.00  0.00     0.293 C 
ATOM     19  H42 UNL     1      42.425   9.290  11.324  1.00  0.00     0.279 HD
ATOM     20  H41 UNL     1      42.586   9.065   9.823  1.00  0.00     0.279 HD
ENDBRANCH   4  13
BRANCH   1  21
HETATM   21  N1  UNL     1      45.553   3.079  12.453  1.00  0.00    -0.233 N 
ATOM     22  H12 UNL     1      45.165   2.876  11.532  1.00  0.00     0.174 HD
ATOM     23  H11 UNL     1      45.716   2.350  13.147  1.00  0.00     0.174 HD
ENDBRANCH   1  21
BRANCH   9  24
HETATM   24  C9  UNL     1      49.198   4.121  16.343  1.00  0.00     0.177 A 
HETATM   25  N6  UNL     1      49.479   2.843  16.636  1.00  0.00    -0.267 N 
HETATM   26  N7  UNL     1      50.389   2.845  17.618  1.00  0.00    -0.007 NA
ATOM     27  H6  UNL     1      49.074   2.019  16.191  1.00  0.00     0.185 HD
HETATM   28  N8  UNL     1      50.677   4.102  17.940  1.00  0.00    -0.007 NA
HETATM   29  N9  UNL     1      49.939   4.897  17.149  1.00  0.00    -0.267 N 
ATOM     30  H9  UNL     1      49.942   5.917  17.160  1.00  0.00     0.185 HD
ENDBRANCH   9  24
TORSDOF 3
ENDMDL
MODEL 5
REMARK VINA RESULT: -8.239634300      2.373      7.054
REMARK  3 active torsions:
REMARK  status: ('A' for Active; 'I' for Inactive)
REMARK    1  A    between atoms: N1_1  and  C1_4 
REMARK    2  A    between atoms: C2_7  and  C3_8 
REMARK    3  A    between atoms: C8_20  and  C9_21 
ROOT
HETATM    1  C1  UNL     1      46.472   4.285  13.515  1.00  0.00     0.699 A 
HETATM    2  N2  UNL     1      47.252   3.662  14.447  1.00  0.00    -0.188 N 
ATOM      3  H2  UNL     1      47.202   2.649  14.555  1.00  0.00     0.184 HD
HETATM    4  C2  UNL     1      48.083   4.375  15.219  1.00  0.00     0.076 A 
HETATM    5  C6  UNL     1      48.119   5.737  15.041  1.00  0.00     0.083 A 
HETATM    6  C7  UNL     1      47.318   6.350  14.090  1.00  0.00     0.149 A 
HETATM    7  N5  UNL     1      47.189   7.643  13.746  1.00  0.00    -0.322 N 
ATOM      8  H5  UNL     1      47.693   8.427  14.160  1.00  0.00     0.169 HD
HETATM    9  C8  UNL     1      46.284   7.718  12.769  1.00  0.00     0.169 A 
HETATM   10  N10 UNL     1      45.871   6.466  12.527  1.00  0.00    -0.259 N 
ATOM     11  H10 UNL     1      45.176   6.207  11.826  1.00  0.00     0.190 HD
HETATM   12  N11 UNL     1      46.498   5.607  13.334  1.00  0.00    -0.068 N 
ENDROOT
BRANCH   4  13
HETATM   13  C3  UNL     1      48.928   3.684  16.231  1.00  0.00     0.060 C 
HETATM   14  N3  UNL     1      49.345   2.476  16.170  1.00  0.00    -0.367 N 
HETATM   15  C4  UNL     1      50.144   2.086  17.300  1.00  0.00     0.355 C 
ATOM     16  H3  UNL     1      49.131   1.849  15.393  1.00  0.00     0.161 HD
HETATM   17  N4  UNL     1      49.877   3.140  18.265  1.00  0.00    -0.054 N 
HETATM   18  C5  UNL     1      49.436   4.271  17.489  1.00  0.00     0.293 C 
ATOM     19  H42 UNL     1      49.224   2.868  19.000  1.00  0.00     0.279 HD
ATOM     20  H41 UNL     1      50.668   3.346  18.876  1.00  0.00     0.279 HD
ENDBRANCH   4  13
BRANCH   1  21
HETATM   21  N1  UNL     1      45.684   3.570  12.789  1.00  0.00    -0.233 N 
ATOM     22  H12 UNL     1      44.924   3.060  13.238  1.00  0.00     0.174 HD
ATOM     23  H11 UNL     1      45.842   3.535  11.782  1.00  0.00     0.174 HD
ENDBRANCH   1  21
BRANCH   9  24
HETATM   24  C9  UNL     1      45.859   8.958  12.118  1.00  0.00     0.177 A 
HETATM   25  N6  UNL     1      46.436  10.151  12.320  1.00  0.00    -0.267 N 
HETATM   26  N7  UNL     1      45.788  11.046  11.564  1.00  0.00    -0.007 NA
ATOM     27  H6  UNL     1      47.226  10.343  12.937  1.00  0.00     0.185 HD
HETATM   28  N8  UNL     1      44.819  10.430  10.897  1.00  0.00    -0.007 NA
HETATM   29  N9  UNL     1      44.860   9.132  11.238  1.00  0.00    -0.267 N 
ATOM     30  H9  UNL     1      44.239   8.403  10.889  1.00  0.00     0.185 HD
ENDBRANCH   9  24
TORSDOF 3
ENDMDL
