MODEL 1
REMARK VINA RESULT: -6.044247532      0.000      0.000
REMARK  3 active torsions:
REMARK  status: ('A' for Active; 'I' for Inactive)
REMARK    1  A    between atoms: N2_8  and  N3_9 
REMARK    2  A    between atoms: N3_9  and  C4_11 
REMARK    3  A    between atoms: C4_11  and  C5_12 
ROOT
HETATM    1  N1  UNL     1      34.797  33.639  49.069  1.00  0.00    -0.363 N 
ATOM      2  H11 UNL     1      34.513  33.814  48.105  1.00  0.00     0.159 HD
ATOM      3  H12 UNL     1      35.559  32.961  49.058  1.00  0.00     0.159 HD
HETATM    4  C1  UNL     1      34.281  34.179  50.116  1.00  0.00     0.243 A 
HETATM    5  O1  UNL     1      34.646  33.954  51.356  1.00  0.00    -0.289 OA
HETATM    6  C2  UNL     1      33.912  34.671  52.187  1.00  0.00     0.165 A 
HETATM    7  C3  UNL     1      33.034  35.389  51.415  1.00  0.00     0.145 A 
HETATM    8  N2  UNL     1      33.265  35.083  50.131  1.00  0.00    -0.229 N 
ENDROOT
BRANCH   8   9
HETATM    9  N3  UNL     1      32.583  35.602  49.039  1.00  0.00    -0.300 N 
ATOM     10  H3  UNL     1      33.012  36.352  48.495  1.00  0.00     0.186 HD
BRANCH   9  11
HETATM   11  C4  UNL     1      31.425  35.164  48.693  1.00  0.00     0.145 C 
BRANCH  11  12
HETATM   12  C5  UNL     1      31.253  33.701  48.605  1.00  0.00     0.091 A 
HETATM   13  C6  UNL     1      30.319  32.933  49.263  1.00  0.00     0.040 A 
HETATM   14  C7  UNL     1      30.509  31.629  48.898  1.00  0.00     0.027 A 
HETATM   15  C8  UNL     1      31.569  31.635  48.016  1.00  0.00     0.142 A 
HETATM   16  O2  UNL     1      31.966  32.877  47.880  1.00  0.00    -0.321 OA
ENDBRANCH  11  12
ENDBRANCH   9  11
ENDBRANCH   8   9
TORSDOF 3
ENDMDL
MODEL 2
REMARK VINA RESULT: -5.985546979      1.923      4.299
REMARK  3 active torsions:
REMARK  status: ('A' for Active; 'I' for Inactive)
REMARK    1  A    between atoms: N2_8  and  N3_9 
REMARK    2  A    between atoms: N3_9  and  C4_11 
REMARK    3  A    between atoms: C4_11  and  C5_12 
ROOT
HETATM    1  N1  UNL     1      35.090  33.593  48.686  1.00  0.00    -0.363 N 
ATOM      2  H11 UNL     1      34.833  33.816  49.648  1.00  0.00     0.159 HD
ATOM      3  H12 UNL     1      36.041  33.927  48.525  1.00  0.00     0.159 HD
HETATM    4  C1  UNL     1      34.343  32.995  47.826  1.00  0.00     0.243 A 
HETATM    5  O1  UNL     1      34.674  32.708  46.589  1.00  0.00    -0.289 OA
HETATM    6  C2  UNL     1      33.677  32.093  45.980  1.00  0.00     0.165 A 
HETATM    7  C3  UNL     1      32.661  31.990  46.896  1.00  0.00     0.145 A 
HETATM    8  N2  UNL     1      33.077  32.550  48.040  1.00  0.00    -0.229 N 
ENDROOT
BRANCH   8   9
HETATM    9  N3  UNL     1      32.337  32.646  49.212  1.00  0.00    -0.300 N 
ATOM     10  H3  UNL     1      32.163  31.803  49.760  1.00  0.00     0.186 HD
BRANCH   9  11
HETATM   11  C4  UNL     1      31.864  33.768  49.623  1.00  0.00     0.145 C 
BRANCH  11  12
HETATM   12  C5  UNL     1      32.560  34.424  50.747  1.00  0.00     0.091 A 
HETATM   13  C6  UNL     1      32.210  35.602  51.367  1.00  0.00     0.040 A 
HETATM   14  C7  UNL     1      33.121  35.847  52.357  1.00  0.00     0.027 A 
HETATM   15  C8  UNL     1      34.015  34.798  52.315  1.00  0.00     0.142 A 
HETATM   16  O2  UNL     1      33.637  33.993  51.353  1.00  0.00    -0.321 OA
ENDBRANCH  11  12
ENDBRANCH   9  11
ENDBRANCH   8   9
TORSDOF 3
ENDMDL
MODEL 3
REMARK VINA RESULT: -5.904536524      2.524      3.907
REMARK  3 active torsions:
REMARK  status: ('A' for Active; 'I' for Inactive)
REMARK    1  A    between atoms: N2_8  and  N3_9 
REMARK    2  A    between atoms: N3_9  and  C4_11 
REMARK    3  A    between atoms: C4_11  and  C5_12 
ROOT
HETATM    1  N1  UNL     1      34.926  34.015  48.784  1.00  0.00    -0.363 N 
ATOM      2  H11 UNL     1      34.553  34.322  49.683  1.00  0.00     0.159 HD
ATOM      3  H12 UNL     1      35.857  34.415  48.672  1.00  0.00     0.159 HD
HETATM    4  C1  UNL     1      34.322  33.256  47.939  1.00  0.00     0.243 A 
HETATM    5  O1  UNL     1      34.801  32.861  46.783  1.00  0.00    -0.289 OA
HETATM    6  C2  UNL     1      33.925  32.091  46.164  1.00  0.00     0.165 A 
HETATM    7  C3  UNL     1      32.832  32.000  46.987  1.00  0.00     0.145 A 
HETATM    8  N2  UNL     1      33.080  32.723  48.088  1.00  0.00    -0.229 N 
ENDROOT
BRANCH   8   9
HETATM    9  N3  UNL     1      32.218  32.884  49.164  1.00  0.00    -0.300 N 
ATOM     10  H3  UNL     1      32.508  32.557  50.086  1.00  0.00     0.186 HD
BRANCH   9  11
HETATM   11  C4  UNL     1      31.064  33.433  49.030  1.00  0.00     0.145 C 
BRANCH  11  12
HETATM   12  C5  UNL     1      31.032  34.885  48.769  1.00  0.00     0.091 A 
HETATM   13  C6  UNL     1      29.944  35.636  48.383  1.00  0.00     0.040 A 
HETATM   14  C7  UNL     1      30.351  36.935  48.252  1.00  0.00     0.027 A 
HETATM   15  C8  UNL     1      31.694  36.943  48.565  1.00  0.00     0.142 A 
HETATM   16  O2  UNL     1      32.040  35.715  48.862  1.00  0.00    -0.321 OA
ENDBRANCH  11  12
ENDBRANCH   9  11
ENDBRANCH   8   9
TORSDOF 3
ENDMDL
MODEL 4
REMARK VINA RESULT: -5.877184362      1.362      2.059
REMARK  3 active torsions:
REMARK  status: ('A' for Active; 'I' for Inactive)
REMARK    1  A    between atoms: N2_8  and  N3_9 
REMARK    2  A    between atoms: N3_9  and  C4_11 
REMARK    3  A    between atoms: C4_11  and  C5_12 
ROOT
HETATM    1  N1  UNL     1      32.468  36.498  48.945  1.00  0.00    -0.363 N 
ATOM      2  H11 UNL     1      32.602  36.316  47.950  1.00  0.00     0.159 HD
ATOM      3  H12 UNL     1      31.897  37.338  49.040  1.00  0.00     0.159 HD
HETATM    4  C1  UNL     1      32.938  35.790  49.911  1.00  0.00     0.243 A 
HETATM    5  O1  UNL     1      32.764  36.024  51.190  1.00  0.00    -0.289 OA
HETATM    6  C2  UNL     1      33.380  35.105  51.911  1.00  0.00     0.165 A 
HETATM    7  C3  UNL     1      33.974  34.244  51.024  1.00  0.00     0.145 A 
HETATM    8  N2  UNL     1      33.698  34.670  49.784  1.00  0.00    -0.229 N 
ENDROOT
BRANCH   8   9
HETATM    9  N3  UNL     1      34.119  34.066  48.607  1.00  0.00    -0.300 N 
ATOM     10  H3  UNL     1      34.823  34.532  48.034  1.00  0.00     0.186 HD
BRANCH   9  11
HETATM   11  C4  UNL     1      33.645  32.936  48.219  1.00  0.00     0.145 C 
BRANCH  11  12
HETATM   12  C5  UNL     1      32.191  32.727  48.358  1.00  0.00     0.091 A 
HETATM   13  C6  UNL     1      31.558  31.632  48.901  1.00  0.00     0.040 A 
HETATM   14  C7  UNL     1      30.208  31.848  48.835  1.00  0.00     0.027 A 
HETATM   15  C8  UNL     1      30.053  33.085  48.246  1.00  0.00     0.142 A 
HETATM   16  O2  UNL     1      31.248  33.556  47.988  1.00  0.00    -0.321 OA
ENDBRANCH  11  12
ENDBRANCH   9  11
ENDBRANCH   8   9
TORSDOF 3
ENDMDL
MODEL 5
REMARK VINA RESULT: -5.872178182      2.597      3.509
REMARK  3 active torsions:
REMARK  status: ('A' for Active; 'I' for Inactive)
REMARK    1  A    between atoms: N2_8  and  N3_9 
REMARK    2  A    between atoms: N3_9  and  C4_11 
REMARK    3  A    between atoms: C4_11  and  C5_12 
ROOT
HETATM    1  N1  UNL     1      32.559  35.869  49.106  1.00  0.00    -0.363 N 
ATOM      2  H11 UNL     1      32.388  34.958  49.532  1.00  0.00     0.159 HD
ATOM      3  H12 UNL     1      33.561  36.057  49.149  1.00  0.00     0.159 HD
HETATM    4  C1  UNL     1      31.665  36.646  48.605  1.00  0.00     0.243 A 
HETATM    5  O1  UNL     1      31.884  37.818  48.058  1.00  0.00    -0.289 OA
HETATM    6  C2  UNL     1      30.749  38.350  47.644  1.00  0.00     0.165 A 
HETATM    7  C3  UNL     1      29.759  37.452  47.953  1.00  0.00     0.145 A 
HETATM    8  N2  UNL     1      30.330  36.395  48.548  1.00  0.00    -0.229 N 
ENDROOT
BRANCH   8   9
HETATM    9  N3  UNL     1      29.663  35.268  49.012  1.00  0.00    -0.300 N 
ATOM     10  H3  UNL     1      29.349  35.241  49.982  1.00  0.00     0.186 HD
BRANCH   9  11
HETATM   11  C4  UNL     1      29.432  34.258  48.251  1.00  0.00     0.145 C 
BRANCH  11  12
HETATM   12  C5  UNL     1      30.384  33.132  48.313  1.00  0.00     0.091 A 
HETATM   13  C6  UNL     1      30.207  31.930  48.960  1.00  0.00     0.040 A 
HETATM   14  C7  UNL     1      31.331  31.175  48.765  1.00  0.00     0.027 A 
HETATM   15  C8  UNL     1      32.175  31.947  47.995  1.00  0.00     0.142 A 
HETATM   16  O2  UNL     1      31.569  33.084  47.758  1.00  0.00    -0.321 OA
ENDBRANCH  11  12
ENDBRANCH   9  11
ENDBRANCH   8   9
TORSDOF 3
ENDMDL
