MODEL 1
REMARK VINA RESULT: -4.832370467      0.000      0.000
REMARK  3 active torsions:
REMARK  status: ('A' for Active; 'I' for Inactive)
REMARK    1  A    between atoms: C1_2  and  C2_4 
REMARK    2  A    between atoms: C2_4  and  C3_5 
REMARK    3  A    between atoms: N1_9  and  O3_10 
ROOT
HETATM    1  C3  UNL     1      33.194  34.221  49.688  1.00  0.00     0.119 C 
HETATM    2  C4  UNL     1      33.440  34.189  51.103  1.00  0.00     0.111 C 
HETATM    3  S1  UNL     1      32.933  35.718  51.904  1.00  0.00    -0.077 SA
HETATM    4  S2  UNL     1      32.724  36.762  50.023  1.00  0.00     0.018 SA
HETATM    5  N1  UNL     1      32.576  35.298  49.107  1.00  0.00    -0.122 NA
ENDROOT
BRANCH   1   6
HETATM    6  C2  UNL     1      34.484  33.871  48.914  1.00  0.00     0.137 C 
BRANCH   6   7
HETATM    7  C1  UNL     1      34.168  32.893  47.847  1.00  0.00     0.174 C 
HETATM    8  O1  UNL     1      33.209  32.081  48.025  1.00  0.00    -0.648 OA
HETATM    9  O2  UNL     1      34.882  32.830  46.657  1.00  0.00    -0.648 OA
ENDBRANCH   6   7
ENDBRANCH   1   6
BRANCH   5  10
HETATM   10  O3  UNL     1      31.236  35.125  48.860  1.00  0.00    -0.301 OA
ATOM     11  H3  UNL     1      30.742  35.931  48.771  1.00  0.00     0.238 HD
ENDBRANCH   5  10
TORSDOF 3
ENDMDL
MODEL 2
REMARK VINA RESULT: -4.809866271      0.084      1.021
REMARK  3 active torsions:
REMARK  status: ('A' for Active; 'I' for Inactive)
REMARK    1  A    between atoms: C1_2  and  C2_4 
REMARK    2  A    between atoms: C2_4  and  C3_5 
REMARK    3  A    between atoms: N1_9  and  O3_10 
ROOT
HETATM    1  C3  UNL     1      33.188  34.193  49.686  1.00  0.00     0.119 C 
HETATM    2  C4  UNL     1      33.448  34.174  51.098  1.00  0.00     0.111 C 
HETATM    3  S1  UNL     1      32.940  35.707  51.891  1.00  0.00    -0.077 SA
HETATM    4  S2  UNL     1      32.706  36.734  50.004  1.00  0.00     0.018 SA
HETATM    5  N1  UNL     1      32.558  35.261  49.101  1.00  0.00    -0.122 NA
ENDROOT
BRANCH   1   6
HETATM    6  C2  UNL     1      34.472  33.844  48.902  1.00  0.00     0.137 C 
BRANCH   6   7
HETATM    7  C1  UNL     1      34.143  32.894  47.813  1.00  0.00     0.174 C 
HETATM    8  O1  UNL     1      34.871  32.878  46.774  1.00  0.00    -0.648 OA
HETATM    9  O2  UNL     1      33.066  32.020  47.886  1.00  0.00    -0.648 OA
ENDBRANCH   6   7
ENDBRANCH   1   6
BRANCH   5  10
HETATM   10  O3  UNL     1      31.217  35.078  48.870  1.00  0.00    -0.301 OA
ATOM     11  H3  UNL     1      30.970  35.074  47.952  1.00  0.00     0.238 HD
ENDBRANCH   5  10
TORSDOF 3
ENDMDL
MODEL 3
REMARK VINA RESULT: -4.695801585      2.062      2.911
REMARK  3 active torsions:
REMARK  status: ('A' for Active; 'I' for Inactive)
REMARK    1  A    between atoms: C1_2  and  C2_4 
REMARK    2  A    between atoms: C2_4  and  C3_5 
REMARK    3  A    between atoms: N1_9  and  O3_10 
ROOT
HETATM    1  C3  UNL     1      33.059  33.793  49.310  1.00  0.00     0.119 C 
HETATM    2  C4  UNL     1      32.426  35.075  49.170  1.00  0.00     0.111 C 
HETATM    3  S1  UNL     1      32.849  36.179  50.526  1.00  0.00    -0.077 SA
HETATM    4  S2  UNL     1      33.682  34.578  51.715  1.00  0.00     0.018 SA
HETATM    5  N1  UNL     1      33.925  33.546  50.344  1.00  0.00    -0.122 NA
ENDROOT
BRANCH   1   6
HETATM    6  C2  UNL     1      32.007  32.666  49.221  1.00  0.00     0.137 C 
BRANCH   6   7
HETATM    7  C1  UNL     1      31.385  32.678  47.876  1.00  0.00     0.174 C 
HETATM    8  O1  UNL     1      32.049  32.231  46.891  1.00  0.00    -0.648 OA
HETATM    9  O2  UNL     1      30.102  33.160  47.651  1.00  0.00    -0.648 OA
ENDBRANCH   6   7
ENDBRANCH   1   6
BRANCH   5  10
HETATM   10  O3  UNL     1      35.254  33.641  50.013  1.00  0.00    -0.301 OA
ATOM     11  H3  UNL     1      35.559  34.525  49.846  1.00  0.00     0.238 HD
ENDBRANCH   5  10
TORSDOF 3
ENDMDL
MODEL 4
REMARK VINA RESULT: -4.653948680      1.900      2.538
REMARK  3 active torsions:
REMARK  status: ('A' for Active; 'I' for Inactive)
REMARK    1  A    between atoms: C1_2  and  C2_4 
REMARK    2  A    between atoms: C2_4  and  C3_5 
REMARK    3  A    between atoms: N1_9  and  O3_10 
ROOT
HETATM    1  C3  UNL     1      33.468  33.932  49.232  1.00  0.00     0.119 C 
HETATM    2  C4  UNL     1      32.769  35.184  49.155  1.00  0.00     0.111 C 
HETATM    3  S1  UNL     1      32.924  36.130  50.678  1.00  0.00    -0.077 SA
HETATM    4  S2  UNL     1      33.704  34.440  51.777  1.00  0.00     0.018 SA
HETATM    5  N1  UNL     1      34.202  33.604  50.343  1.00  0.00    -0.122 NA
ENDROOT
BRANCH   1   6
HETATM    6  C2  UNL     1      32.522  32.769  48.863  1.00  0.00     0.137 C 
BRANCH   6   7
HETATM    7  C1  UNL     1      32.850  32.279  47.503  1.00  0.00     0.174 C 
HETATM    8  O1  UNL     1      34.068  32.105  47.193  1.00  0.00    -0.648 OA
HETATM    9  O2  UNL     1      31.875  32.005  46.553  1.00  0.00    -0.648 OA
ENDBRANCH   6   7
ENDBRANCH   1   6
BRANCH   5  10
HETATM   10  O3  UNL     1      35.554  33.814  50.218  1.00  0.00    -0.301 OA
ATOM     11  H3  UNL     1      35.948  34.297  50.935  1.00  0.00     0.238 HD
ENDBRANCH   5  10
TORSDOF 3
ENDMDL
MODEL 5
REMARK VINA RESULT: -4.467489335      2.190      2.650
REMARK  3 active torsions:
REMARK  status: ('A' for Active; 'I' for Inactive)
REMARK    1  A    between atoms: C1_2  and  C2_4 
REMARK    2  A    between atoms: C2_4  and  C3_5 
REMARK    3  A    between atoms: N1_9  and  O3_10 
ROOT
HETATM    1  C3  UNL     1      32.483  34.162  48.904  1.00  0.00     0.119 C 
HETATM    2  C4  UNL     1      32.108  35.539  49.068  1.00  0.00     0.111 C 
HETATM    3  S1  UNL     1      32.908  36.282  50.498  1.00  0.00    -0.077 SA
HETATM    4  S2  UNL     1      33.545  34.368  51.274  1.00  0.00     0.018 SA
HETATM    5  N1  UNL     1      33.404  33.580  49.737  1.00  0.00    -0.122 NA
ENDROOT
BRANCH   1   6
HETATM    6  C2  UNL     1      31.224  33.273  48.805  1.00  0.00     0.137 C 
BRANCH   6   7
HETATM    7  C1  UNL     1      31.546  32.043  48.044  1.00  0.00     0.174 C 
HETATM    8  O1  UNL     1      31.405  30.918  48.613  1.00  0.00    -0.648 OA
HETATM    9  O2  UNL     1      32.000  32.075  46.732  1.00  0.00    -0.648 OA
ENDBRANCH   6   7
ENDBRANCH   1   6
BRANCH   5  10
HETATM   10  O3  UNL     1      34.674  33.499  49.220  1.00  0.00    -0.301 OA
ATOM     11  H3  UNL     1      35.333  33.197  49.834  1.00  0.00     0.238 HD
ENDBRANCH   5  10
TORSDOF 3
ENDMDL
