MODEL 1
REMARK VINA RESULT: -6.922482120      0.000      0.000
REMARK  3 active torsions:
REMARK  status: ('A' for Active; 'I' for Inactive)
REMARK    1  A    between atoms: C4_4  and  N1_5 
REMARK    2  A    between atoms: N1_5  and  C5_7 
REMARK    3  A    between atoms: C6_12  and  N4_13 
ROOT
HETATM    1  C5  UNL     1      63.165  14.251  24.647  1.00  0.00     0.163 A 
HETATM    2  N2  UNL     1      64.250  15.019  24.792  1.00  0.00    -0.278 N 
ATOM      3  H2  UNL     1      64.212  16.016  24.584  1.00  0.00     0.189 HD
HETATM    4  N3  UNL     1      65.327  14.483  25.194  1.00  0.00    -0.278 N 
ATOM      5  H3  UNL     1      66.163  15.055  25.310  1.00  0.00     0.189 HD
HETATM    6  C6  UNL     1      65.378  13.188  25.466  1.00  0.00     0.165 A 
HETATM    7  S1  UNL     1      63.763  12.722  25.115  1.00  0.00    -0.015 SA
ENDROOT
BRANCH   1   8
HETATM    8  N1  UNL     1      61.962  14.538  24.259  1.00  0.00    -0.365 N 
ATOM      9  H1  UNL     1      61.689  15.520  24.280  1.00  0.00     0.162 HD
BRANCH   8  10
HETATM   10  C4  UNL     1      60.996  13.610  23.809  1.00  0.00     0.083 C 
HETATM   11  C3  UNL     1      60.162  14.064  22.659  1.00  0.00     0.025 C 
HETATM   12  C2  UNL     1      58.944  13.181  22.661  1.00  0.00     0.002 C 
HETATM   13  C1  UNL     1      58.990  12.406  23.985  1.00  0.00     0.002 C 
HETATM   14  C11 UNL     1      59.978  13.206  24.844  1.00  0.00     0.025 C 
ENDBRANCH   8  10
ENDBRANCH   1   8
BRANCH   6  15
HETATM   15  N4  UNL     1      66.482  12.391  25.927  1.00  0.00    -0.356 N 
HETATM   16  C7  UNL     1      67.205  12.780  27.123  1.00  0.00     0.151 C 
HETATM   17  C8  UNL     1      68.682  12.834  26.727  1.00  0.00     0.187 C 
HETATM   18  O1  UNL     1      69.015  11.526  26.334  1.00  0.00    -0.388 OA
HETATM   19  C9  UNL     1      68.437  11.330  25.078  1.00  0.00     0.187 C 
HETATM   20  C10 UNL     1      66.917  11.198  25.242  1.00  0.00     0.151 C 
ENDBRANCH   6  15
TORSDOF 3
ENDMDL
MODEL 2
REMARK VINA RESULT: -6.916649716      4.737      6.259
REMARK  3 active torsions:
REMARK  status: ('A' for Active; 'I' for Inactive)
REMARK    1  A    between atoms: C4_4  and  N1_5 
REMARK    2  A    between atoms: N1_5  and  C5_7 
REMARK    3  A    between atoms: C6_12  and  N4_13 
ROOT
HETATM    1  C5  UNL     1      59.811  11.972  25.215  1.00  0.00     0.163 A 
HETATM    2  N2  UNL     1      58.754  11.160  25.116  1.00  0.00    -0.278 N 
ATOM      3  H2  UNL     1      57.821  11.539  24.955  1.00  0.00     0.189 HD
HETATM    4  N3  UNL     1      58.934   9.909  25.226  1.00  0.00    -0.278 N 
ATOM      5  H3  UNL     1      58.137   9.276  25.154  1.00  0.00     0.189 HD
HETATM    6  C6  UNL     1      60.144   9.416  25.434  1.00  0.00     0.165 A 
HETATM    7  S1  UNL     1      61.077  10.856  25.472  1.00  0.00    -0.015 SA
ENDROOT
BRANCH   1   8
HETATM    8  N1  UNL     1      59.905  13.263  25.143  1.00  0.00    -0.365 N 
ATOM      9  H1  UNL     1      59.269  13.809  25.724  1.00  0.00     0.162 HD
BRANCH   8  10
HETATM   10  C4  UNL     1      60.811  13.981  24.330  1.00  0.00     0.083 C 
HETATM   11  C3  UNL     1      62.226  13.987  24.803  1.00  0.00     0.025 C 
HETATM   12  C2  UNL     1      62.885  15.148  24.108  1.00  0.00     0.002 C 
HETATM   13  C1  UNL     1      61.751  15.941  23.447  1.00  0.00     0.002 C 
HETATM   14  C11 UNL     1      60.489  15.444  24.164  1.00  0.00     0.025 C 
ENDBRANCH   8  10
ENDBRANCH   1   8
BRANCH   6  15
HETATM   15  N4  UNL     1      60.563   8.048  25.586  1.00  0.00    -0.356 N 
HETATM   16  C7  UNL     1      61.796   7.743  26.286  1.00  0.00     0.151 C 
HETATM   17  C8  UNL     1      62.611   6.859  25.339  1.00  0.00     0.187 C 
HETATM   18  O1  UNL     1      61.838   5.702  25.142  1.00  0.00    -0.388 OA
HETATM   19  C9  UNL     1      60.793   6.064  24.291  1.00  0.00     0.187 C 
HETATM   20  C10 UNL     1      59.799   6.942  25.064  1.00  0.00     0.151 C 
ENDBRANCH   6  15
TORSDOF 3
ENDMDL
MODEL 3
REMARK VINA RESULT: -6.876939922      2.490      3.657
REMARK  3 active torsions:
REMARK  status: ('A' for Active; 'I' for Inactive)
REMARK    1  A    between atoms: C4_4  and  N1_5 
REMARK    2  A    between atoms: N1_5  and  C5_7 
REMARK    3  A    between atoms: C6_12  and  N4_13 
ROOT
HETATM    1  C5  UNL     1      59.985  14.794  24.402  1.00  0.00     0.163 A 
HETATM    2  N2  UNL     1      61.089  15.511  24.165  1.00  0.00    -0.278 N 
ATOM      3  H2  UNL     1      61.023  16.490  23.888  1.00  0.00     0.189 HD
HETATM    4  N3  UNL     1      62.219  14.949  24.292  1.00  0.00    -0.278 N 
ATOM      5  H3  UNL     1      63.070  15.482  24.114  1.00  0.00     0.189 HD
HETATM    6  C6  UNL     1      62.306  13.678  24.652  1.00  0.00     0.165 A 
HETATM    7  S1  UNL     1      60.645  13.276  24.817  1.00  0.00    -0.015 SA
ENDROOT
BRANCH   1   8
HETATM    8  N1  UNL     1      58.730  15.116  24.346  1.00  0.00    -0.365 N 
ATOM      9  H1  UNL     1      58.300  15.457  25.206  1.00  0.00     0.162 HD
BRANCH   8  10
HETATM   10  C4  UNL     1      57.908  15.037  23.201  1.00  0.00     0.083 C 
HETATM   11  C3  UNL     1      56.604  15.755  23.300  1.00  0.00     0.025 C 
HETATM   12  C2  UNL     1      55.727  15.164  22.229  1.00  0.00     0.002 C 
HETATM   13  C1  UNL     1      56.475  13.929  21.709  1.00  0.00     0.002 C 
HETATM   14  C11 UNL     1      57.510  13.639  22.804  1.00  0.00     0.025 C 
ENDBRANCH   8  10
ENDBRANCH   1   8
BRANCH   6  15
HETATM   15  N4  UNL     1      63.472  12.860  24.852  1.00  0.00    -0.356 N 
HETATM   16  C7  UNL     1      63.391  11.426  24.654  1.00  0.00     0.151 C 
HETATM   17  C8  UNL     1      63.932  10.791  25.937  1.00  0.00     0.187 C 
HETATM   18  O1  UNL     1      65.268  11.216  26.035  1.00  0.00    -0.388 OA
HETATM   19  C9  UNL     1      65.230  12.555  26.428  1.00  0.00     0.187 C 
HETATM   20  C10 UNL     1      64.745  13.409  25.248  1.00  0.00     0.151 C 
ENDBRANCH   6  15
TORSDOF 3
ENDMDL
MODEL 4
REMARK VINA RESULT: -6.868428915      2.870      7.042
REMARK  3 active torsions:
REMARK  status: ('A' for Active; 'I' for Inactive)
REMARK    1  A    between atoms: C4_4  and  N1_5 
REMARK    2  A    between atoms: N1_5  and  C5_7 
REMARK    3  A    between atoms: C6_12  and  N4_13 
ROOT
HETATM    1  C5  UNL     1      64.560  13.897  24.990  1.00  0.00     0.163 A 
HETATM    2  N2  UNL     1      63.813  14.951  24.644  1.00  0.00    -0.278 N 
ATOM      3  H2  UNL     1      64.249  15.845  24.421  1.00  0.00     0.189 HD
HETATM    4  N3  UNL     1      62.553  14.816  24.598  1.00  0.00    -0.278 N 
ATOM      5  H3  UNL     1      61.970  15.611  24.336  1.00  0.00     0.189 HD
HETATM    6  C6  UNL     1      61.986  13.655  24.885  1.00  0.00     0.165 A 
HETATM    7  S1  UNL     1      63.367  12.702  25.245  1.00  0.00    -0.015 SA
ENDROOT
BRANCH   1   8
HETATM    8  N1  UNL     1      65.843  13.764  25.113  1.00  0.00    -0.365 N 
ATOM      9  H1  UNL     1      66.408  14.609  25.030  1.00  0.00     0.162 HD
BRANCH   8  10
HETATM   10  C4  UNL     1      66.529  12.552  25.353  1.00  0.00     0.083 C 
HETATM   11  C3  UNL     1      67.846  12.689  26.040  1.00  0.00     0.025 C 
HETATM   12  C2  UNL     1      68.586  11.407  25.768  1.00  0.00     0.002 C 
HETATM   13  C1  UNL     1      67.765  10.668  24.703  1.00  0.00     0.002 C 
HETATM   14  C11 UNL     1      66.858  11.757  24.116  1.00  0.00     0.025 C 
ENDBRANCH   8  10
ENDBRANCH   1   8
BRANCH   6  15
HETATM   15  N4  UNL     1      60.594  13.292  24.894  1.00  0.00    -0.356 N 
HETATM   16  C7  UNL     1      60.134  12.209  25.741  1.00  0.00     0.151 C 
HETATM   17  C8  UNL     1      59.368  11.252  24.825  1.00  0.00     0.187 C 
HETATM   18  O1  UNL     1      58.288  11.996  24.320  1.00  0.00    -0.388 OA
HETATM   19  C9  UNL     1      58.817  12.868  23.367  1.00  0.00     0.187 C 
HETATM   20  C10 UNL     1      59.612  13.969  24.082  1.00  0.00     0.151 C 
ENDBRANCH   6  15
TORSDOF 3
ENDMDL
MODEL 5
REMARK VINA RESULT: -6.851174346      3.071      4.047
REMARK  3 active torsions:
REMARK  status: ('A' for Active; 'I' for Inactive)
REMARK    1  A    between atoms: C4_4  and  N1_5 
REMARK    2  A    between atoms: N1_5  and  C5_7 
REMARK    3  A    between atoms: C6_12  and  N4_13 
ROOT
HETATM    1  C5  UNL     1      64.077  12.167  24.797  1.00  0.00     0.163 A 
HETATM    2  N2  UNL     1      65.385  12.430  24.874  1.00  0.00    -0.278 N 
ATOM      3  H2  UNL     1      65.715  13.323  25.240  1.00  0.00     0.189 HD
HETATM    4  N3  UNL     1      66.208  11.548  24.482  1.00  0.00    -0.278 N 
ATOM      5  H3  UNL     1      67.210  11.734  24.534  1.00  0.00     0.189 HD
HETATM    6  C6  UNL     1      65.781  10.388  24.008  1.00  0.00     0.165 A 
HETATM    7  S1  UNL     1      64.082  10.593  24.138  1.00  0.00    -0.015 SA
ENDROOT
BRANCH   1   8
HETATM    8  N1  UNL     1      63.043  12.879  25.122  1.00  0.00    -0.365 N 
ATOM      9  H1  UNL     1      62.624  12.702  26.034  1.00  0.00     0.162 HD
BRANCH   8  10
HETATM   10  C4  UNL     1      62.445  13.879  24.322  1.00  0.00     0.083 C 
HETATM   11  C3  UNL     1      63.063  15.233  24.425  1.00  0.00     0.025 C 
HETATM   12  C2  UNL     1      62.029  16.196  23.907  1.00  0.00     0.002 C 
HETATM   13  C1  UNL     1      60.735  15.385  23.762  1.00  0.00     0.002 C 
HETATM   14  C11 UNL     1      60.989  14.134  24.614  1.00  0.00     0.025 C 
ENDBRANCH   8  10
ENDBRANCH   1   8
BRANCH   6  15
HETATM   15  N4  UNL     1      66.534   9.265  23.518  1.00  0.00    -0.356 N 
HETATM   16  C7  UNL     1      67.053   9.277  22.164  1.00  0.00     0.151 C 
HETATM   17  C8  UNL     1      66.564   7.981  21.513  1.00  0.00     0.187 C 
HETATM   18  O1  UNL     1      67.135   6.941  22.266  1.00  0.00    -0.388 OA
HETATM   19  C9  UNL     1      66.425   6.887  23.467  1.00  0.00     0.187 C 
HETATM   20  C10 UNL     1      66.804   8.101  24.327  1.00  0.00     0.151 C 
ENDBRANCH   6  15
TORSDOF 3
ENDMDL
