MODEL 1
REMARK VINA RESULT: -7.631177321      0.000      0.000
REMARK  1 active torsions:
REMARK  status: ('A' for Active; 'I' for Inactive)
REMARK    1  A    between atoms: O1_1  and  C1_3 
ROOT
HETATM    1  C1  UNL     1      -2.245   8.854   2.111  1.00  0.00     0.183 C 
HETATM    2  C2  UNL     1      -3.614   9.420   1.731  1.00  0.00     0.037 C 
HETATM    3  C3  UNL     1      -3.520  10.919   2.039  1.00  0.00     0.003 C 
HETATM    4  C4  UNL     1      -2.582  11.515   1.051  1.00  0.00     0.006 C 
HETATM    5  C5  UNL     1      -1.256  10.850   0.951  1.00  0.00     0.074 C 
HETATM    6  C6  UNL     1      -1.271   9.371   1.077  1.00  0.00     0.226 C 
HETATM    7  O2  UNL     1      -1.627   8.814  -0.141  1.00  0.00    -0.195 OA
HETATM    8  O3  UNL     1      -0.564   8.543  -0.806  1.00  0.00    -0.197 OA
HETATM    9  C7  UNL     1       0.501   8.442   0.121  1.00  0.00     0.208 C 
HETATM   10  O4  UNL     1       0.027   8.909   1.318  1.00  0.00    -0.310 OA
HETATM   11  C8  UNL     1       0.892   6.994   0.133  1.00  0.00     0.052 C 
HETATM   12  C9  UNL     1       2.252   6.732   0.690  1.00  0.00     0.014 C 
HETATM   13  C10 UNL     1       3.308   7.513  -0.089  1.00  0.00    -0.013 C 
HETATM   14  C11 UNL     1       3.286   7.115  -1.545  1.00  0.00     0.009 C 
HETATM   15  C12 UNL     1       1.892   7.414  -2.090  1.00  0.00    -0.013 C 
HETATM   16  C13 UNL     1       0.925   6.564  -1.342  1.00  0.00     0.014 C 
HETATM   17  C14 UNL     1       1.668   8.885  -1.953  1.00  0.00     0.014 C 
HETATM   18  C15 UNL     1       1.609   9.276  -0.471  1.00  0.00     0.052 C 
HETATM   19  C16 UNL     1       2.956   8.979   0.109  1.00  0.00     0.014 C 
ENDROOT
BRANCH   1  20
HETATM   20  O1  UNL     1      -1.891   9.169   3.404  1.00  0.00    -0.390 OA
ATOM     21  H1  UNL     1      -1.954  10.100   3.579  1.00  0.00     0.210 HD
ENDBRANCH   1  20
TORSDOF 1
ENDMDL
MODEL 2
REMARK VINA RESULT: -7.088570815      1.773      2.742
REMARK  1 active torsions:
REMARK  status: ('A' for Active; 'I' for Inactive)
REMARK    1  A    between atoms: O1_1  and  C1_3 
ROOT
HETATM    1  C1  UNL     1      -0.492   9.665   0.579  1.00  0.00     0.183 C 
HETATM    2  C2  UNL     1      -0.740  11.165   0.426  1.00  0.00     0.037 C 
HETATM    3  C3  UNL     1       0.212  11.826   1.430  1.00  0.00     0.003 C 
HETATM    4  C4  UNL     1       1.596  11.623   0.925  1.00  0.00     0.006 C 
HETATM    5  C5  UNL     1       1.958  10.217   0.609  1.00  0.00     0.074 C 
HETATM    6  C6  UNL     1       0.878   9.400  -0.001  1.00  0.00     0.226 C 
HETATM    7  O2  UNL     1       0.812   9.675  -1.359  1.00  0.00    -0.195 OA
HETATM    8  O3  UNL     1       1.535   8.826  -1.995  1.00  0.00    -0.197 OA
HETATM    9  C7  UNL     1       1.689   7.693  -1.161  1.00  0.00     0.208 C 
HETATM   10  O4  UNL     1       1.217   8.045   0.075  1.00  0.00    -0.310 OA
HETATM   11  C8  UNL     1       0.918   6.593  -1.827  1.00  0.00     0.052 C 
HETATM   12  C9  UNL     1       1.293   5.221  -1.374  1.00  0.00     0.014 C 
HETATM   13  C10 UNL     1       2.783   4.973  -1.598  1.00  0.00    -0.013 C 
HETATM   14  C11 UNL     1       3.124   5.119  -3.061  1.00  0.00     0.009 C 
HETATM   15  C12 UNL     1       2.749   6.535  -3.488  1.00  0.00    -0.013 C 
HETATM   16  C13 UNL     1       1.277   6.681  -3.318  1.00  0.00     0.014 C 
HETATM   17  C14 UNL     1       3.570   7.478  -2.670  1.00  0.00     0.014 C 
HETATM   18  C15 UNL     1       3.165   7.387  -1.193  1.00  0.00     0.052 C 
HETATM   19  C16 UNL     1       3.499   6.002  -0.738  1.00  0.00     0.014 C 
ENDROOT
BRANCH   1  20
HETATM   20  O1  UNL     1      -0.626   9.243   1.883  1.00  0.00    -0.390 OA
ATOM     21  H1  UNL     1      -1.523   9.299   2.191  1.00  0.00     0.210 HD
ENDBRANCH   1  20
TORSDOF 1
ENDMDL
MODEL 3
REMARK VINA RESULT: -6.974984855      1.225      2.553
REMARK  1 active torsions:
REMARK  status: ('A' for Active; 'I' for Inactive)
REMARK    1  A    between atoms: O1_1  and  C1_3 
ROOT
HETATM    1  C1  UNL     1      -2.419   9.724   0.477  1.00  0.00     0.183 C 
HETATM    2  C2  UNL     1      -2.655  10.815   1.522  1.00  0.00     0.037 C 
HETATM    3  C3  UNL     1      -3.406  10.115   2.661  1.00  0.00     0.003 C 
HETATM    4  C4  UNL     1      -2.451   9.178   3.309  1.00  0.00     0.006 C 
HETATM    5  C5  UNL     1      -1.762   8.234   2.390  1.00  0.00     0.074 C 
HETATM    6  C6  UNL     1      -1.386   8.790   1.066  1.00  0.00     0.226 C 
HETATM    7  O2  UNL     1      -0.206   9.507   1.192  1.00  0.00    -0.195 OA
HETATM    8  O3  UNL     1       0.784   8.737   0.923  1.00  0.00    -0.197 OA
HETATM    9  C7  UNL     1       0.287   7.665   0.142  1.00  0.00     0.208 C 
HETATM   10  O4  UNL     1      -1.079   7.745   0.189  1.00  0.00    -0.310 OA
HETATM   11  C8  UNL     1       0.871   7.857  -1.226  1.00  0.00     0.052 C 
HETATM   12  C9  UNL     1       0.844   6.632  -2.079  1.00  0.00     0.014 C 
HETATM   13  C10 UNL     1       1.584   5.486  -1.392  1.00  0.00    -0.013 C 
HETATM   14  C11 UNL     1       3.018   5.872  -1.128  1.00  0.00     0.009 C 
HETATM   15  C12 UNL     1       3.012   7.112  -0.238  1.00  0.00    -0.013 C 
HETATM   16  C13 UNL     1       2.349   8.207  -0.998  1.00  0.00     0.014 C 
HETATM   17  C14 UNL     1       2.335   6.738   1.040  1.00  0.00     0.014 C 
HETATM   18  C15 UNL     1       0.855   6.424   0.782  1.00  0.00     0.052 C 
HETATM   19  C16 UNL     1       0.816   5.222  -0.107  1.00  0.00     0.014 C 
ENDROOT
BRANCH   1  20
HETATM   20  O1  UNL     1      -3.586   9.090   0.111  1.00  0.00    -0.390 OA
ATOM     21  H1  UNL     1      -3.580   8.166   0.335  1.00  0.00     0.210 HD
ENDBRANCH   1  20
TORSDOF 1
ENDMDL
MODEL 4
REMARK VINA RESULT: -6.948065273      2.423      4.243
REMARK  1 active torsions:
REMARK  status: ('A' for Active; 'I' for Inactive)
REMARK    1  A    between atoms: O1_1  and  C1_3 
ROOT
HETATM    1  C1  UNL     1       2.277  11.153   1.180  1.00  0.00     0.183 C 
HETATM    2  C2  UNL     1       2.214  12.495   1.911  1.00  0.00     0.037 C 
HETATM    3  C3  UNL     1       1.893  13.523   0.819  1.00  0.00     0.003 C 
HETATM    4  C4  UNL     1       0.497  13.274   0.374  1.00  0.00     0.006 C 
HETATM    5  C5  UNL     1       0.197  11.875  -0.030  1.00  0.00     0.074 C 
HETATM    6  C6  UNL     1       0.858  10.821   0.781  1.00  0.00     0.226 C 
HETATM    7  O2  UNL     1       0.136  10.624   1.947  1.00  0.00    -0.195 OA
HETATM    8  O3  UNL     1      -0.706   9.673   1.766  1.00  0.00    -0.197 OA
HETATM    9  C7  UNL     1      -0.238   8.895   0.680  1.00  0.00     0.208 C 
HETATM   10  O4  UNL     1       0.787   9.598   0.104  1.00  0.00    -0.310 OA
HETATM   11  C8  UNL     1       0.173   7.579   1.272  1.00  0.00     0.052 C 
HETATM   12  C9  UNL     1       0.280   6.469   0.280  1.00  0.00     0.014 C 
HETATM   13  C10 UNL     1      -1.046   6.278  -0.454  1.00  0.00    -0.013 C 
HETATM   14  C11 UNL     1      -2.147   5.958   0.527  1.00  0.00     0.009 C 
HETATM   15  C12 UNL     1      -2.245   7.119   1.513  1.00  0.00    -0.013 C 
HETATM   16  C13 UNL     1      -0.952   7.197   2.247  1.00  0.00     0.014 C 
HETATM   17  C14 UNL     1      -2.593   8.342   0.727  1.00  0.00     0.014 C 
HETATM   18  C15 UNL     1      -1.438   8.713  -0.213  1.00  0.00     0.052 C 
HETATM   19  C16 UNL     1      -1.295   7.587  -1.187  1.00  0.00     0.014 C 
ENDROOT
BRANCH   1  20
HETATM   20  O1  UNL     1       3.154  11.178   0.118  1.00  0.00    -0.390 OA
ATOM     21  H1  UNL     1       3.901  11.742   0.280  1.00  0.00     0.210 HD
ENDBRANCH   1  20
TORSDOF 1
ENDMDL
MODEL 5
REMARK VINA RESULT: -6.918677311      2.416      3.739
REMARK  1 active torsions:
REMARK  status: ('A' for Active; 'I' for Inactive)
REMARK    1  A    between atoms: O1_1  and  C1_3 
ROOT
HETATM    1  C1  UNL     1       2.887  11.441   1.167  1.00  0.00     0.183 C 
HETATM    2  C2  UNL     1       2.249  12.517   2.046  1.00  0.00     0.037 C 
HETATM    3  C3  UNL     1       1.642  13.523   1.061  1.00  0.00     0.003 C 
HETATM    4  C4  UNL     1       0.492  12.854   0.398  1.00  0.00     0.006 C 
HETATM    5  C5  UNL     1       0.792  11.534  -0.218  1.00  0.00     0.074 C 
HETATM    6  C6  UNL     1       1.744  10.679   0.535  1.00  0.00     0.226 C 
HETATM    7  O2  UNL     1       1.065  10.032   1.556  1.00  0.00    -0.195 OA
HETATM    8  O3  UNL     1       0.676   8.882   1.140  1.00  0.00    -0.197 OA
HETATM    9  C7  UNL     1       1.494   8.532   0.039  1.00  0.00     0.208 C 
HETATM   10  O4  UNL     1       2.207   9.652  -0.295  1.00  0.00    -0.310 OA
HETATM   11  C8  UNL     1       2.334   7.382   0.510  1.00  0.00     0.052 C 
HETATM   12  C9  UNL     1       2.942   6.577  -0.591  1.00  0.00     0.014 C 
HETATM   13  C10 UNL     1       1.857   6.037  -1.520  1.00  0.00    -0.013 C 
HETATM   14  C11 UNL     1       0.893   5.169  -0.749  1.00  0.00     0.009 C 
HETATM   15  C12 UNL     1       0.274   6.024   0.353  1.00  0.00    -0.013 C 
HETATM   16  C13 UNL     1       1.373   6.449   1.263  1.00  0.00     0.014 C 
HETATM   17  C14 UNL     1      -0.458   7.144  -0.312  1.00  0.00     0.014 C 
HETATM   18  C15 UNL     1       0.533   8.072  -1.027  1.00  0.00     0.052 C 
HETATM   19  C16 UNL     1       1.179   7.264  -2.108  1.00  0.00     0.014 C 
ENDROOT
BRANCH   1  20
HETATM   20  O1  UNL     1       3.766  11.970   0.248  1.00  0.00    -0.390 OA
ATOM     21  H1  UNL     1       3.612  11.641  -0.630  1.00  0.00     0.210 HD
ENDBRANCH   1  20
TORSDOF 1
ENDMDL
