MODEL 1
REMARK VINA RESULT: -6.448394360      0.000      0.000
REMARK  7 active torsions:
REMARK  status: ('A' for Active; 'I' for Inactive)
REMARK    1  A    between atoms: C2_2  and  C3_3 
REMARK    2  A    between atoms: C4_4  and  C5_5 
REMARK    3  A    between atoms: C7_7  and  N1_8 
REMARK    4  A    between atoms: C8_9  and  O1_10 
REMARK    5  A    between atoms: C10_14  and  N2_15 
REMARK    6  A    between atoms: N2_15  and  N3_17 
REMARK    7  A    between atoms: N3_17  and  O2_19 
ROOT
HETATM    1  N1  UNL     1       8.826   2.841  12.957  1.00  0.00    -0.300 N 
HETATM    2  C8  UNL     1       7.582   3.066  13.281  1.00  0.00     0.151 A 
HETATM    3  C9  UNL     1       7.141   4.365  13.289  1.00  0.00     0.109 A 
HETATM    4  S1  UNL     1       8.534   5.229  12.830  1.00  0.00    -0.060 SA
HETATM    5  C10 UNL     1       9.593   3.901  12.653  1.00  0.00     0.169 A 
ENDROOT
BRANCH   1   6
HETATM    6  C7  UNL     1       9.426   1.483  12.909  1.00  0.00     0.111 A 
HETATM    7  C5  UNL     1       8.707   0.307  13.386  1.00  0.00     0.090 A 
HETATM    8  C6  UNL     1       8.877   0.482  11.930  1.00  0.00     0.046 A 
BRANCH   7   9
HETATM    9  C4  UNL     1       9.528  -0.807  13.942  1.00  0.00    -0.100 C 
HETATM   10  C3  UNL     1      10.174  -1.711  14.405  1.00  0.00    -0.106 C 
BRANCH  10  11
HETATM   11  C2  UNL     1      10.936  -2.816  14.976  1.00  0.00     0.089 C 
HETATM   12  C1  UNL     1      10.902  -2.853  16.472  1.00  0.00     0.018 C 
ENDBRANCH  10  11
ENDBRANCH   7   9
ENDBRANCH   1   6
BRANCH   2  13
HETATM   13  O1  UNL     1       6.633   2.053  13.630  1.00  0.00    -0.346 OA
ATOM     14  H1  UNL     1       6.791   1.354  14.253  1.00  0.00     0.219 HD
ENDBRANCH   2  13
BRANCH   5  15
HETATM   15  N2  UNL     1      10.867   3.909  12.301  1.00  0.00    -0.260 N 
ATOM     16  H2  UNL     1      11.524   3.215  12.658  1.00  0.00     0.191 HD
BRANCH  15  17
HETATM   17  N3  UNL     1      11.268   4.903  11.427  1.00  0.00    -0.208 N 
ATOM     18  H3  UNL     1      10.757   5.024  10.551  1.00  0.00     0.215 HD
BRANCH  17  19
HETATM   19  O2  UNL     1      12.241   5.664  11.673  1.00  0.00    -0.274 OA
ATOM     20  H2  UNL     1      12.586   6.270  11.029  1.00  0.00     0.246 HD
ENDBRANCH  17  19
ENDBRANCH  15  17
ENDBRANCH   5  15
TORSDOF 7
ENDMDL
MODEL 2
REMARK VINA RESULT: -6.158612255      1.752      1.969
REMARK  7 active torsions:
REMARK  status: ('A' for Active; 'I' for Inactive)
REMARK    1  A    between atoms: C2_2  and  C3_3 
REMARK    2  A    between atoms: C4_4  and  C5_5 
REMARK    3  A    between atoms: C7_7  and  N1_8 
REMARK    4  A    between atoms: C8_9  and  O1_10 
REMARK    5  A    between atoms: C10_14  and  N2_15 
REMARK    6  A    between atoms: N2_15  and  N3_17 
REMARK    7  A    between atoms: N3_17  and  O2_19 
ROOT
HETATM    1  N1  UNL     1       9.085   2.377  13.789  1.00  0.00    -0.300 N 
HETATM    2  C8  UNL     1       7.871   2.238  13.332  1.00  0.00     0.151 A 
HETATM    3  C9  UNL     1       7.193   3.366  12.944  1.00  0.00     0.109 A 
HETATM    4  S1  UNL     1       8.327   4.599  13.251  1.00  0.00    -0.060 SA
HETATM    5  C10 UNL     1       9.590   3.619  13.849  1.00  0.00     0.169 A 
ENDROOT
BRANCH   1   6
HETATM    6  C7  UNL     1       9.925   1.236  14.239  1.00  0.00     0.111 A 
HETATM    7  C5  UNL     1       9.958  -0.028  13.514  1.00  0.00     0.090 A 
HETATM    8  C6  UNL     1      11.134   0.860  13.428  1.00  0.00     0.046 A 
BRANCH   7   9
HETATM    9  C4  UNL     1      10.212  -1.260  14.315  1.00  0.00    -0.100 C 
HETATM   10  C3  UNL     1      10.437  -2.255  14.954  1.00  0.00    -0.106 C 
BRANCH  10  11
HETATM   11  C2  UNL     1      10.735  -3.456  15.726  1.00  0.00     0.089 C 
HETATM   12  C1  UNL     1      10.721  -3.233  17.206  1.00  0.00     0.018 C 
ENDBRANCH  10  11
ENDBRANCH   7   9
ENDBRANCH   1   6
BRANCH   2  13
HETATM   13  O1  UNL     1       7.185   0.988  13.201  1.00  0.00    -0.346 OA
ATOM     14  H1  UNL     1       6.259   0.895  13.010  1.00  0.00     0.219 HD
ENDBRANCH   2  13
BRANCH   5  15
HETATM   15  N2  UNL     1      10.786   3.992  14.274  1.00  0.00    -0.260 N 
ATOM     16  H2  UNL     1      11.592   4.012  13.649  1.00  0.00     0.191 HD
BRANCH  15  17
HETATM   17  N3  UNL     1      10.892   4.352  15.605  1.00  0.00    -0.208 N 
ATOM     18  H3  UNL     1      10.520   3.723  16.317  1.00  0.00     0.215 HD
BRANCH  17  19
HETATM   19  O2  UNL     1      11.431   5.431  15.969  1.00  0.00    -0.274 OA
ATOM     20  H2  UNL     1      12.363   5.588  15.876  1.00  0.00     0.246 HD
ENDBRANCH  17  19
ENDBRANCH  15  17
ENDBRANCH   5  15
TORSDOF 7
ENDMDL
MODEL 3
REMARK VINA RESULT: -5.995641439      4.826      6.996
REMARK  7 active torsions:
REMARK  status: ('A' for Active; 'I' for Inactive)
REMARK    1  A    between atoms: C2_2  and  C3_3 
REMARK    2  A    between atoms: C4_4  and  C5_5 
REMARK    3  A    between atoms: C7_7  and  N1_8 
REMARK    4  A    between atoms: C8_9  and  O1_10 
REMARK    5  A    between atoms: C10_14  and  N2_15 
REMARK    6  A    between atoms: N2_15  and  N3_17 
REMARK    7  A    between atoms: N3_17  and  O2_19 
ROOT
HETATM    1  N1  UNL     1      11.819  -0.613  16.885  1.00  0.00    -0.300 N 
HETATM    2  C8  UNL     1      12.964  -0.080  16.558  1.00  0.00     0.151 A 
HETATM    3  C9  UNL     1      13.908   0.078  17.541  1.00  0.00     0.109 A 
HETATM    4  S1  UNL     1      13.117  -0.546  18.913  1.00  0.00    -0.060 SA
HETATM    5  C10 UNL     1      11.641  -0.971  18.167  1.00  0.00     0.169 A 
ENDROOT
BRANCH   1   6
HETATM    6  C7  UNL     1      10.715  -0.839  15.916  1.00  0.00     0.111 A 
HETATM    7  C5  UNL     1      10.958  -0.925  14.481  1.00  0.00     0.090 A 
HETATM    8  C6  UNL     1      10.629  -2.165  15.212  1.00  0.00     0.046 A 
BRANCH   7   9
HETATM    9  C4  UNL     1       9.861  -0.467  13.581  1.00  0.00    -0.100 C 
HETATM   10  C3  UNL     1       8.982  -0.077  12.856  1.00  0.00    -0.106 C 
BRANCH  10  11
HETATM   11  C2  UNL     1       7.932   0.418  11.973  1.00  0.00     0.089 C 
HETATM   12  C1  UNL     1       7.497   1.815  12.288  1.00  0.00     0.018 C 
ENDBRANCH  10  11
ENDBRANCH   7   9
ENDBRANCH   1   6
BRANCH   2  13
HETATM   13  O1  UNL     1      13.316   0.356  15.240  1.00  0.00    -0.346 OA
ATOM     14  H1  UNL     1      13.774  -0.174  14.599  1.00  0.00     0.219 HD
ENDBRANCH   2  13
BRANCH   5  15
HETATM   15  N2  UNL     1      10.573  -1.522  18.717  1.00  0.00    -0.260 N 
ATOM     16  H2  UNL     1      10.363  -2.513  18.599  1.00  0.00     0.191 HD
BRANCH  15  17
HETATM   17  N3  UNL     1       9.753  -0.692  19.460  1.00  0.00    -0.208 N 
ATOM     18  H3  UNL     1      10.181   0.005  20.070  1.00  0.00     0.215 HD
BRANCH  17  19
HETATM   19  O2  UNL     1       8.497  -0.766  19.409  1.00  0.00    -0.274 OA
ATOM     20  H2  UNL     1       8.047  -1.326  18.788  1.00  0.00     0.246 HD
ENDBRANCH  17  19
ENDBRANCH  15  17
ENDBRANCH   5  15
TORSDOF 7
ENDMDL
MODEL 4
REMARK VINA RESULT: -5.949645534      1.627      3.105
REMARK  7 active torsions:
REMARK  status: ('A' for Active; 'I' for Inactive)
REMARK    1  A    between atoms: C2_2  and  C3_3 
REMARK    2  A    between atoms: C4_4  and  C5_5 
REMARK    3  A    between atoms: C7_7  and  N1_8 
REMARK    4  A    between atoms: C8_9  and  O1_10 
REMARK    5  A    between atoms: C10_14  and  N2_15 
REMARK    6  A    between atoms: N2_15  and  N3_17 
REMARK    7  A    between atoms: N3_17  and  O2_19 
ROOT
HETATM    1  N1  UNL     1       9.556   2.883  12.964  1.00  0.00    -0.300 N 
HETATM    2  C8  UNL     1      10.741   3.423  13.032  1.00  0.00     0.151 A 
HETATM    3  C9  UNL     1      10.840   4.785  12.898  1.00  0.00     0.109 A 
HETATM    4  S1  UNL     1       9.217   5.250  12.676  1.00  0.00    -0.060 SA
HETATM    5  C10 UNL     1       8.509   3.699  12.766  1.00  0.00     0.169 A 
ENDROOT
BRANCH   1   6
HETATM    6  C7  UNL     1       9.314   1.422  13.095  1.00  0.00     0.111 A 
HETATM    7  C5  UNL     1       9.367   0.746  14.386  1.00  0.00     0.090 A 
HETATM    8  C6  UNL     1       8.048   0.952  13.756  1.00  0.00     0.046 A 
BRANCH   7   9
HETATM    9  C4  UNL     1       9.800  -0.680  14.384  1.00  0.00    -0.100 C 
HETATM   10  C3  UNL     1      10.153  -1.831  14.404  1.00  0.00    -0.106 C 
BRANCH  10  11
HETATM   11  C2  UNL     1      10.577  -3.226  14.455  1.00  0.00     0.089 C 
HETATM   12  C1  UNL     1      10.774  -3.740  15.846  1.00  0.00     0.018 C 
ENDBRANCH  10  11
ENDBRANCH   7   9
ENDBRANCH   1   6
BRANCH   2  13
HETATM   13  O1  UNL     1      11.959   2.699  13.239  1.00  0.00    -0.346 OA
ATOM     14  H1  UNL     1      12.829   3.046  13.084  1.00  0.00     0.219 HD
ENDBRANCH   2  13
BRANCH   5  15
HETATM   15  N2  UNL     1       7.231   3.374  12.665  1.00  0.00    -0.260 N 
ATOM     16  H2  UNL     1       6.939   2.440  12.377  1.00  0.00     0.191 HD
BRANCH  15  17
HETATM   17  N3  UNL     1       6.309   4.360  12.969  1.00  0.00    -0.208 N 
ATOM     18  H3  UNL     1       6.110   5.079  12.273  1.00  0.00     0.215 HD
BRANCH  17  19
HETATM   19  O2  UNL     1       5.708   4.401  14.075  1.00  0.00    -0.274 OA
ATOM     20  H2  UNL     1       5.863   5.088  14.711  1.00  0.00     0.246 HD
ENDBRANCH  17  19
ENDBRANCH  15  17
ENDBRANCH   5  15
TORSDOF 7
ENDMDL
MODEL 5
REMARK VINA RESULT: -5.898947842      2.252      3.529
REMARK  7 active torsions:
REMARK  status: ('A' for Active; 'I' for Inactive)
REMARK    1  A    between atoms: C2_2  and  C3_3 
REMARK    2  A    between atoms: C4_4  and  C5_5 
REMARK    3  A    between atoms: C7_7  and  N1_8 
REMARK    4  A    between atoms: C8_9  and  O1_10 
REMARK    5  A    between atoms: C10_14  and  N2_15 
REMARK    6  A    between atoms: N2_15  and  N3_17 
REMARK    7  A    between atoms: N3_17  and  O2_19 
ROOT
HETATM    1  N1  UNL     1      11.158   3.340  13.078  1.00  0.00    -0.300 N 
HETATM    2  C8  UNL     1      12.424   3.645  12.991  1.00  0.00     0.151 A 
HETATM    3  C9  UNL     1      12.766   4.812  12.356  1.00  0.00     0.109 A 
HETATM    4  S1  UNL     1      11.251   5.439  11.899  1.00  0.00    -0.060 SA
HETATM    5  C10 UNL     1      10.273   4.193  12.537  1.00  0.00     0.169 A 
ENDROOT
BRANCH   1   6
HETATM    6  C7  UNL     1      10.658   2.109  13.741  1.00  0.00     0.111 A 
HETATM    7  C5  UNL     1      11.544   1.220  14.483  1.00  0.00     0.090 A 
HETATM    8  C6  UNL     1      10.601   2.064  15.243  1.00  0.00     0.046 A 
BRANCH   7   9
HETATM    9  C4  UNL     1      11.184  -0.227  14.508  1.00  0.00    -0.100 C 
HETATM   10  C3  UNL     1      10.888  -1.393  14.548  1.00  0.00    -0.106 C 
BRANCH  10  11
HETATM   11  C2  UNL     1      10.514  -2.801  14.618  1.00  0.00     0.089 C 
HETATM   12  C1  UNL     1      10.789  -3.426  15.950  1.00  0.00     0.018 C 
ENDBRANCH  10  11
ENDBRANCH   7   9
ENDBRANCH   1   6
BRANCH   2  13
HETATM   13  O1  UNL     1      13.494   2.850  13.514  1.00  0.00    -0.346 OA
ATOM     14  H1  UNL     1      13.572   1.910  13.407  1.00  0.00     0.219 HD
ENDBRANCH   2  13
BRANCH   5  15
HETATM   15  N2  UNL     1       8.956   4.087  12.507  1.00  0.00    -0.260 N 
ATOM     16  H2  UNL     1       8.494   3.278  12.091  1.00  0.00     0.191 HD
BRANCH  15  17
HETATM   17  N3  UNL     1       8.233   5.125  13.067  1.00  0.00    -0.208 N 
ATOM     18  H3  UNL     1       8.702   6.014  13.244  1.00  0.00     0.215 HD
BRANCH  17  19
HETATM   19  O2  UNL     1       7.015   5.011  13.368  1.00  0.00    -0.274 OA
ATOM     20  H2  UNL     1       6.702   4.353  13.977  1.00  0.00     0.246 HD
ENDBRANCH  17  19
ENDBRANCH  15  17
ENDBRANCH   5  15
TORSDOF 7
ENDMDL
