MODEL 1
REMARK VINA RESULT: -5.270410444      0.000      0.000
REMARK  7 active torsions:
REMARK  status: ('A' for Active; 'I' for Inactive)
REMARK    1  A    between atoms: C3_6  and  N3_7 
REMARK    2  A    between atoms: C4_11  and  N4_12 
REMARK    3  A    between atoms: N4_12  and  C5_15 
REMARK    4  A    between atoms: C5_15  and  C6_16 
REMARK    5  A    between atoms: C6_16  and  C7_17 
REMARK    6  A    between atoms: C7_17  and  C8_18 
REMARK    7  A    between atoms: C8_18  and  N5_19 
ROOT
HETATM    1  C1  UNL     1      50.987  44.194 -16.201  1.00  0.00     0.117 C 
HETATM    2  N1  UNL     1      51.573  44.904 -17.289  1.00  0.00    -0.282 NA
HETATM    3  C2  UNL     1      52.204  46.112 -16.869  1.00  0.00     0.147 C 
HETATM    4  N2  UNL     1      51.513  47.176 -16.865  1.00  0.00    -0.361 N 
ATOM      5  H2  UNL     1      51.987  48.026 -16.560  1.00  0.00     0.161 HD
HETATM    6  C3  UNL     1      50.145  47.311 -17.241  1.00  0.00     0.314 C 
HETATM    7  C4  UNL     1      49.592  46.132 -17.994  1.00  0.00     0.248 C 
HETATM    8  C9  UNL     1      50.682  45.193 -18.386  1.00  0.00     0.132 C 
ENDROOT
BRANCH   7   9
HETATM    9  N4  UNL     1      48.857  46.561 -19.173  1.00  0.00    -0.066 N 
ATOM     10  H42 UNL     1      48.129  45.898 -19.439  1.00  0.00     0.277 HD
ATOM     11  H41 UNL     1      48.257  47.364 -18.987  1.00  0.00     0.277 HD
BRANCH   9  12
HETATM   12  C5  UNL     1      49.785  46.807 -20.236  1.00  0.00     0.233 C 
BRANCH  12  13
HETATM   13  C6  UNL     1      49.209  47.629 -21.353  1.00  0.00     0.029 C 
BRANCH  13  14
HETATM   14  C7  UNL     1      49.777  48.999 -21.475  1.00  0.00     0.029 C 
BRANCH  14  15
HETATM   15  C8  UNL     1      49.325  49.990 -20.458  1.00  0.00     0.229 C 
BRANCH  15  16
HETATM   16  N5  UNL     1      47.909  50.169 -20.538  1.00  0.00    -0.079 N 
ATOM     17  H53 UNL     1      47.403  49.322 -20.280  1.00  0.00     0.274 HD
ATOM     18  H52 UNL     1      47.559  50.783 -19.802  1.00  0.00     0.274 HD
ATOM     19  H51 UNL     1      47.648  50.501 -21.467  1.00  0.00     0.274 HD
ENDBRANCH  15  16
ENDBRANCH  14  15
ENDBRANCH  13  14
ENDBRANCH  12  13
ENDBRANCH   9  12
ENDBRANCH   7   9
BRANCH   6  20
HETATM   20  N3  UNL     1      49.362  47.500 -16.015  1.00  0.00    -0.056 N 
ATOM     21  H33 UNL     1      48.886  46.650 -15.715  1.00  0.00     0.276 HD
ATOM     22  H32 UNL     1      49.946  47.628 -15.188  1.00  0.00     0.276 HD
ATOM     23  H31 UNL     1      48.722  48.278 -16.173  1.00  0.00     0.276 HD
ENDBRANCH   6  20
TORSDOF 7
ENDMDL
MODEL 2
REMARK VINA RESULT: -5.136344645      1.991      5.496
REMARK  7 active torsions:
REMARK  status: ('A' for Active; 'I' for Inactive)
REMARK    1  A    between atoms: C3_6  and  N3_7 
REMARK    2  A    between atoms: C4_11  and  N4_12 
REMARK    3  A    between atoms: N4_12  and  C5_15 
REMARK    4  A    between atoms: C5_15  and  C6_16 
REMARK    5  A    between atoms: C6_16  and  C7_17 
REMARK    6  A    between atoms: C7_17  and  C8_18 
REMARK    7  A    between atoms: C8_18  and  N5_19 
ROOT
HETATM    1  C1  UNL     1      51.421  49.589 -22.136  1.00  0.00     0.117 C 
HETATM    2  N1  UNL     1      51.223  48.363 -21.437  1.00  0.00    -0.282 NA
HETATM    3  C2  UNL     1      50.068  47.662 -21.894  1.00  0.00     0.147 C 
HETATM    4  N2  UNL     1      48.963  47.890 -21.312  1.00  0.00    -0.361 N 
ATOM      5  H2  UNL     1      48.152  47.376 -21.657  1.00  0.00     0.161 HD
HETATM    6  C3  UNL     1      48.734  48.785 -20.228  1.00  0.00     0.314 C 
HETATM    7  C4  UNL     1      49.986  49.253 -19.538  1.00  0.00     0.248 C 
HETATM    8  C9  UNL     1      51.171  48.474 -20.000  1.00  0.00     0.132 C 
ENDROOT
BRANCH   7   9
HETATM    9  N4  UNL     1      49.858  49.154 -18.093  1.00  0.00    -0.066 N 
ATOM     10  H42 UNL     1      50.189  49.991 -17.615  1.00  0.00     0.277 HD
ATOM     11  H41 UNL     1      48.886  49.189 -17.785  1.00  0.00     0.277 HD
BRANCH   9  12
HETATM   12  C5  UNL     1      50.530  47.969 -17.647  1.00  0.00     0.233 C 
BRANCH  12  13
HETATM   13  C6  UNL     1      49.963  47.404 -16.376  1.00  0.00     0.029 C 
BRANCH  13  14
HETATM   14  C7  UNL     1      49.833  45.921 -16.358  1.00  0.00     0.029 C 
BRANCH  14  15
HETATM   15  C8  UNL     1      50.939  45.174 -15.696  1.00  0.00     0.229 C 
BRANCH  15  16
HETATM   16  N5  UNL     1      50.576  44.840 -14.354  1.00  0.00    -0.079 N 
ATOM     17  H53 UNL     1      51.386  44.573 -13.795  1.00  0.00     0.274 HD
ATOM     18  H52 UNL     1      50.290  45.661 -13.820  1.00  0.00     0.274 HD
ATOM     19  H51 UNL     1      49.857  44.117 -14.353  1.00  0.00     0.274 HD
ENDBRANCH  15  16
ENDBRANCH  14  15
ENDBRANCH  13  14
ENDBRANCH  12  13
ENDBRANCH   9  12
ENDBRANCH   7   9
BRANCH   6  20
HETATM   20  N3  UNL     1      48.020  49.952 -20.756  1.00  0.00    -0.056 N 
ATOM     21  H33 UNL     1      48.648  50.682 -21.092  1.00  0.00     0.276 HD
ATOM     22  H32 UNL     1      47.549  49.761 -21.641  1.00  0.00     0.276 HD
ATOM     23  H31 UNL     1      47.382  50.280 -20.031  1.00  0.00     0.276 HD
ENDBRANCH   6  20
TORSDOF 7
ENDMDL
MODEL 3
REMARK VINA RESULT: -5.122630886      1.902      5.241
REMARK  7 active torsions:
REMARK  status: ('A' for Active; 'I' for Inactive)
REMARK    1  A    between atoms: C3_6  and  N3_7 
REMARK    2  A    between atoms: C4_11  and  N4_12 
REMARK    3  A    between atoms: N4_12  and  C5_15 
REMARK    4  A    between atoms: C5_15  and  C6_16 
REMARK    5  A    between atoms: C6_16  and  C7_17 
REMARK    6  A    between atoms: C7_17  and  C8_18 
REMARK    7  A    between atoms: C8_18  and  N5_19 
ROOT
HETATM    1  C1  UNL     1      49.620  49.577 -22.608  1.00  0.00     0.117 C 
HETATM    2  N1  UNL     1      50.578  48.785 -21.911  1.00  0.00    -0.282 NA
HETATM    3  C2  UNL     1      50.256  47.396 -21.940  1.00  0.00     0.147 C 
HETATM    4  N2  UNL     1      49.546  46.929 -20.998  1.00  0.00    -0.361 N 
ATOM      5  H2  UNL     1      49.329  45.933 -21.042  1.00  0.00     0.161 HD
HETATM    6  C3  UNL     1      49.020  47.645 -19.885  1.00  0.00     0.314 C 
HETATM    7  C4  UNL     1      49.635  49.003 -19.677  1.00  0.00     0.248 C 
HETATM    8  C9  UNL     1      50.832  49.183 -20.547  1.00  0.00     0.132 C 
ENDROOT
BRANCH   7   9
HETATM    9  N4  UNL     1      49.997  49.207 -18.284  1.00  0.00    -0.066 N 
ATOM     10  H42 UNL     1      50.588  50.028 -18.153  1.00  0.00     0.277 HD
ATOM     11  H41 UNL     1      49.206  49.509 -17.716  1.00  0.00     0.277 HD
BRANCH   9  12
HETATM   12  C5  UNL     1      50.605  48.011 -17.781  1.00  0.00     0.233 C 
BRANCH  12  13
HETATM   13  C6  UNL     1      50.028  47.553 -16.472  1.00  0.00     0.029 C 
BRANCH  13  14
HETATM   14  C7  UNL     1      50.155  46.092 -16.214  1.00  0.00     0.029 C 
BRANCH  14  15
HETATM   15  C8  UNL     1      49.985  45.200 -17.396  1.00  0.00     0.229 C 
BRANCH  15  16
HETATM   16  N5  UNL     1      49.287  44.010 -17.019  1.00  0.00    -0.079 N 
ATOM     17  H53 UNL     1      49.927  43.240 -16.822  1.00  0.00     0.274 HD
ATOM     18  H52 UNL     1      48.863  44.093 -16.095  1.00  0.00     0.274 HD
ATOM     19  H51 UNL     1      48.601  43.763 -17.733  1.00  0.00     0.274 HD
ENDBRANCH  15  16
ENDBRANCH  14  15
ENDBRANCH  13  14
ENDBRANCH  12  13
ENDBRANCH   9  12
ENDBRANCH   7   9
BRANCH   6  20
HETATM   20  N3  UNL     1      47.578  47.806 -20.098  1.00  0.00    -0.056 N 
ATOM     21  H33 UNL     1      47.263  47.412 -20.984  1.00  0.00     0.276 HD
ATOM     22  H32 UNL     1      47.018  47.218 -19.481  1.00  0.00     0.276 HD
ATOM     23  H31 UNL     1      47.360  48.798 -20.006  1.00  0.00     0.276 HD
ENDBRANCH   6  20
TORSDOF 7
ENDMDL
MODEL 4
REMARK VINA RESULT: -5.111007207      1.713      4.999
REMARK  7 active torsions:
REMARK  status: ('A' for Active; 'I' for Inactive)
REMARK    1  A    between atoms: C3_6  and  N3_7 
REMARK    2  A    between atoms: C4_11  and  N4_12 
REMARK    3  A    between atoms: N4_12  and  C5_15 
REMARK    4  A    between atoms: C5_15  and  C6_16 
REMARK    5  A    between atoms: C6_16  and  C7_17 
REMARK    6  A    between atoms: C7_17  and  C8_18 
REMARK    7  A    between atoms: C8_18  and  N5_19 
ROOT
HETATM    1  C1  UNL     1      49.919  49.305 -23.040  1.00  0.00     0.117 C 
HETATM    2  N1  UNL     1      49.072  49.031 -21.926  1.00  0.00    -0.282 NA
HETATM    3  C2  UNL     1      49.238  49.980 -20.875  1.00  0.00     0.147 C 
HETATM    4  N2  UNL     1      50.095  49.727 -19.973  1.00  0.00    -0.361 N 
ATOM      5  H2  UNL     1      50.195  50.422 -19.233  1.00  0.00     0.161 HD
HETATM    6  C3  UNL     1      50.931  48.578 -19.884  1.00  0.00     0.314 C 
HETATM    7  C4  UNL     1      50.520  47.443 -20.783  1.00  0.00     0.248 C 
HETATM    8  C9  UNL     1      49.180  47.699 -21.383  1.00  0.00     0.132 C 
ENDROOT
BRANCH   7   9
HETATM    9  N4  UNL     1      50.509  46.181 -20.062  1.00  0.00    -0.066 N 
ATOM     10  H42 UNL     1      50.428  45.378 -20.686  1.00  0.00     0.277 HD
ATOM     11  H41 UNL     1      51.418  45.955 -19.658  1.00  0.00     0.277 HD
BRANCH   9  12
HETATM   12  C5  UNL     1      49.468  46.215 -19.079  1.00  0.00     0.233 C 
BRANCH  12  13
HETATM   13  C6  UNL     1      49.807  45.462 -17.824  1.00  0.00     0.029 C 
BRANCH  13  14
HETATM   14  C7  UNL     1      50.725  46.179 -16.897  1.00  0.00     0.029 C 
BRANCH  14  15
HETATM   15  C8  UNL     1      50.303  47.547 -16.484  1.00  0.00     0.229 C 
BRANCH  15  16
HETATM   16  N5  UNL     1      49.093  47.483 -15.725  1.00  0.00    -0.079 N 
ATOM     17  H53 UNL     1      49.232  47.021 -14.826  1.00  0.00     0.274 HD
ATOM     18  H52 UNL     1      48.809  48.400 -15.380  1.00  0.00     0.274 HD
ATOM     19  H51 UNL     1      48.357  47.038 -16.272  1.00  0.00     0.274 HD
ENDBRANCH  15  16
ENDBRANCH  14  15
ENDBRANCH  13  14
ENDBRANCH  12  13
ENDBRANCH   9  12
ENDBRANCH   7   9
BRANCH   6  20
HETATM   20  N3  UNL     1      52.294  48.990 -20.235  1.00  0.00    -0.056 N 
ATOM     21  H33 UNL     1      52.316  49.789 -20.868  1.00  0.00     0.276 HD
ATOM     22  H32 UNL     1      52.791  49.421 -19.456  1.00  0.00     0.276 HD
ATOM     23  H31 UNL     1      52.778  48.174 -20.611  1.00  0.00     0.276 HD
ENDBRANCH   6  20
TORSDOF 7
ENDMDL
MODEL 5
REMARK VINA RESULT: -5.074856648      1.703      4.801
REMARK  7 active torsions:
REMARK  status: ('A' for Active; 'I' for Inactive)
REMARK    1  A    between atoms: C3_6  and  N3_7 
REMARK    2  A    between atoms: C4_11  and  N4_12 
REMARK    3  A    between atoms: N4_12  and  C5_15 
REMARK    4  A    between atoms: C5_15  and  C6_16 
REMARK    5  A    between atoms: C6_16  and  C7_17 
REMARK    6  A    between atoms: C7_17  and  C8_18 
REMARK    7  A    between atoms: C8_18  and  N5_19 
ROOT
HETATM    1  C1  UNL     1      49.556  48.918 -22.017  1.00  0.00     0.117 C 
HETATM    2  N1  UNL     1      49.190  47.658 -21.459  1.00  0.00    -0.282 NA
HETATM    3  C2  UNL     1      48.126  47.773 -20.516  1.00  0.00     0.147 C 
HETATM    4  N2  UNL     1      48.427  47.951 -19.296  1.00  0.00    -0.361 N 
ATOM      5  H2  UNL     1      47.649  48.030 -18.642  1.00  0.00     0.161 HD
HETATM    6  C3  UNL     1      49.736  48.051 -18.742  1.00  0.00     0.314 C 
HETATM    7  C4  UNL     1      50.834  47.594 -19.664  1.00  0.00     0.248 C 
HETATM    8  C9  UNL     1      50.271  46.911 -20.864  1.00  0.00     0.132 C 
ENDROOT
BRANCH   7   9
HETATM    9  N4  UNL     1      51.762  46.710 -18.978  1.00  0.00    -0.066 N 
ATOM     10  H42 UNL     1      52.730  46.870 -19.259  1.00  0.00     0.277 HD
ATOM     11  H41 UNL     1      51.861  46.941 -17.990  1.00  0.00     0.277 HD
BRANCH   9  12
HETATM   12  C5  UNL     1      51.350  45.354 -19.184  1.00  0.00     0.233 C 
BRANCH  12  13
HETATM   13  C6  UNL     1      51.133  44.596 -17.905  1.00  0.00     0.029 C 
BRANCH  13  14
HETATM   14  C7  UNL     1      49.770  44.737 -17.323  1.00  0.00     0.029 C 
BRANCH  14  15
HETATM   15  C8  UNL     1      49.708  45.150 -15.892  1.00  0.00     0.229 C 
BRANCH  15  16
HETATM   16  N5  UNL     1      49.386  46.540 -15.793  1.00  0.00    -0.079 N 
ATOM     17  H53 UNL     1      50.175  47.133 -16.051  1.00  0.00     0.274 HD
ATOM     18  H52 UNL     1      48.734  46.833 -16.521  1.00  0.00     0.274 HD
ATOM     19  H51 UNL     1      49.036  46.755 -14.860  1.00  0.00     0.274 HD
ENDBRANCH  15  16
ENDBRANCH  14  15
ENDBRANCH  13  14
ENDBRANCH  12  13
ENDBRANCH   9  12
ENDBRANCH   7   9
BRANCH   6  20
HETATM   20  N3  UNL     1      49.966  49.456 -18.391  1.00  0.00    -0.056 N 
ATOM     21  H33 UNL     1      50.647  49.909 -18.999  1.00  0.00     0.276 HD
ATOM     22  H32 UNL     1      49.169  50.054 -18.611  1.00  0.00     0.276 HD
ATOM     23  H31 UNL     1      50.228  49.490 -17.406  1.00  0.00     0.276 HD
ENDBRANCH   6  20
TORSDOF 7
ENDMDL
