MODEL 1
REMARK VINA RESULT: -5.410038310      0.000      0.000
REMARK  6 active torsions:
REMARK  status: ('A' for Active; 'I' for Inactive)
REMARK    1  A    between atoms: N1_1  and  C1_5 
REMARK    2  A    between atoms: C1_5  and  C2_6 
REMARK    3  A    between atoms: C2_6  and  C3_7 
REMARK    4  A    between atoms: C3_7  and  N2_8 
REMARK       I    between atoms: N2_8  and  C4_10 
REMARK    5  A    between atoms: N4_12  and  C5_14 
REMARK    6  A    between atoms: C5_14  and  C6_15 
ROOT
HETATM    1  N2  UNL     1      49.141  47.506 -18.206  1.00  0.00    -0.365 N 
ATOM      2  H2  UNL     1      48.443  48.182 -17.894  1.00  0.00     0.162 HD
HETATM    3  C4  UNL     1      50.195  47.169 -17.326  1.00  0.00     0.184 C 
HETATM    4  N3  UNL     1      50.167  47.563 -15.965  1.00  0.00    -0.064 NA
HETATM    5  N4  UNL     1      51.205  46.482 -17.805  1.00  0.00    -0.363 N 
ATOM      6  H4  UNL     1      51.211  46.206 -18.787  1.00  0.00     0.162 HD
ENDROOT
BRANCH   1   7
HETATM    7  C3  UNL     1      49.006  46.937 -19.523  1.00  0.00     0.124 C 
BRANCH   7   8
HETATM    8  C2  UNL     1      48.164  47.830 -20.370  1.00  0.00     0.047 C 
BRANCH   8   9
HETATM    9  C1  UNL     1      48.827  49.162 -20.649  1.00  0.00     0.231 C 
BRANCH   9  10
HETATM   10  N1  UNL     1      47.903  50.268 -20.607  1.00  0.00    -0.079 N 
ATOM     11  H13 UNL     1      47.633  50.481 -19.648  1.00  0.00     0.274 HD
ATOM     12  H12 UNL     1      48.370  51.143 -20.847  1.00  0.00     0.274 HD
ATOM     13  H11 UNL     1      47.081  50.121 -21.193  1.00  0.00     0.274 HD
ENDBRANCH   9  10
ENDBRANCH   8   9
ENDBRANCH   7   8
ENDBRANCH   1   7
BRANCH   5  14
HETATM   14  C5  UNL     1      52.319  46.108 -16.943  1.00  0.00     0.149 C 
BRANCH  14  15
HETATM   15  C6  UNL     1      52.219  44.624 -16.693  1.00  0.00     0.117 C 
HETATM   16  C7  UNL     1      51.705  43.881 -17.912  1.00  0.00     0.147 C 
HETATM   17  N5  UNL     1      51.052  42.739 -17.302  1.00  0.00    -0.384 N 
HETATM   18  C8  UNL     1      50.769  42.977 -16.064  1.00  0.00     0.171 C 
ATOM     19  H5  UNL     1      50.844  41.866 -17.785  1.00  0.00     0.160 HD
HETATM   20  N6  UNL     1      51.206  44.304 -15.716  1.00  0.00    -0.379 N 
ATOM     21  H6  UNL     1      50.873  44.888 -14.949  1.00  0.00     0.160 HD
ENDBRANCH  14  15
ENDBRANCH   5  14
TORSDOF 6
ENDMDL
MODEL 2
REMARK VINA RESULT: -5.316121453      1.033      1.291
REMARK  6 active torsions:
REMARK  status: ('A' for Active; 'I' for Inactive)
REMARK    1  A    between atoms: N1_1  and  C1_5 
REMARK    2  A    between atoms: C1_5  and  C2_6 
REMARK    3  A    between atoms: C2_6  and  C3_7 
REMARK    4  A    between atoms: C3_7  and  N2_8 
REMARK       I    between atoms: N2_8  and  C4_10 
REMARK    5  A    between atoms: N4_12  and  C5_14 
REMARK    6  A    between atoms: C5_14  and  C6_15 
ROOT
HETATM    1  N2  UNL     1      49.170  47.535 -18.262  1.00  0.00    -0.365 N 
ATOM      2  H2  UNL     1      48.537  48.297 -18.015  1.00  0.00     0.162 HD
HETATM    3  C4  UNL     1      50.160  47.151 -17.329  1.00  0.00     0.184 C 
HETATM    4  N3  UNL     1      50.136  47.630 -15.996  1.00  0.00    -0.064 NA
HETATM    5  N4  UNL     1      51.107  46.336 -17.733  1.00  0.00    -0.363 N 
ATOM      6  H4  UNL     1      51.111  46.000 -18.696  1.00  0.00     0.162 HD
ENDROOT
BRANCH   1   7
HETATM    7  C3  UNL     1      49.013  46.902 -19.546  1.00  0.00     0.124 C 
BRANCH   7   8
HETATM    8  C2  UNL     1      48.230  47.791 -20.452  1.00  0.00     0.047 C 
BRANCH   8   9
HETATM    9  C1  UNL     1      48.857  49.160 -20.607  1.00  0.00     0.231 C 
BRANCH   9  10
HETATM   10  N1  UNL     1      47.885  50.225 -20.611  1.00  0.00    -0.079 N 
ATOM     11  H13 UNL     1      46.959  49.873 -20.850  1.00  0.00     0.274 HD
ATOM     12  H12 UNL     1      47.699  50.553 -19.663  1.00  0.00     0.274 HD
ATOM     13  H11 UNL     1      48.148  51.000 -21.219  1.00  0.00     0.274 HD
ENDBRANCH   9  10
ENDBRANCH   8   9
ENDBRANCH   7   8
ENDBRANCH   1   7
BRANCH   5  14
HETATM   14  C5  UNL     1      52.153  45.908 -16.814  1.00  0.00     0.149 C 
BRANCH  14  15
HETATM   15  C6  UNL     1      51.957  44.434 -16.561  1.00  0.00     0.117 C 
HETATM   16  C7  UNL     1      51.200  44.180 -15.270  1.00  0.00     0.147 C 
HETATM   17  N5  UNL     1      51.714  42.881 -14.883  1.00  0.00    -0.384 N 
HETATM   18  C8  UNL     1      52.844  42.641 -15.461  1.00  0.00     0.171 C 
ATOM     19  H5  UNL     1      51.246  42.242 -14.240  1.00  0.00     0.160 HD
HETATM   20  N6  UNL     1      53.204  43.756 -16.298  1.00  0.00    -0.379 N 
ATOM     21  H6  UNL     1      54.133  44.010 -16.631  1.00  0.00     0.160 HD
ENDBRANCH  14  15
ENDBRANCH   5  14
TORSDOF 6
ENDMDL
MODEL 3
REMARK VINA RESULT: -5.296065031      1.521      1.831
REMARK  6 active torsions:
REMARK  status: ('A' for Active; 'I' for Inactive)
REMARK    1  A    between atoms: N1_1  and  C1_5 
REMARK    2  A    between atoms: C1_5  and  C2_6 
REMARK    3  A    between atoms: C2_6  and  C3_7 
REMARK    4  A    between atoms: C3_7  and  N2_8 
REMARK       I    between atoms: N2_8  and  C4_10 
REMARK    5  A    between atoms: N4_12  and  C5_14 
REMARK    6  A    between atoms: C5_14  and  C6_15 
ROOT
HETATM    1  N2  UNL     1      50.012  48.964 -17.939  1.00  0.00    -0.365 N 
ATOM      2  H2  UNL     1      49.844  49.923 -17.634  1.00  0.00     0.162 HD
HETATM    3  C4  UNL     1      49.719  47.910 -17.043  1.00  0.00     0.184 C 
HETATM    4  N3  UNL     1      48.991  48.144 -15.850  1.00  0.00    -0.064 NA
HETATM    5  N4  UNL     1      50.142  46.705 -17.346  1.00  0.00    -0.363 N 
ATOM      6  H4  UNL     1      50.665  46.553 -18.209  1.00  0.00     0.162 HD
ENDROOT
BRANCH   1   7
HETATM    7  C3  UNL     1      50.535  48.746 -19.263  1.00  0.00     0.124 C 
BRANCH   7   8
HETATM    8  C2  UNL     1      49.485  49.060 -20.275  1.00  0.00     0.047 C 
BRANCH   8   9
HETATM    9  C1  UNL     1      48.700  47.838 -20.697  1.00  0.00     0.231 C 
BRANCH   9  10
HETATM   10  N1  UNL     1      47.463  47.688 -19.970  1.00  0.00    -0.079 N 
ATOM     11  H13 UNL     1      46.728  47.322 -20.574  1.00  0.00     0.274 HD
ATOM     12  H12 UNL     1      47.524  46.921 -19.300  1.00  0.00     0.274 HD
ATOM     13  H11 UNL     1      47.164  48.549 -19.513  1.00  0.00     0.274 HD
ENDBRANCH   9  10
ENDBRANCH   8   9
ENDBRANCH   7   8
ENDBRANCH   1   7
BRANCH   5  14
HETATM   14  C5  UNL     1      49.869  45.582 -16.459  1.00  0.00     0.149 C 
BRANCH  14  15
HETATM   15  C6  UNL     1      51.198  45.059 -15.971  1.00  0.00     0.117 C 
HETATM   16  C7  UNL     1      52.293  45.256 -17.002  1.00  0.00     0.147 C 
HETATM   17  N5  UNL     1      53.185  44.156 -16.691  1.00  0.00    -0.384 N 
HETATM   18  C8  UNL     1      52.568  43.234 -16.029  1.00  0.00     0.171 C 
ATOM     19  H5  UNL     1      54.169  44.115 -16.958  1.00  0.00     0.160 HD
HETATM   20  N6  UNL     1      51.196  43.622 -15.827  1.00  0.00    -0.379 N 
ATOM     21  H6  UNL     1      50.400  43.017 -15.626  1.00  0.00     0.160 HD
ENDBRANCH  14  15
ENDBRANCH   5  14
TORSDOF 6
ENDMDL
MODEL 4
REMARK VINA RESULT: -5.248570296      0.937      1.282
REMARK  6 active torsions:
REMARK  status: ('A' for Active; 'I' for Inactive)
REMARK    1  A    between atoms: N1_1  and  C1_5 
REMARK    2  A    between atoms: C1_5  and  C2_6 
REMARK    3  A    between atoms: C2_6  and  C3_7 
REMARK    4  A    between atoms: C3_7  and  N2_8 
REMARK       I    between atoms: N2_8  and  C4_10 
REMARK    5  A    between atoms: N4_12  and  C5_14 
REMARK    6  A    between atoms: C5_14  and  C6_15 
ROOT
HETATM    1  N2  UNL     1      49.302  47.538 -18.197  1.00  0.00    -0.365 N 
ATOM      2  H2  UNL     1      48.893  48.459 -18.035  1.00  0.00     0.162 HD
HETATM    3  C4  UNL     1      50.100  46.965 -17.180  1.00  0.00     0.184 C 
HETATM    4  N3  UNL     1      50.144  47.526 -15.880  1.00  0.00    -0.064 NA
HETATM    5  N4  UNL     1      50.803  45.896 -17.474  1.00  0.00    -0.363 N 
ATOM      6  H4  UNL     1      50.760  45.504 -18.415  1.00  0.00     0.162 HD
ENDROOT
BRANCH   1   7
HETATM    7  C3  UNL     1      49.039  46.882 -19.452  1.00  0.00     0.124 C 
BRANCH   7   8
HETATM    8  C2  UNL     1      48.159  47.744 -20.293  1.00  0.00     0.047 C 
BRANCH   8   9
HETATM    9  C1  UNL     1      48.808  49.063 -20.650  1.00  0.00     0.231 C 
BRANCH   9  10
HETATM   10  N1  UNL     1      47.894  50.176 -20.576  1.00  0.00    -0.079 N 
ATOM     11  H13 UNL     1      46.934  49.852 -20.456  1.00  0.00     0.274 HD
ATOM     12  H12 UNL     1      48.008  50.685 -19.699  1.00  0.00     0.274 HD
ATOM     13  H11 UNL     1      47.969  50.805 -21.375  1.00  0.00     0.274 HD
ENDBRANCH   9  10
ENDBRANCH   8   9
ENDBRANCH   7   8
ENDBRANCH   1   7
BRANCH   5  14
HETATM   14  C5  UNL     1      51.643  45.265 -16.465  1.00  0.00     0.149 C 
BRANCH  14  15
HETATM   15  C6  UNL     1      50.878  44.089 -15.911  1.00  0.00     0.117 C 
HETATM   16  C7  UNL     1      51.765  43.181 -15.080  1.00  0.00     0.147 C 
HETATM   17  N5  UNL     1      51.111  41.898 -15.254  1.00  0.00    -0.384 N 
HETATM   18  C8  UNL     1      50.365  41.900 -16.308  1.00  0.00     0.171 C 
ATOM     19  H5  UNL     1      51.225  41.101 -14.628  1.00  0.00     0.160 HD
HETATM   20  N6  UNL     1      50.440  43.187 -16.950  1.00  0.00    -0.379 N 
ATOM     21  H6  UNL     1      50.230  43.411 -17.922  1.00  0.00     0.160 HD
ENDBRANCH  14  15
ENDBRANCH   5  14
TORSDOF 6
ENDMDL
MODEL 5
REMARK VINA RESULT: -5.224304914      1.086      1.145
REMARK  6 active torsions:
REMARK  status: ('A' for Active; 'I' for Inactive)
REMARK    1  A    between atoms: N1_1  and  C1_5 
REMARK    2  A    between atoms: C1_5  and  C2_6 
REMARK    3  A    between atoms: C2_6  and  C3_7 
REMARK    4  A    between atoms: C3_7  and  N2_8 
REMARK       I    between atoms: N2_8  and  C4_10 
REMARK    5  A    between atoms: N4_12  and  C5_14 
REMARK    6  A    between atoms: C5_14  and  C6_15 
ROOT
HETATM    1  N2  UNL     1      49.181  47.699 -18.210  1.00  0.00    -0.365 N 
ATOM      2  H2  UNL     1      48.678  48.587 -18.182  1.00  0.00     0.162 HD
HETATM    3  C4  UNL     1      49.633  47.142 -16.991  1.00  0.00     0.184 C 
HETATM    4  N3  UNL     1      49.204  47.661 -15.744  1.00  0.00    -0.064 NA
HETATM    5  N4  UNL     1      50.467  46.129 -17.046  1.00  0.00    -0.363 N 
ATOM      6  H4  UNL     1      50.767  45.768 -17.951  1.00  0.00     0.162 HD
ENDROOT
BRANCH   1   7
HETATM    7  C3  UNL     1      49.396  47.071 -19.488  1.00  0.00     0.124 C 
BRANCH   7   8
HETATM    8  C2  UNL     1      48.496  47.685 -20.506  1.00  0.00     0.047 C 
BRANCH   8   9
HETATM    9  C1  UNL     1      48.966  49.054 -20.948  1.00  0.00     0.231 C 
BRANCH   9  10
HETATM   10  N1  UNL     1      48.018  50.097 -20.645  1.00  0.00    -0.079 N 
ATOM     11  H13 UNL     1      47.722  50.050 -19.671  1.00  0.00     0.274 HD
ATOM     12  H12 UNL     1      48.472  51.011 -20.636  1.00  0.00     0.274 HD
ATOM     13  H11 UNL     1      47.213  50.096 -21.271  1.00  0.00     0.274 HD
ENDBRANCH   9  10
ENDBRANCH   8   9
ENDBRANCH   7   8
ENDBRANCH   1   7
BRANCH   5  14
HETATM   14  C5  UNL     1      50.965  45.518 -15.822  1.00  0.00     0.149 C 
BRANCH  14  15
HETATM   15  C6  UNL     1      51.268  44.072 -16.130  1.00  0.00     0.117 C 
HETATM   16  C7  UNL     1      50.057  43.351 -16.692  1.00  0.00     0.147 C 
HETATM   17  N5  UNL     1      50.305  41.989 -16.263  1.00  0.00    -0.384 N 
HETATM   18  C8  UNL     1      51.134  41.961 -15.272  1.00  0.00     0.171 C 
ATOM     19  H5  UNL     1      49.883  41.163 -16.686  1.00  0.00     0.160 HD
HETATM   20  N6  UNL     1      51.527  43.304 -14.935  1.00  0.00    -0.379 N 
ATOM     21  H6  UNL     1      51.906  43.639 -14.049  1.00  0.00     0.160 HD
ENDBRANCH  14  15
ENDBRANCH   5  14
TORSDOF 6
ENDMDL
