MODEL 1
REMARK VINA RESULT: -6.380017677      0.000      0.000
REMARK  5 active torsions:
REMARK  status: ('A' for Active; 'I' for Inactive)
REMARK    1  A    between atoms: C2_2  and  C3_3 
REMARK    2  A    between atoms: C3_3  and  N1_4 
REMARK    3  A    between atoms: N2_10  and  C9_11 
REMARK    4  A    between atoms: C9_11  and  N3_13 
REMARK    5  A    between atoms: C13_18  and  N4_19 
REMARK       I    between atoms: N4_19  and  C14_21 
ROOT
HETATM    1  N1  UNL     1      -3.945   6.957  12.116  1.00  0.00    -0.278 N 
HETATM    2  C4  UNL     1      -4.339   6.257  13.223  1.00  0.00     0.098 C 
HETATM    3  C5  UNL     1      -3.870   4.857  13.414  1.00  0.00    -0.004 C 
HETATM    4  C6  UNL     1      -2.662   4.453  12.672  1.00  0.00     0.017 C 
HETATM    5  C7  UNL     1      -2.713   4.735  11.185  1.00  0.00     0.023 C 
HETATM    6  C8  UNL     1      -1.911   6.050  11.023  1.00  0.00     0.152 C 
HETATM    7  N2  UNL     1      -2.641   7.085  11.730  1.00  0.00    -0.262 N 
HETATM    8  C11 UNL     1      -3.587   4.675  14.895  1.00  0.00     0.017 C 
HETATM    9  C12 UNL     1      -4.957   4.282  15.471  1.00  0.00     0.026 C 
HETATM   10  C13 UNL     1      -5.391   3.261  14.446  1.00  0.00     0.085 C 
HETATM   11  C15 UNL     1      -4.961   3.819  13.127  1.00  0.00     0.040 C 
ENDROOT
BRANCH   1  12
HETATM   12  C3  UNL     1      -4.853   7.797  11.488  1.00  0.00     0.114 C 
BRANCH  12  13
HETATM   13  C2  UNL     1      -6.298   7.420  11.640  1.00  0.00     0.009 C 
HETATM   14  C1  UNL     1      -7.215   8.341  11.829  1.00  0.00     0.013 C 
ENDBRANCH  12  13
ENDBRANCH   1  12
BRANCH  10  15
HETATM   15  N4  UNL     1      -4.833   1.962  14.717  1.00  0.00    -0.360 N 
HETATM   16  C14 UNL     1      -4.955   1.356  15.994  1.00  0.00     0.182 C 
HETATM   17  N5  UNL     1      -6.130   1.296  16.511  1.00  0.00    -0.374 N 
HETATM   18  N6  UNL     1      -3.859   0.829  16.700  1.00  0.00    -0.064 NA
ATOM     19  H52 UNL     1      -6.925   1.678  15.999  1.00  0.00     0.158 HD
ATOM     20  H51 UNL     1      -6.218   0.859  17.429  1.00  0.00     0.158 HD
ATOM     21  H4  UNL     1      -4.339   1.467  13.975  1.00  0.00     0.162 HD
ENDBRANCH  10  15
BRANCH   7  22
HETATM   22  C9  UNL     1      -1.970   8.315  12.069  1.00  0.00     0.188 C 
HETATM   23  S1  UNL     1      -1.377   9.215  10.777  1.00  0.00    -0.039 SA
BRANCH  22  24
HETATM   24  N3  UNL     1      -1.753   8.874  13.320  1.00  0.00    -0.370 N 
HETATM   25  C10 UNL     1      -1.535   8.274  14.597  1.00  0.00     0.148 C 
ATOM     26  H3  UNL     1      -1.748   9.894  13.329  1.00  0.00     0.161 HD
ENDBRANCH  22  24
ENDBRANCH   7  22
TORSDOF 5
ENDMDL
MODEL 2
REMARK VINA RESULT: -6.247844741      1.011      1.193
REMARK  5 active torsions:
REMARK  status: ('A' for Active; 'I' for Inactive)
REMARK    1  A    between atoms: C2_2  and  C3_3 
REMARK    2  A    between atoms: C3_3  and  N1_4 
REMARK    3  A    between atoms: N2_10  and  C9_11 
REMARK    4  A    between atoms: C9_11  and  N3_13 
REMARK    5  A    between atoms: C13_18  and  N4_19 
REMARK       I    between atoms: N4_19  and  C14_21 
ROOT
HETATM    1  N1  UNL     1      -3.938   7.099  12.219  1.00  0.00    -0.278 N 
HETATM    2  C4  UNL     1      -4.399   6.361  13.274  1.00  0.00     0.098 C 
HETATM    3  C5  UNL     1      -3.879   4.982  13.490  1.00  0.00    -0.004 C 
HETATM    4  C6  UNL     1      -2.588   4.652  12.861  1.00  0.00     0.017 C 
HETATM    5  C7  UNL     1      -2.512   4.959  11.380  1.00  0.00     0.023 C 
HETATM    6  C8  UNL     1      -1.766   6.315  11.314  1.00  0.00     0.152 C 
HETATM    7  N2  UNL     1      -2.611   7.299  11.961  1.00  0.00    -0.262 N 
HETATM    8  C11 UNL     1      -3.730   4.787  14.988  1.00  0.00     0.017 C 
HETATM    9  C12 UNL     1      -5.126   4.316  15.425  1.00  0.00     0.026 C 
HETATM   10  C13 UNL     1      -5.408   3.294  14.349  1.00  0.00     0.085 C 
HETATM   11  C15 UNL     1      -4.884   3.897  13.085  1.00  0.00     0.040 C 
ENDROOT
BRANCH   1  12
HETATM   12  C3  UNL     1      -4.824   7.905  11.519  1.00  0.00     0.114 C 
BRANCH  12  13
HETATM   13  C2  UNL     1      -6.270   7.512  11.610  1.00  0.00     0.009 C 
HETATM   14  C1  UNL     1      -7.205   8.422  11.752  1.00  0.00     0.013 C 
ENDBRANCH  12  13
ENDBRANCH   1  12
BRANCH  10  15
HETATM   15  N4  UNL     1      -4.813   2.020  14.654  1.00  0.00    -0.360 N 
HETATM   16  C14 UNL     1      -4.929   1.438  15.943  1.00  0.00     0.182 C 
HETATM   17  N5  UNL     1      -6.106   1.353  16.451  1.00  0.00    -0.374 N 
HETATM   18  N6  UNL     1      -3.824   0.961  16.671  1.00  0.00    -0.064 NA
ATOM     19  H52 UNL     1      -6.907   1.699  15.923  1.00  0.00     0.158 HD
ATOM     20  H51 UNL     1      -6.190   0.934  17.377  1.00  0.00     0.158 HD
ATOM     21  H4  UNL     1      -4.297   1.524  13.928  1.00  0.00     0.162 HD
ENDBRANCH  10  15
BRANCH   7  22
HETATM   22  C9  UNL     1      -2.039   8.555  12.380  1.00  0.00     0.188 C 
HETATM   23  S1  UNL     1      -1.455   8.612  13.957  1.00  0.00    -0.039 SA
BRANCH  22  24
HETATM   24  N3  UNL     1      -1.888   9.728  11.656  1.00  0.00    -0.370 N 
HETATM   25  C10 UNL     1      -2.532  10.998  11.769  1.00  0.00     0.148 C 
ATOM     26  H3  UNL     1      -1.194   9.675  10.911  1.00  0.00     0.161 HD
ENDBRANCH  22  24
ENDBRANCH   7  22
TORSDOF 5
ENDMDL
MODEL 3
REMARK VINA RESULT: -6.221268975      1.257      1.414
REMARK  5 active torsions:
REMARK  status: ('A' for Active; 'I' for Inactive)
REMARK    1  A    between atoms: C2_2  and  C3_3 
REMARK    2  A    between atoms: C3_3  and  N1_4 
REMARK    3  A    between atoms: N2_10  and  C9_11 
REMARK    4  A    between atoms: C9_11  and  N3_13 
REMARK    5  A    between atoms: C13_18  and  N4_19 
REMARK       I    between atoms: N4_19  and  C14_21 
ROOT
HETATM    1  N1  UNL     1      -4.459   5.994  11.853  1.00  0.00    -0.278 N 
HETATM    2  C4  UNL     1      -4.661   5.621  13.153  1.00  0.00     0.098 C 
HETATM    3  C5  UNL     1      -4.452   4.201  13.552  1.00  0.00    -0.004 C 
HETATM    4  C6  UNL     1      -3.609   3.378  12.665  1.00  0.00     0.017 C 
HETATM    5  C7  UNL     1      -4.016   3.405  11.207  1.00  0.00     0.023 C 
HETATM    6  C8  UNL     1      -3.041   4.420  10.562  1.00  0.00     0.152 C 
HETATM    7  N2  UNL     1      -3.318   5.714  11.156  1.00  0.00    -0.262 N 
HETATM    8  C11 UNL     1      -3.809   4.210  14.927  1.00  0.00     0.017 C 
HETATM    9  C12 UNL     1      -5.013   4.288  15.880  1.00  0.00     0.026 C 
HETATM   10  C13 UNL     1      -5.914   3.253  15.250  1.00  0.00     0.085 C 
HETATM   11  C15 UNL     1      -5.767   3.445  13.775  1.00  0.00     0.040 C 
ENDROOT
BRANCH   1  12
HETATM   12  C3  UNL     1      -5.316   6.919  11.274  1.00  0.00     0.114 C 
BRANCH  12  13
HETATM   13  C2  UNL     1      -6.578   7.200  12.037  1.00  0.00     0.009 C 
HETATM   14  C1  UNL     1      -7.242   8.316  11.847  1.00  0.00     0.013 C 
ENDBRANCH  12  13
ENDBRANCH   1  12
BRANCH  10  15
HETATM   15  N4  UNL     1      -5.579   1.920  15.681  1.00  0.00    -0.360 N 
HETATM   16  C14 UNL     1      -6.094   1.380  16.887  1.00  0.00     0.182 C 
HETATM   17  N5  UNL     1      -7.364   1.448  17.072  1.00  0.00    -0.374 N 
HETATM   18  N6  UNL     1      -5.282   0.785  17.869  1.00  0.00    -0.064 NA
ATOM     19  H52 UNL     1      -7.952   1.880  16.360  1.00  0.00     0.158 HD
ATOM     20  H51 UNL     1      -7.734   1.059  17.940  1.00  0.00     0.158 HD
ATOM     21  H4  UNL     1      -4.957   1.353  15.106  1.00  0.00     0.162 HD
ENDBRANCH  10  15
BRANCH   7  22
HETATM   22  C9  UNL     1      -2.343   6.769  11.034  1.00  0.00     0.188 C 
HETATM   23  S1  UNL     1      -1.943   7.229   9.466  1.00  0.00    -0.039 SA
BRANCH  22  24
HETATM   24  N3  UNL     1      -1.692   7.475  12.036  1.00  0.00    -0.370 N 
HETATM   25  C10 UNL     1      -1.222   7.074  13.322  1.00  0.00     0.148 C 
ATOM     26  H3  UNL     1      -1.519   8.456  11.813  1.00  0.00     0.161 HD
ENDBRANCH  22  24
ENDBRANCH   7  22
TORSDOF 5
ENDMDL
MODEL 4
REMARK VINA RESULT: -6.144665525      1.402      2.946
REMARK  5 active torsions:
REMARK  status: ('A' for Active; 'I' for Inactive)
REMARK    1  A    between atoms: C2_2  and  C3_3 
REMARK    2  A    between atoms: C3_3  and  N1_4 
REMARK    3  A    between atoms: N2_10  and  C9_11 
REMARK    4  A    between atoms: C9_11  and  N3_13 
REMARK    5  A    between atoms: C13_18  and  N4_19 
REMARK       I    between atoms: N4_19  and  C14_21 
ROOT
HETATM    1  N1  UNL     1      -3.933   6.378  11.519  1.00  0.00    -0.278 N 
HETATM    2  C4  UNL     1      -4.753   5.587  12.276  1.00  0.00     0.098 C 
HETATM    3  C5  UNL     1      -4.414   5.328  13.702  1.00  0.00    -0.004 C 
HETATM    4  C6  UNL     1      -3.496   6.282  14.351  1.00  0.00     0.017 C 
HETATM    5  C7  UNL     1      -2.207   6.528  13.596  1.00  0.00     0.023 C 
HETATM    6  C8  UNL     1      -2.456   7.862  12.849  1.00  0.00     0.152 C 
HETATM    7  N2  UNL     1      -3.526   7.625  11.900  1.00  0.00    -0.262 N 
HETATM    8  C11 UNL     1      -5.716   5.333  14.483  1.00  0.00     0.017 C 
HETATM    9  C12 UNL     1      -6.213   3.884  14.351  1.00  0.00     0.026 C 
HETATM   10  C13 UNL     1      -4.930   3.139  14.632  1.00  0.00     0.085 C 
HETATM   11  C15 UNL     1      -3.860   3.918  13.936  1.00  0.00     0.040 C 
ENDROOT
BRANCH   1  12
HETATM   12  C3  UNL     1      -3.700   6.037  10.194  1.00  0.00     0.114 C 
BRANCH  12  13
HETATM   13  C2  UNL     1      -2.956   4.752   9.975  1.00  0.00     0.009 C 
HETATM   14  C1  UNL     1      -1.720   4.614  10.395  1.00  0.00     0.013 C 
ENDBRANCH  12  13
ENDBRANCH   1  12
BRANCH  10  15
HETATM   15  N4  UNL     1      -4.694   2.996  16.045  1.00  0.00    -0.360 N 
HETATM   16  C14 UNL     1      -4.859   1.749  16.701  1.00  0.00     0.182 C 
HETATM   17  N5  UNL     1      -4.267   0.729  16.190  1.00  0.00    -0.374 N 
HETATM   18  N6  UNL     1      -5.630   1.592  17.866  1.00  0.00    -0.064 NA
ATOM     19  H52 UNL     1      -3.708   0.843  15.345  1.00  0.00     0.158 HD
ATOM     20  H51 UNL     1      -4.385  -0.168  16.662  1.00  0.00     0.158 HD
ATOM     21  H4  UNL     1      -4.403   3.810  16.586  1.00  0.00     0.162 HD
ENDBRANCH  10  15
BRANCH   7  22
HETATM   22  C9  UNL     1      -4.224   8.750  11.328  1.00  0.00     0.188 C 
HETATM   23  S1  UNL     1      -3.335  10.169  11.169  1.00  0.00    -0.039 SA
BRANCH  22  24
HETATM   24  N3  UNL     1      -5.534   8.825  10.875  1.00  0.00    -0.370 N 
HETATM   25  C10 UNL     1      -6.779   8.677  11.557  1.00  0.00     0.148 C 
ATOM     26  H3  UNL     1      -5.622   9.022   9.878  1.00  0.00     0.161 HD
ENDBRANCH  22  24
ENDBRANCH   7  22
TORSDOF 5
ENDMDL
MODEL 5
REMARK VINA RESULT: -6.127485719      1.675      2.042
REMARK  5 active torsions:
REMARK  status: ('A' for Active; 'I' for Inactive)
REMARK    1  A    between atoms: C2_2  and  C3_3 
REMARK    2  A    between atoms: C3_3  and  N1_4 
REMARK    3  A    between atoms: N2_10  and  C9_11 
REMARK    4  A    between atoms: C9_11  and  N3_13 
REMARK    5  A    between atoms: C13_18  and  N4_19 
REMARK       I    between atoms: N4_19  and  C14_21 
ROOT
HETATM    1  N1  UNL     1      -4.489   5.984  11.815  1.00  0.00    -0.278 N 
HETATM    2  C4  UNL     1      -4.656   5.631  13.126  1.00  0.00     0.098 C 
HETATM    3  C5  UNL     1      -4.429   4.219  13.542  1.00  0.00    -0.004 C 
HETATM    4  C6  UNL     1      -3.603   3.387  12.649  1.00  0.00     0.017 C 
HETATM    5  C7  UNL     1      -4.045   3.387  11.201  1.00  0.00     0.023 C 
HETATM    6  C8  UNL     1      -3.093   4.397  10.515  1.00  0.00     0.152 C 
HETATM    7  N2  UNL     1      -3.363   5.699  11.096  1.00  0.00    -0.262 N 
HETATM    8  C11 UNL     1      -3.753   4.255  14.901  1.00  0.00     0.017 C 
HETATM    9  C12 UNL     1      -4.934   4.341  15.882  1.00  0.00     0.026 C 
HETATM   10  C13 UNL     1      -5.844   3.290  15.291  1.00  0.00     0.085 C 
HETATM   11  C15 UNL     1      -5.734   3.459  13.810  1.00  0.00     0.040 C 
ENDROOT
BRANCH   1  12
HETATM   12  C3  UNL     1      -5.366   6.894  11.242  1.00  0.00     0.114 C 
BRANCH  12  13
HETATM   13  C2  UNL     1      -6.589   7.213  12.051  1.00  0.00     0.009 C 
HETATM   14  C1  UNL     1      -7.298   8.288  11.797  1.00  0.00     0.013 C 
ENDBRANCH  12  13
ENDBRANCH   1  12
BRANCH  10  15
HETATM   15  N4  UNL     1      -5.490   1.967  15.735  1.00  0.00    -0.360 N 
HETATM   16  C14 UNL     1      -6.077   1.392  16.891  1.00  0.00     0.182 C 
HETATM   17  N5  UNL     1      -7.359   1.407  16.974  1.00  0.00    -0.374 N 
HETATM   18  N6  UNL     1      -5.322   0.818  17.929  1.00  0.00    -0.064 NA
ATOM     19  H52 UNL     1      -7.907   1.824  16.221  1.00  0.00     0.158 HD
ATOM     20  H51 UNL     1      -7.782   0.993  17.806  1.00  0.00     0.158 HD
ATOM     21  H4  UNL     1      -4.802   1.432  15.206  1.00  0.00     0.162 HD
ENDBRANCH  10  15
BRANCH   7  22
HETATM   22  C9  UNL     1      -2.398   6.758  10.932  1.00  0.00     0.188 C 
HETATM   23  S1  UNL     1      -1.313   6.972  12.200  1.00  0.00    -0.039 SA
BRANCH  22  24
HETATM   24  N3  UNL     1      -2.228   7.625   9.863  1.00  0.00    -0.370 N 
HETATM   25  C10 UNL     1      -2.736   7.591   8.529  1.00  0.00     0.148 C 
ATOM     26  H3  UNL     1      -1.634   8.429  10.065  1.00  0.00     0.161 HD
ENDBRANCH  22  24
ENDBRANCH   7  22
TORSDOF 5
ENDMDL
