MODEL 1
REMARK VINA RESULT: -7.659384753      0.000      0.000
REMARK  3 active torsions:
REMARK  status: ('A' for Active; 'I' for Inactive)
REMARK    1  A    between atoms: C2_2  and  C3_3 
REMARK    2  A    between atoms: C3_3  and  S1_4 
REMARK    3  A    between atoms: S1_4  and  C4_5 
ROOT
HETATM    1  C4  UNL     1      40.522   1.904  92.311  1.00  0.00     0.092 A 
HETATM    2  N1  UNL     1      41.674   1.797  91.625  1.00  0.00    -0.347 N 
ATOM      3  H1  UNL     1      41.879   1.064  90.946  1.00  0.00     0.167 HD
HETATM    4  C5  UNL     1      42.518   2.790  91.956  1.00  0.00     0.068 A 
HETATM    5  C6  UNL     1      43.758   3.361  91.753  1.00  0.00     0.033 A 
HETATM    6  C7  UNL     1      44.812   2.869  90.819  1.00  0.00     0.070 C 
HETATM    7  N2  UNL     1      43.896   4.444  92.522  1.00  0.00    -0.367 N 
ATOM      8  H2  UNL     1      44.722   5.043  92.555  1.00  0.00     0.165 HD
HETATM    9  C8  UNL     1      42.776   4.623  93.246  1.00  0.00     0.103 A 
HETATM   10  C9  UNL     1      41.903   3.587  92.896  1.00  0.00     0.032 A 
HETATM   11  C10 UNL     1      40.662   3.022  93.105  1.00  0.00     0.092 A 
HETATM   12  C11 UNL     1      39.671   3.512  94.004  1.00  0.00     0.103 C 
HETATM   13  N3  UNL     1      38.847   3.908  94.724  1.00  0.00    -0.191 NA
ENDROOT
BRANCH   1  14
HETATM   14  S1  UNL     1      39.070   0.837  92.242  1.00  0.00    -0.107 SA
BRANCH  14  15
HETATM   15  C3  UNL     1      39.359  -0.631  91.284  1.00  0.00     0.107 C 
BRANCH  15  16
HETATM   16  C2  UNL     1      39.686  -1.778  92.154  1.00  0.00    -0.026 C 
HETATM   17  C1  UNL     1      40.923  -2.209  92.336  1.00  0.00     0.007 C 
ENDBRANCH  15  16
ENDBRANCH  14  15
ENDBRANCH   1  14
TORSDOF 3
ENDMDL
MODEL 2
REMARK VINA RESULT: -7.457609608      2.299      4.109
REMARK  3 active torsions:
REMARK  status: ('A' for Active; 'I' for Inactive)
REMARK    1  A    between atoms: C2_2  and  C3_3 
REMARK    2  A    between atoms: C3_3  and  S1_4 
REMARK    3  A    between atoms: S1_4  and  C4_5 
ROOT
HETATM    1  C4  UNL     1      42.452  -0.177  91.338  1.00  0.00     0.092 A 
HETATM    2  N1  UNL     1      42.104   0.847  92.137  1.00  0.00    -0.347 N 
ATOM      3  H1  UNL     1      41.327   0.830  92.798  1.00  0.00     0.167 HD
HETATM    4  C5  UNL     1      42.921   1.898  91.945  1.00  0.00     0.068 A 
HETATM    5  C6  UNL     1      43.234   3.193  92.307  1.00  0.00     0.033 A 
HETATM    6  C7  UNL     1      42.521   4.020  93.323  1.00  0.00     0.070 C 
HETATM    7  N2  UNL     1      44.289   3.622  91.609  1.00  0.00    -0.367 N 
ATOM      8  H2  UNL     1      44.715   4.545  91.692  1.00  0.00     0.165 HD
HETATM    9  C8  UNL     1      44.701   2.646  90.779  1.00  0.00     0.103 A 
HETATM   10  C9  UNL     1      43.847   1.557  90.984  1.00  0.00     0.032 A 
HETATM   11  C10 UNL     1      43.541   0.263  90.617  1.00  0.00     0.092 A 
HETATM   12  C11 UNL     1      44.238  -0.507  89.642  1.00  0.00     0.103 C 
HETATM   13  N3  UNL     1      44.807  -1.153  88.858  1.00  0.00    -0.191 NA
ENDROOT
BRANCH   1  14
HETATM   14  S1  UNL     1      41.687  -1.805  91.201  1.00  0.00    -0.107 SA
BRANCH  14  15
HETATM   15  C3  UNL     1      40.353  -2.020  92.354  1.00  0.00     0.107 C 
BRANCH  15  16
HETATM   16  C2  UNL     1      39.177  -1.220  91.963  1.00  0.00    -0.026 C 
HETATM   17  C1  UNL     1      39.014  -0.736  90.742  1.00  0.00     0.007 C 
ENDBRANCH  15  16
ENDBRANCH  14  15
ENDBRANCH   1  14
TORSDOF 3
ENDMDL
MODEL 3
REMARK VINA RESULT: -7.317022060      3.946      6.554
REMARK  3 active torsions:
REMARK  status: ('A' for Active; 'I' for Inactive)
REMARK    1  A    between atoms: C2_2  and  C3_3 
REMARK    2  A    between atoms: C3_3  and  S1_4 
REMARK    3  A    between atoms: S1_4  and  C4_5 
ROOT
HETATM    1  C4  UNL     1      43.155  -0.481  90.204  1.00  0.00     0.092 A 
HETATM    2  N1  UNL     1      41.890  -0.028  90.134  1.00  0.00    -0.347 N 
ATOM      3  H1  UNL     1      41.585   0.753  89.553  1.00  0.00     0.167 HD
HETATM    4  C5  UNL     1      41.083  -0.747  90.934  1.00  0.00     0.068 A 
HETATM    5  C6  UNL     1      39.799  -0.932  91.404  1.00  0.00     0.033 A 
HETATM    6  C7  UNL     1      38.598  -0.132  91.027  1.00  0.00     0.070 C 
HETATM    7  N2  UNL     1      39.768  -1.953  92.266  1.00  0.00    -0.367 N 
ATOM      8  H2  UNL     1      38.937  -2.290  92.751  1.00  0.00     0.165 HD
HETATM    9  C8  UNL     1      41.006  -2.466  92.392  1.00  0.00     0.103 A 
HETATM   10  C9  UNL     1      41.840  -1.714  91.558  1.00  0.00     0.032 A 
HETATM   11  C10 UNL     1      43.126  -1.535  91.093  1.00  0.00     0.092 A 
HETATM   12  C11 UNL     1      44.258  -2.314  91.468  1.00  0.00     0.103 C 
HETATM   13  N3  UNL     1      45.188  -2.951  91.756  1.00  0.00    -0.191 NA
ENDROOT
BRANCH   1  14
HETATM   14  S1  UNL     1      44.616   0.127  89.339  1.00  0.00    -0.107 SA
BRANCH  14  15
HETATM   15  C3  UNL     1      44.736   1.900  89.385  1.00  0.00     0.107 C 
BRANCH  15  16
HETATM   16  C2  UNL     1      45.713   2.340  90.399  1.00  0.00    -0.026 C 
HETATM   17  C1  UNL     1      46.997   2.027  90.340  1.00  0.00     0.007 C 
ENDBRANCH  15  16
ENDBRANCH  14  15
ENDBRANCH   1  14
TORSDOF 3
ENDMDL
MODEL 4
REMARK VINA RESULT: -7.291141712      2.094      3.880
REMARK  3 active torsions:
REMARK  status: ('A' for Active; 'I' for Inactive)
REMARK    1  A    between atoms: C2_2  and  C3_3 
REMARK    2  A    between atoms: C3_3  and  S1_4 
REMARK    3  A    between atoms: S1_4  and  C4_5 
ROOT
HETATM    1  C4  UNL     1      42.856   0.250  92.006  1.00  0.00     0.092 A 
HETATM    2  N1  UNL     1      42.160   1.057  92.827  1.00  0.00    -0.347 N 
ATOM      3  H1  UNL     1      41.421   0.746  93.457  1.00  0.00     0.167 HD
HETATM    4  C5  UNL     1      42.573   2.331  92.703  1.00  0.00     0.068 A 
HETATM    5  C6  UNL     1      42.415   3.636  93.122  1.00  0.00     0.033 A 
HETATM    6  C7  UNL     1      41.440   4.123  94.140  1.00  0.00     0.070 C 
HETATM    7  N2  UNL     1      43.276   4.431  92.480  1.00  0.00    -0.367 N 
ATOM      8  H2  UNL     1      43.359   5.439  92.612  1.00  0.00     0.165 HD
HETATM    9  C8  UNL     1      44.016   3.694  91.632  1.00  0.00     0.103 A 
HETATM   10  C9  UNL     1      43.582   2.371  91.766  1.00  0.00     0.032 A 
HETATM   11  C10 UNL     1      43.745   1.068  91.342  1.00  0.00     0.092 A 
HETATM   12  C11 UNL     1      44.686   0.627  90.368  1.00  0.00     0.103 C 
HETATM   13  N3  UNL     1      45.459   0.251  89.583  1.00  0.00    -0.191 NA
ENDROOT
BRANCH   1  14
HETATM   14  S1  UNL     1      42.697  -1.533  91.783  1.00  0.00    -0.107 SA
BRANCH  14  15
HETATM   15  C3  UNL     1      41.108  -1.990  91.132  1.00  0.00     0.107 C 
BRANCH  15  16
HETATM   16  C2  UNL     1      40.054  -1.845  92.154  1.00  0.00    -0.026 C 
HETATM   17  C1  UNL     1      39.005  -1.055  91.995  1.00  0.00     0.007 C 
ENDBRANCH  15  16
ENDBRANCH  14  15
ENDBRANCH   1  14
TORSDOF 3
ENDMDL
MODEL 5
REMARK VINA RESULT: -7.220580840      2.408      5.270
REMARK  3 active torsions:
REMARK  status: ('A' for Active; 'I' for Inactive)
REMARK    1  A    between atoms: C2_2  and  C3_3 
REMARK    2  A    between atoms: C3_3  and  S1_4 
REMARK    3  A    between atoms: S1_4  and  C4_5 
ROOT
HETATM    1  C4  UNL     1      41.303   1.717  92.576  1.00  0.00     0.092 A 
HETATM    2  N1  UNL     1      41.971   0.554  92.675  1.00  0.00    -0.347 N 
ATOM      3  H1  UNL     1      42.969   0.473  92.874  1.00  0.00     0.167 HD
HETATM    4  C5  UNL     1      41.145  -0.488  92.475  1.00  0.00     0.068 A 
HETATM    5  C6  UNL     1      41.022  -1.861  92.407  1.00  0.00     0.033 A 
HETATM    6  C7  UNL     1      42.118  -2.854  92.597  1.00  0.00     0.070 C 
HETATM    7  N2  UNL     1      39.756  -2.195  92.142  1.00  0.00    -0.367 N 
ATOM      8  H2  UNL     1      39.406  -3.148  92.042  1.00  0.00     0.165 HD
HETATM    9  C8  UNL     1      39.015  -1.078  92.028  1.00  0.00     0.103 A 
HETATM   10  C9  UNL     1      39.880   0.001  92.236  1.00  0.00     0.032 A 
HETATM   11  C10 UNL     1      39.995   1.374  92.303  1.00  0.00     0.092 A 
HETATM   12  C11 UNL     1      38.932   2.304  92.118  1.00  0.00     0.103 C 
HETATM   13  N3  UNL     1      38.070   3.074  91.982  1.00  0.00    -0.191 NA
ENDROOT
BRANCH   1  14
HETATM   14  S1  UNL     1      41.936   3.396  92.755  1.00  0.00    -0.107 SA
BRANCH  14  15
HETATM   15  C3  UNL     1      41.133   4.280  94.071  1.00  0.00     0.107 C 
BRANCH  15  16
HETATM   16  C2  UNL     1      42.072   5.197  94.745  1.00  0.00    -0.026 C 
HETATM   17  C1  UNL     1      43.370   5.207  94.491  1.00  0.00     0.007 C 
ENDBRANCH  15  16
ENDBRANCH  14  15
ENDBRANCH   1  14
TORSDOF 3
ENDMDL
