MODEL 1
REMARK VINA RESULT: -7.440046876      0.000      0.000
REMARK  3 active torsions:
REMARK  status: ('A' for Active; 'I' for Inactive)
REMARK    1  A    between atoms: C4_9  and  C5_10 
REMARK    2  A    between atoms: C5_10  and  C9_15 
REMARK    3  A    between atoms: C6_11  and  C7_12 
ROOT
HETATM    1  C7  UNL     1      41.548  -2.863  92.502  1.00  0.00     0.151 C 
HETATM    2  C8  UNL     1      42.843  -3.453  92.058  1.00  0.00     0.062 C 
HETATM    3  N3  UNL     1      43.839  -3.914  91.694  1.00  0.00    -0.197 NA
ENDROOT
BRANCH   1   4
HETATM    4  C6  UNL     1      41.783  -1.420  92.596  1.00  0.00    -0.003 C 
HETATM    5  C5  UNL     1      41.192  -0.369  92.204  1.00  0.00    -0.029 C 
BRANCH   5   6
HETATM    6  C4  UNL     1      41.764   0.967  92.520  1.00  0.00     0.063 A 
HETATM    7  C2  UNL     1      42.885   1.599  92.131  1.00  0.00     0.035 A 
HETATM    8  C1  UNL     1      44.024   1.068  91.369  1.00  0.00     0.070 C 
HETATM    9  N1  UNL     1      42.888   2.881  92.627  1.00  0.00    -0.335 N 
HETATM   10  C3  UNL     1      41.769   3.047  93.328  1.00  0.00     0.176 A 
ATOM     11  H1  UNL     1      43.618   3.579  92.484  1.00  0.00     0.168 HD
HETATM   12  S1  UNL     1      41.270   4.398  94.138  1.00  0.00    -0.041 SA
HETATM   13  N2  UNL     1      41.086   1.899  93.270  1.00  0.00    -0.331 N 
ATOM     14  H2  UNL     1      40.185   1.737  93.720  1.00  0.00     0.168 HD
ENDBRANCH   5   6
BRANCH   5  15
HETATM   15  C9  UNL     1      39.944  -0.308  91.450  1.00  0.00     0.012 C 
HETATM   16  C10 UNL     1      38.844  -1.140  92.161  1.00  0.00     0.015 C 
HETATM   17  C11 UNL     1      39.887  -0.675  90.034  1.00  0.00     0.015 C 
ENDBRANCH   5  15
ENDBRANCH   1   4
TORSDOF 3
ENDMDL
MODEL 2
REMARK VINA RESULT: -7.357993885      1.113      1.482
REMARK  3 active torsions:
REMARK  status: ('A' for Active; 'I' for Inactive)
REMARK    1  A    between atoms: C4_9  and  C5_10 
REMARK    2  A    between atoms: C5_10  and  C9_15 
REMARK    3  A    between atoms: C6_11  and  C7_12 
ROOT
HETATM    1  C7  UNL     1      43.072  -3.236  91.165  1.00  0.00     0.151 C 
HETATM    2  C8  UNL     1      44.437  -3.522  91.693  1.00  0.00     0.062 C 
HETATM    3  N3  UNL     1      45.504  -3.742  92.082  1.00  0.00    -0.197 NA
ENDROOT
BRANCH   1   4
HETATM    4  C6  UNL     1      42.782  -1.852  91.550  1.00  0.00    -0.003 C 
HETATM    5  C5  UNL     1      41.752  -1.115  91.604  1.00  0.00    -0.029 C 
BRANCH   5   6
HETATM    6  C4  UNL     1      41.868   0.290  92.079  1.00  0.00     0.063 A 
HETATM    7  C2  UNL     1      42.714   1.291  91.779  1.00  0.00     0.035 A 
HETATM    8  C1  UNL     1      43.943   1.249  90.976  1.00  0.00     0.070 C 
HETATM    9  N1  UNL     1      42.314   2.439  92.421  1.00  0.00    -0.335 N 
HETATM   10  C3  UNL     1      41.220   2.153  93.123  1.00  0.00     0.176 A 
ATOM     11  H1  UNL     1      42.774   3.348  92.368  1.00  0.00     0.168 HD
HETATM   12  S1  UNL     1      40.332   3.167  94.078  1.00  0.00    -0.041 SA
HETATM   13  N2  UNL     1      40.945   0.859  92.924  1.00  0.00    -0.331 N 
ATOM     14  H2  UNL     1      40.158   0.363  93.341  1.00  0.00     0.168 HD
ENDBRANCH   5   6
BRANCH   5  15
HETATM   15  C9  UNL     1      40.391  -1.502  91.248  1.00  0.00     0.012 C 
HETATM   16  C10 UNL     1      39.813  -0.527  90.189  1.00  0.00     0.015 C 
HETATM   17  C11 UNL     1      39.352  -1.668  92.266  1.00  0.00     0.015 C 
ENDBRANCH   5  15
ENDBRANCH   1   4
TORSDOF 3
ENDMDL
MODEL 3
REMARK VINA RESULT: -7.304728692      1.387      1.933
REMARK  3 active torsions:
REMARK  status: ('A' for Active; 'I' for Inactive)
REMARK    1  A    between atoms: C4_9  and  C5_10 
REMARK    2  A    between atoms: C5_10  and  C9_15 
REMARK    3  A    between atoms: C6_11  and  C7_12 
ROOT
HETATM    1  C7  UNL     1      41.473  -2.690  92.472  1.00  0.00     0.151 C 
HETATM    2  C8  UNL     1      42.826  -3.246  92.185  1.00  0.00     0.062 C 
HETATM    3  N3  UNL     1      43.869  -3.682  91.942  1.00  0.00    -0.197 NA
ENDROOT
BRANCH   1   4
HETATM    4  C6  UNL     1      41.626  -1.234  92.428  1.00  0.00    -0.003 C 
HETATM    5  C5  UNL     1      40.951  -0.256  91.986  1.00  0.00    -0.029 C 
BRANCH   5   6
HETATM    6  C4  UNL     1      41.460   1.133  92.150  1.00  0.00     0.063 A 
HETATM    7  C2  UNL     1      41.007   2.199  92.832  1.00  0.00     0.035 A 
HETATM    8  C1  UNL     1      39.721   2.374  93.520  1.00  0.00     0.070 C 
HETATM    9  N1  UNL     1      41.920   3.223  92.746  1.00  0.00    -0.335 N 
HETATM   10  C3  UNL     1      42.942   2.795  92.007  1.00  0.00     0.176 A 
ATOM     11  H1  UNL     1      41.831   4.145  93.171  1.00  0.00     0.168 HD
HETATM   12  S1  UNL     1      44.309   3.623  91.589  1.00  0.00    -0.041 SA
HETATM   13  N2  UNL     1      42.672   1.537  91.643  1.00  0.00    -0.331 N 
ATOM     14  H2  UNL     1      43.283   0.956  91.068  1.00  0.00     0.168 HD
ENDBRANCH   5   6
BRANCH   5  15
HETATM   15  C9  UNL     1      39.660  -0.330  91.310  1.00  0.00     0.012 C 
HETATM   16  C10 UNL     1      38.655  -1.155  92.156  1.00  0.00     0.015 C 
HETATM   17  C11 UNL     1      39.543  -0.823  89.936  1.00  0.00     0.015 C 
ENDBRANCH   5  15
ENDBRANCH   1   4
TORSDOF 3
ENDMDL
MODEL 4
REMARK VINA RESULT: -7.249433726      2.200      2.788
REMARK  3 active torsions:
REMARK  status: ('A' for Active; 'I' for Inactive)
REMARK    1  A    between atoms: C4_9  and  C5_10 
REMARK    2  A    between atoms: C5_10  and  C9_15 
REMARK    3  A    between atoms: C6_11  and  C7_12 
ROOT
HETATM    1  C7  UNL     1      42.885  -3.850  91.934  1.00  0.00     0.151 C 
HETATM    2  C8  UNL     1      43.628  -4.468  90.799  1.00  0.00     0.062 C 
HETATM    3  N3  UNL     1      44.185  -4.953  89.909  1.00  0.00    -0.197 NA
ENDROOT
BRANCH   1   4
HETATM    4  C6  UNL     1      42.953  -2.404  91.711  1.00  0.00    -0.003 C 
HETATM    5  C5  UNL     1      42.132  -1.485  91.413  1.00  0.00    -0.029 C 
BRANCH   5   6
HETATM    6  C4  UNL     1      42.605  -0.080  91.282  1.00  0.00     0.063 A 
HETATM    7  C2  UNL     1      42.453   1.013  92.050  1.00  0.00     0.035 A 
HETATM    8  C1  UNL     1      41.591   1.199  93.225  1.00  0.00     0.070 C 
HETATM    9  N1  UNL     1      43.194   2.047  91.532  1.00  0.00    -0.335 N 
HETATM   10  C3  UNL     1      43.807   1.599  90.438  1.00  0.00     0.176 A 
ATOM     11  H1  UNL     1      43.262   2.989  91.916  1.00  0.00     0.168 HD
HETATM   12  S1  UNL     1      44.819   2.429  89.430  1.00  0.00    -0.041 SA
HETATM   13  N2  UNL     1      43.457   0.319  90.280  1.00  0.00    -0.331 N 
ATOM     14  H2  UNL     1      43.778  -0.280  89.519  1.00  0.00     0.168 HD
ENDBRANCH   5   6
BRANCH   5  15
HETATM   15  C9  UNL     1      40.700  -1.645  91.183  1.00  0.00     0.012 C 
HETATM   16  C10 UNL     1      40.177  -0.524  90.247  1.00  0.00     0.015 C 
HETATM   17  C11 UNL     1      39.751  -1.730  92.294  1.00  0.00     0.015 C 
ENDBRANCH   5  15
ENDBRANCH   1   4
TORSDOF 3
ENDMDL
MODEL 5
REMARK VINA RESULT: -7.243468495      2.987      4.712
REMARK  3 active torsions:
REMARK  status: ('A' for Active; 'I' for Inactive)
REMARK    1  A    between atoms: C4_9  and  C5_10 
REMARK    2  A    between atoms: C5_10  and  C9_15 
REMARK    3  A    between atoms: C6_11  and  C7_12 
ROOT
HETATM    1  C7  UNL     1      39.059   2.847  92.531  1.00  0.00     0.151 C 
HETATM    2  C8  UNL     1      39.246   3.283  93.944  1.00  0.00     0.062 C 
HETATM    3  N3  UNL     1      39.377   3.606  95.047  1.00  0.00    -0.197 NA
ENDROOT
BRANCH   1   4
HETATM    4  C6  UNL     1      40.245   2.051  92.202  1.00  0.00    -0.003 C 
HETATM    5  C5  UNL     1      40.487   0.832  91.954  1.00  0.00    -0.029 C 
BRANCH   5   6
HETATM    6  C4  UNL     1      41.876   0.399  91.643  1.00  0.00     0.063 A 
HETATM    7  C2  UNL     1      42.964   0.190  92.406  1.00  0.00     0.035 A 
HETATM    8  C1  UNL     1      43.164   0.503  93.827  1.00  0.00     0.070 C 
HETATM    9  N1  UNL     1      43.979  -0.319  91.632  1.00  0.00    -0.335 N 
HETATM   10  C3  UNL     1      43.524  -0.426  90.384  1.00  0.00     0.176 A 
ATOM     11  H1  UNL     1      44.913  -0.571  91.955  1.00  0.00     0.168 HD
HETATM   12  S1  UNL     1      44.332  -0.980  89.054  1.00  0.00    -0.041 SA
HETATM   13  N2  UNL     1      42.259   0.006  90.382  1.00  0.00    -0.331 N 
ATOM     14  H2  UNL     1      41.659   0.038  89.557  1.00  0.00     0.168 HD
ENDBRANCH   5   6
BRANCH   5  15
HETATM   15  C9  UNL     1      39.515  -0.256  91.923  1.00  0.00     0.012 C 
HETATM   16  C10 UNL     1      40.179  -1.585  92.370  1.00  0.00     0.015 C 
HETATM   17  C11 UNL     1      38.749  -0.564  90.715  1.00  0.00     0.015 C 
ENDBRANCH   5  15
ENDBRANCH   1   4
TORSDOF 3
ENDMDL
