MODEL 1
REMARK VINA RESULT: -9.803072752      0.000      0.000
REMARK  9 active torsions:
REMARK  status: ('A' for Active; 'I' for Inactive)
REMARK    1  A    between atoms: N1_1  and  C1_5 
REMARK    2  A    between atoms: C1_5  and  C2_6 
REMARK    3  A    between atoms: C1_5  and  C13_27 
REMARK    4  A    between atoms: C7_13  and  N3_14 
REMARK    5  A    between atoms: N3_14  and  C8_16 
REMARK    6  A    between atoms: C8_16  and  C9_17 
REMARK    7  A    between atoms: C9_17  and  C10_18 
REMARK    8  A    between atoms: C10_18  and  C11_19 
REMARK    9  A    between atoms: C16_30  and  C17_31 
ROOT
HETATM    1  C2  UNL     1      27.920   1.498   4.622  1.00  0.00     0.057 A 
HETATM    2  C3  UNL     1      27.234   0.476   4.019  1.00  0.00     0.115 A 
HETATM    3  N2  UNL     1      25.960   0.658   3.566  1.00  0.00    -0.361 N 
ATOM      4  H2  UNL     1      25.470  -0.117   3.120  1.00  0.00     0.165 HD
HETATM    5  C4  UNL     1      25.340   1.844   3.699  1.00  0.00     0.076 A 
HETATM    6  C5  UNL     1      24.057   2.060   3.252  1.00  0.00     0.037 A 
HETATM    7  C6  UNL     1      23.457   3.304   3.412  1.00  0.00     0.050 A 
HETATM    8  C7  UNL     1      24.154   4.323   4.021  1.00  0.00     0.102 A 
HETATM    9  N4  UNL     1      25.406   4.096   4.450  1.00  0.00    -0.327 N 
ATOM     10  H4  UNL     1      25.919   4.854   4.899  1.00  0.00     0.169 HD
HETATM   11  C12 UNL     1      26.015   2.883   4.304  1.00  0.00     0.134 A 
HETATM   12  N5  UNL     1      27.270   2.678   4.741  1.00  0.00    -0.341 N 
ATOM     13  H5  UNL     1      27.758   3.455   5.187  1.00  0.00     0.167 HD
ENDROOT
BRANCH   1  14
HETATM   14  C1  UNL     1      29.331   1.378   5.130  1.00  0.00     0.238 C 
BRANCH  14  15
HETATM   15  N1  UNL     1      29.872   2.740   4.939  1.00  0.00    -0.069 N 
ATOM     16  H13 UNL     1      29.570   3.419   5.637  1.00  0.00     0.275 HD
ATOM     17  H12 UNL     1      30.870   2.832   5.131  1.00  0.00     0.275 HD
ATOM     18  H11 UNL     1      29.601   2.964   3.982  1.00  0.00     0.275 HD
ENDBRANCH  14  15
BRANCH  14  19
HETATM   19  C13 UNL     1      29.434   1.011   6.550  1.00  0.00     0.022 C 
HETATM   20  C14 UNL     1      30.520   0.052   6.890  1.00  0.00     0.008 C 
HETATM   21  C15 UNL     1      30.357  -0.403   8.325  1.00  0.00     0.014 C 
HETATM   22  C16 UNL     1      30.264   0.773   9.274  1.00  0.00     0.093 C 
HETATM   23  C18 UNL     1      29.378   1.876   8.804  1.00  0.00     0.014 C 
HETATM   24  C19 UNL     1      29.719   2.280   7.367  1.00  0.00     0.008 C 
BRANCH  22  25
HETATM   25  C17 UNL     1      29.690   0.232  10.578  1.00  0.00     0.391 C 
HETATM   26  F3  UNL     1      29.267  -1.068  10.300  1.00  0.00    -0.171 F 
HETATM   27  F4  UNL     1      30.692   0.117  11.521  1.00  0.00    -0.171 F 
HETATM   28  F5  UNL     1      28.662   1.016  11.038  1.00  0.00    -0.171 F 
ENDBRANCH  22  25
ENDBRANCH  14  19
ENDBRANCH   1  14
BRANCH   8  29
HETATM   29  N3  UNL     1      23.665   5.494   4.201  1.00  0.00    -0.376 N 
ATOM     30  H3  UNL     1      22.652   5.573   4.284  1.00  0.00     0.161 HD
BRANCH  29  31
HETATM   31  C8  UNL     1      24.434   6.704   4.296  1.00  0.00     0.121 C 
BRANCH  31  32
HETATM   32  C9  UNL     1      24.590   7.278   2.927  1.00  0.00     0.025 C 
BRANCH  32  33
HETATM   33  C10 UNL     1      26.000   7.193   2.438  1.00  0.00     0.073 C 
BRANCH  33  34
HETATM   34  C11 UNL     1      26.942   6.423   3.286  1.00  0.00     0.353 C 
HETATM   35  F1  UNL     1      27.627   5.427   2.600  1.00  0.00    -0.214 F 
HETATM   36  F2  UNL     1      27.814   7.146   4.042  1.00  0.00    -0.214 F 
ENDBRANCH  33  34
ENDBRANCH  32  33
ENDBRANCH  31  32
ENDBRANCH  29  31
ENDBRANCH   8  29
TORSDOF 9
ENDMDL
MODEL 2
REMARK VINA RESULT: -8.857716548      0.804      1.230
REMARK  9 active torsions:
REMARK  status: ('A' for Active; 'I' for Inactive)
REMARK    1  A    between atoms: N1_1  and  C1_5 
REMARK    2  A    between atoms: C1_5  and  C2_6 
REMARK    3  A    between atoms: C1_5  and  C13_27 
REMARK    4  A    between atoms: C7_13  and  N3_14 
REMARK    5  A    between atoms: N3_14  and  C8_16 
REMARK    6  A    between atoms: C8_16  and  C9_17 
REMARK    7  A    between atoms: C9_17  and  C10_18 
REMARK    8  A    between atoms: C10_18  and  C11_19 
REMARK    9  A    between atoms: C16_30  and  C17_31 
ROOT
HETATM    1  C2  UNL     1      28.613   1.342   4.568  1.00  0.00     0.057 A 
HETATM    2  C3  UNL     1      28.121   0.322   3.794  1.00  0.00     0.115 A 
HETATM    3  N2  UNL     1      26.849   0.367   3.303  1.00  0.00    -0.361 N 
ATOM      4  H2  UNL     1      26.505  -0.403   2.730  1.00  0.00     0.165 HD
HETATM    5  C4  UNL     1      26.042   1.410   3.563  1.00  0.00     0.076 A 
HETATM    6  C5  UNL     1      24.754   1.485   3.082  1.00  0.00     0.037 A 
HETATM    7  C6  UNL     1      23.956   2.584   3.378  1.00  0.00     0.050 A 
HETATM    8  C7  UNL     1      24.459   3.601   4.157  1.00  0.00     0.102 A 
HETATM    9  N4  UNL     1      25.718   3.513   4.618  1.00  0.00    -0.327 N 
ATOM     10  H4  UNL     1      26.086   4.270   5.193  1.00  0.00     0.169 HD
HETATM   11  C12 UNL     1      26.519   2.444   4.340  1.00  0.00     0.134 A 
HETATM   12  N5  UNL     1      27.777   2.377   4.812  1.00  0.00    -0.341 N 
ATOM     13  H5  UNL     1      28.118   3.149   5.385  1.00  0.00     0.167 HD
ENDROOT
BRANCH   1  14
HETATM   14  C1  UNL     1      30.008   1.372   5.130  1.00  0.00     0.238 C 
BRANCH  14  15
HETATM   15  N1  UNL     1      30.440   2.763   4.878  1.00  0.00    -0.069 N 
ATOM     16  H13 UNL     1      30.246   3.105   3.937  1.00  0.00     0.275 HD
ATOM     17  H12 UNL     1      29.890   3.473   5.362  1.00  0.00     0.275 HD
ATOM     18  H11 UNL     1      31.428   2.747   5.129  1.00  0.00     0.275 HD
ENDBRANCH  14  15
BRANCH  14  19
HETATM   19  C13 UNL     1      30.087   1.093   6.570  1.00  0.00     0.022 C 
HETATM   20  C14 UNL     1      29.349   2.038   7.452  1.00  0.00     0.008 C 
HETATM   21  C15 UNL     1      29.708   1.763   8.897  1.00  0.00     0.014 C 
HETATM   22  C16 UNL     1      29.499   0.307   9.254  1.00  0.00     0.093 C 
HETATM   23  C18 UNL     1      29.998  -0.657   8.233  1.00  0.00     0.014 C 
HETATM   24  C19 UNL     1      29.483  -0.293   6.837  1.00  0.00     0.008 C 
BRANCH  22  25
HETATM   25  C17 UNL     1      30.271   0.064  10.546  1.00  0.00     0.391 C 
HETATM   26  F3  UNL     1      30.332  -1.320  10.702  1.00  0.00    -0.171 F 
HETATM   27  F4  UNL     1      31.576   0.493  10.403  1.00  0.00    -0.171 F 
HETATM   28  F5  UNL     1      29.663   0.673  11.616  1.00  0.00    -0.171 F 
ENDBRANCH  22  25
ENDBRANCH  14  19
ENDBRANCH   1  14
BRANCH   8  29
HETATM   29  N3  UNL     1      23.782   4.644   4.469  1.00  0.00    -0.376 N 
ATOM     30  H3  UNL     1      23.319   4.648   5.378  1.00  0.00     0.161 HD
BRANCH  29  31
HETATM   31  C8  UNL     1      23.625   5.806   3.640  1.00  0.00     0.121 C 
BRANCH  31  32
HETATM   32  C9  UNL     1      24.712   6.775   3.969  1.00  0.00     0.025 C 
BRANCH  32  33
HETATM   33  C10 UNL     1      25.824   6.733   2.971  1.00  0.00     0.073 C 
BRANCH  33  34
HETATM   34  C11 UNL     1      27.141   6.275   3.476  1.00  0.00     0.353 C 
HETATM   35  F1  UNL     1      27.914   5.629   2.518  1.00  0.00    -0.214 F 
HETATM   36  F2  UNL     1      27.897   7.195   4.136  1.00  0.00    -0.214 F 
ENDBRANCH  33  34
ENDBRANCH  32  33
ENDBRANCH  31  32
ENDBRANCH  29  31
ENDBRANCH   8  29
TORSDOF 9
ENDMDL
MODEL 3
REMARK VINA RESULT: -8.726422392      2.681      8.497
REMARK  9 active torsions:
REMARK  status: ('A' for Active; 'I' for Inactive)
REMARK    1  A    between atoms: N1_1  and  C1_5 
REMARK    2  A    between atoms: C1_5  and  C2_6 
REMARK    3  A    between atoms: C1_5  and  C13_27 
REMARK    4  A    between atoms: C7_13  and  N3_14 
REMARK    5  A    between atoms: N3_14  and  C8_16 
REMARK    6  A    between atoms: C8_16  and  C9_17 
REMARK    7  A    between atoms: C9_17  and  C10_18 
REMARK    8  A    between atoms: C10_18  and  C11_19 
REMARK    9  A    between atoms: C16_30  and  C17_31 
ROOT
HETATM    1  C2  UNL     1      28.985   1.518   4.123  1.00  0.00     0.057 A 
HETATM    2  C3  UNL     1      30.019   0.626   3.999  1.00  0.00     0.115 A 
HETATM    3  N2  UNL     1      30.630   0.104   5.103  1.00  0.00    -0.361 N 
ATOM      4  H2  UNL     1      31.396  -0.558   4.986  1.00  0.00     0.165 HD
HETATM    5  C4  UNL     1      30.237   0.449   6.341  1.00  0.00     0.076 A 
HETATM    6  C5  UNL     1      30.833  -0.059   7.473  1.00  0.00     0.037 A 
HETATM    7  C6  UNL     1      30.392   0.328   8.733  1.00  0.00     0.050 A 
HETATM    8  C7  UNL     1      29.355   1.226   8.846  1.00  0.00     0.102 A 
HETATM    9  N4  UNL     1      28.785   1.712   7.732  1.00  0.00    -0.327 N 
ATOM     10  H4  UNL     1      28.016   2.376   7.821  1.00  0.00     0.169 HD
HETATM   11  C12 UNL     1      29.200   1.347   6.484  1.00  0.00     0.134 A 
HETATM   12  N5  UNL     1      28.614   1.846   5.382  1.00  0.00    -0.341 N 
ATOM     13  H5  UNL     1      27.847   2.508   5.502  1.00  0.00     0.167 HD
ENDROOT
BRANCH   1  14
HETATM   14  C1  UNL     1      28.252   2.122   2.957  1.00  0.00     0.238 C 
BRANCH  14  15
HETATM   15  N1  UNL     1      27.899   0.943   2.138  1.00  0.00    -0.069 N 
ATOM     16  H13 UNL     1      27.427   1.162   1.260  1.00  0.00     0.275 HD
ATOM     17  H12 UNL     1      28.695   0.468   1.711  1.00  0.00     0.275 HD
ATOM     18  H11 UNL     1      27.356   0.369   2.781  1.00  0.00     0.275 HD
ENDBRANCH  14  15
BRANCH  14  19
HETATM   19  C13 UNL     1      27.025   2.844   3.320  1.00  0.00     0.022 C 
HETATM   20  C14 UNL     1      26.902   4.223   2.774  1.00  0.00     0.008 C 
HETATM   21  C15 UNL     1      25.716   4.913   3.413  1.00  0.00     0.014 C 
HETATM   22  C16 UNL     1      24.453   4.089   3.277  1.00  0.00     0.093 C 
HETATM   23  C18 UNL     1      24.630   2.636   3.561  1.00  0.00     0.014 C 
HETATM   24  C19 UNL     1      25.817   2.065   2.780  1.00  0.00     0.008 C 
BRANCH  22  25
HETATM   25  C17 UNL     1      23.461   4.649   4.289  1.00  0.00     0.391 C 
HETATM   26  F3  UNL     1      23.730   6.014   4.376  1.00  0.00    -0.171 F 
HETATM   27  F4  UNL     1      22.175   4.540   3.798  1.00  0.00    -0.171 F 
HETATM   28  F5  UNL     1      23.581   4.026   5.507  1.00  0.00    -0.171 F 
ENDBRANCH  22  25
ENDBRANCH  14  19
ENDBRANCH   1  14
BRANCH   8  29
HETATM   29  N3  UNL     1      28.897   1.627   9.974  1.00  0.00    -0.376 N 
ATOM     30  H3  UNL     1      29.143   2.571  10.272  1.00  0.00     0.161 HD
BRANCH  29  31
HETATM   31  C8  UNL     1      28.064   0.852  10.850  1.00  0.00     0.121 C 
BRANCH  31  32
HETATM   32  C9  UNL     1      28.454   1.146  12.262  1.00  0.00     0.025 C 
BRANCH  32  33
HETATM   33  C10 UNL     1      29.311   0.068  12.845  1.00  0.00     0.073 C 
BRANCH  33  34
HETATM   34  C11 UNL     1      28.722  -0.703  13.966  1.00  0.00     0.353 C 
HETATM   35  F1  UNL     1      29.573  -0.844  15.056  1.00  0.00    -0.214 F 
HETATM   36  F2  UNL     1      27.487  -0.318  14.391  1.00  0.00    -0.214 F 
ENDBRANCH  33  34
ENDBRANCH  32  33
ENDBRANCH  31  32
ENDBRANCH  29  31
ENDBRANCH   8  29
TORSDOF 9
ENDMDL
MODEL 4
REMARK VINA RESULT: -8.547165616      1.913      7.965
REMARK  9 active torsions:
REMARK  status: ('A' for Active; 'I' for Inactive)
REMARK    1  A    between atoms: N1_1  and  C1_5 
REMARK    2  A    between atoms: C1_5  and  C2_6 
REMARK    3  A    between atoms: C1_5  and  C13_27 
REMARK    4  A    between atoms: C7_13  and  N3_14 
REMARK    5  A    between atoms: N3_14  and  C8_16 
REMARK    6  A    between atoms: C8_16  and  C9_17 
REMARK    7  A    between atoms: C9_17  and  C10_18 
REMARK    8  A    between atoms: C10_18  and  C11_19 
REMARK    9  A    between atoms: C16_30  and  C17_31 
ROOT
HETATM    1  C2  UNL     1      27.813   1.259   3.251  1.00  0.00     0.057 A 
HETATM    2  C3  UNL     1      28.733   0.286   2.953  1.00  0.00     0.115 A 
HETATM    3  N2  UNL     1      29.630  -0.140   3.889  1.00  0.00    -0.361 N 
ATOM      4  H2  UNL     1      30.304  -0.865   3.644  1.00  0.00     0.165 HD
HETATM    5  C4  UNL     1      29.639   0.381   5.128  1.00  0.00     0.076 A 
HETATM    6  C5  UNL     1      30.530  -0.027   6.094  1.00  0.00     0.037 A 
HETATM    7  C6  UNL     1      30.502   0.541   7.363  1.00  0.00     0.050 A 
HETATM    8  C7  UNL     1      29.576   1.518   7.650  1.00  0.00     0.102 A 
HETATM    9  N4  UNL     1      28.713   1.905   6.696  1.00  0.00    -0.327 N 
ATOM     10  H4  UNL     1      28.028   2.628   6.915  1.00  0.00     0.169 HD
HETATM   11  C12 UNL     1      28.722   1.361   5.445  1.00  0.00     0.134 A 
HETATM   12  N5  UNL     1      27.848   1.763   4.505  1.00  0.00    -0.341 N 
ATOM     13  H5  UNL     1      27.175   2.488   4.753  1.00  0.00     0.167 HD
ENDROOT
BRANCH   1  14
HETATM   14  C1  UNL     1      26.783   1.766   2.279  1.00  0.00     0.238 C 
BRANCH  14  15
HETATM   15  N1  UNL     1      25.704   0.762   2.380  1.00  0.00    -0.069 N 
ATOM     16  H13 UNL     1      25.885  -0.107   1.878  1.00  0.00     0.275 HD
ATOM     17  H12 UNL     1      25.608   0.332   3.300  1.00  0.00     0.275 HD
ATOM     18  H11 UNL     1      24.881   1.274   2.062  1.00  0.00     0.275 HD
ENDBRANCH  14  15
BRANCH  14  19
HETATM   19  C13 UNL     1      26.243   3.093   2.608  1.00  0.00     0.022 C 
HETATM   20  C14 UNL     1      25.446   3.172   3.862  1.00  0.00     0.008 C 
HETATM   21  C15 UNL     1      24.772   4.526   3.946  1.00  0.00     0.014 C 
HETATM   22  C16 UNL     1      25.769   5.653   3.784  1.00  0.00     0.093 C 
HETATM   23  C18 UNL     1      26.759   5.452   2.688  1.00  0.00     0.014 C 
HETATM   24  C19 UNL     1      27.413   4.071   2.788  1.00  0.00     0.008 C 
BRANCH  22  25
HETATM   25  C17 UNL     1      24.958   6.903   3.462  1.00  0.00     0.391 C 
HETATM   26  F3  UNL     1      23.727   6.451   2.988  1.00  0.00    -0.171 F 
HETATM   27  F4  UNL     1      24.690   7.603   4.622  1.00  0.00    -0.171 F 
HETATM   28  F5  UNL     1      25.601   7.695   2.542  1.00  0.00    -0.171 F 
ENDBRANCH  22  25
ENDBRANCH  14  19
ENDBRANCH   1  14
BRANCH   8  29
HETATM   29  N3  UNL     1      29.491   2.086   8.796  1.00  0.00    -0.376 N 
ATOM     30  H3  UNL     1      30.300   2.617   9.119  1.00  0.00     0.161 HD
BRANCH  29  31
HETATM   31  C8  UNL     1      28.346   2.033   9.661  1.00  0.00     0.121 C 
BRANCH  31  32
HETATM   32  C9  UNL     1      28.261   0.666  10.256  1.00  0.00     0.025 C 
BRANCH  32  33
HETATM   33  C10 UNL     1      29.257   0.467  11.352  1.00  0.00     0.073 C 
BRANCH  33  34
HETATM   34  C11 UNL     1      30.449  -0.348  11.015  1.00  0.00     0.353 C 
HETATM   35  F1  UNL     1      30.186  -1.384  10.127  1.00  0.00    -0.214 F 
HETATM   36  F2  UNL     1      31.561   0.330  10.618  1.00  0.00    -0.214 F 
ENDBRANCH  33  34
ENDBRANCH  32  33
ENDBRANCH  31  32
ENDBRANCH  29  31
ENDBRANCH   8  29
TORSDOF 9
ENDMDL
MODEL 5
REMARK VINA RESULT: -8.491756371      3.047      8.789
REMARK  9 active torsions:
REMARK  status: ('A' for Active; 'I' for Inactive)
REMARK    1  A    between atoms: N1_1  and  C1_5 
REMARK    2  A    between atoms: C1_5  and  C2_6 
REMARK    3  A    between atoms: C1_5  and  C13_27 
REMARK    4  A    between atoms: C7_13  and  N3_14 
REMARK    5  A    between atoms: N3_14  and  C8_16 
REMARK    6  A    between atoms: C8_16  and  C9_17 
REMARK    7  A    between atoms: C9_17  and  C10_18 
REMARK    8  A    between atoms: C10_18  and  C11_19 
REMARK    9  A    between atoms: C16_30  and  C17_31 
ROOT
HETATM    1  C2  UNL     1      29.377   1.824   5.398  1.00  0.00     0.057 A 
HETATM    2  C3  UNL     1      30.077   0.650   5.281  1.00  0.00     0.115 A 
HETATM    3  N2  UNL     1      30.313  -0.137   6.370  1.00  0.00    -0.361 N 
ATOM      4  H2  UNL     1      30.836  -1.005   6.258  1.00  0.00     0.165 HD
HETATM    5  C4  UNL     1      29.867   0.214   7.589  1.00  0.00     0.076 A 
HETATM    6  C5  UNL     1      30.088  -0.558   8.706  1.00  0.00     0.037 A 
HETATM    7  C6  UNL     1      29.607  -0.153   9.947  1.00  0.00     0.050 A 
HETATM    8  C7  UNL     1      28.908   1.027  10.054  1.00  0.00     0.102 A 
HETATM    9  N4  UNL     1      28.700   1.769   8.953  1.00  0.00    -0.327 N 
ATOM     10  H4  UNL     1      28.180   2.642   9.037  1.00  0.00     0.169 HD
HETATM   11  C12 UNL     1      29.163   1.392   7.726  1.00  0.00     0.134 A 
HETATM   12  N5  UNL     1      28.943   2.150   6.637  1.00  0.00    -0.341 N 
ATOM     13  H5  UNL     1      28.420   3.018   6.752  1.00  0.00     0.167 HD
ENDROOT
BRANCH   1  14
HETATM   14  C1  UNL     1      29.064   2.734   4.243  1.00  0.00     0.238 C 
BRANCH  14  15
HETATM   15  N1  UNL     1      29.258   1.860   3.066  1.00  0.00    -0.069 N 
ATOM     16  H13 UNL     1      29.763   2.294   2.294  1.00  0.00     0.275 HD
ATOM     17  H12 UNL     1      29.920   1.097   3.208  1.00  0.00     0.275 HD
ATOM     18  H11 UNL     1      28.309   1.563   2.840  1.00  0.00     0.275 HD
ENDBRANCH  14  15
BRANCH  14  19
HETATM   19  C13 UNL     1      27.689   3.255   4.238  1.00  0.00     0.022 C 
HETATM   20  C14 UNL     1      27.479   4.513   3.471  1.00  0.00     0.008 C 
HETATM   21  C15 UNL     1      26.088   5.043   3.746  1.00  0.00     0.014 C 
HETATM   22  C16 UNL     1      25.031   3.990   3.490  1.00  0.00     0.093 C 
HETATM   23  C18 UNL     1      25.363   2.638   4.024  1.00  0.00     0.014 C 
HETATM   24  C19 UNL     1      26.769   2.208   3.593  1.00  0.00     0.008 C 
BRANCH  22  25
HETATM   25  C17 UNL     1      23.763   4.472   4.185  1.00  0.00     0.391 C 
HETATM   26  F3  UNL     1      23.787   3.910   5.461  1.00  0.00    -0.171 F 
HETATM   27  F4  UNL     1      23.817   5.840   4.366  1.00  0.00    -0.171 F 
HETATM   28  F5  UNL     1      22.639   4.108   3.487  1.00  0.00    -0.171 F 
ENDBRANCH  22  25
ENDBRANCH  14  19
ENDBRANCH   1  14
BRANCH   8  29
HETATM   29  N3  UNL     1      28.436   1.463  11.163  1.00  0.00    -0.376 N 
ATOM     30  H3  UNL     1      28.287   2.468  11.248  1.00  0.00     0.161 HD
BRANCH  29  31
HETATM   31  C8  UNL     1      28.099   0.645  12.295  1.00  0.00     0.121 C 
BRANCH  31  32
HETATM   32  C9  UNL     1      29.266   0.615  13.225  1.00  0.00     0.025 C 
BRANCH  32  33
HETATM   33  C10 UNL     1      29.398  -0.701  13.921  1.00  0.00     0.073 C 
BRANCH  33  34
HETATM   34  C11 UNL     1      28.311  -1.056  14.865  1.00  0.00     0.353 C 
HETATM   35  F1  UNL     1      27.733  -2.294  14.614  1.00  0.00    -0.214 F 
HETATM   36  F2  UNL     1      28.591  -0.937  16.192  1.00  0.00    -0.214 F 
ENDBRANCH  33  34
ENDBRANCH  32  33
ENDBRANCH  31  32
ENDBRANCH  29  31
ENDBRANCH   8  29
TORSDOF 9
ENDMDL
