MODEL 1
REMARK VINA RESULT: -9.760367858      0.000      0.000
REMARK  5 active torsions:
REMARK  status: ('A' for Active; 'I' for Inactive)
REMARK    1  A    between atoms: C5_8  and  C6_9 
REMARK    2  A    between atoms: C6_9  and  C7_10 
REMARK    3  A    between atoms: C7_10  and  N3_11 
REMARK    4  A    between atoms: N3_11  and  C8_13 
REMARK    5  A    between atoms: C17_26  and  C18_27 
ROOT
HETATM    1  N1  UNL     1      28.118   5.497   4.139  1.00  0.00    -0.087 NA
HETATM    2  C1  UNL     1      27.544   4.228   3.764  1.00  0.00     0.096 C 
HETATM    3  N2  UNL     1      27.875   3.069   4.184  1.00  0.00    -0.350 N 
ATOM      4  H2  UNL     1      28.618   2.900   4.862  1.00  0.00     0.163 HD
HETATM    5  C2  UNL     1      27.068   2.013   3.581  1.00  0.00     0.139 C 
HETATM    6  C3  UNL     1      27.696   1.482   2.313  1.00  0.00     0.062 C 
HETATM    7  C4  UNL     1      28.969   0.767   2.629  1.00  0.00     0.011 C 
HETATM    8  C5  UNL     1      28.808  -0.105   3.864  1.00  0.00     0.011 C 
HETATM    9  C14 UNL     1      28.031   0.562   4.962  1.00  0.00     0.175 C 
HETATM   10  O1  UNL     1      26.817   1.016   4.491  1.00  0.00    -0.360 OA
HETATM   11  C15 UNL     1      25.817   2.777   3.171  1.00  0.00     0.053 C 
HETATM   12  C16 UNL     1      24.966   3.157   4.347  1.00  0.00     0.020 C 
HETATM   13  C17 UNL     1      24.673   4.621   4.254  1.00  0.00     0.052 C 
HETATM   14  C19 UNL     1      25.368   5.132   2.996  1.00  0.00     0.022 C 
HETATM   15  C20 UNL     1      26.446   4.094   2.786  1.00  0.00     0.059 C 
ENDROOT
BRANCH   8  16
HETATM   16  C6  UNL     1      30.207  -0.452   4.346  1.00  0.00     0.026 C 
BRANCH  16  17
HETATM   17  C7  UNL     1      30.553   0.399   5.527  1.00  0.00     0.120 C 
BRANCH  17  18
HETATM   18  N3  UNL     1      30.572  -0.265   6.796  1.00  0.00    -0.385 N 
ATOM     19  H3  UNL     1      31.063  -1.156   6.871  1.00  0.00     0.159 HD
BRANCH  18  20
HETATM   20  C8  UNL     1      29.944   0.256   7.948  1.00  0.00     0.106 A 
HETATM   21  C9  UNL     1      29.725  -0.647   9.000  1.00  0.00     0.148 A 
HETATM   22  F1  UNL     1      30.137  -1.927   8.829  1.00  0.00    -0.203 F 
HETATM   23  C10 UNL     1      29.115  -0.272  10.168  1.00  0.00     0.087 A 
HETATM   24  C11 UNL     1      28.708   1.029  10.315  1.00  0.00     0.122 A 
HETATM   25  F2  UNL     1      28.108   1.440  11.443  1.00  0.00    -0.206 F 
HETATM   26  C12 UNL     1      28.915   1.926   9.296  1.00  0.00     0.087 A 
HETATM   27  C13 UNL     1      29.537   1.542   8.102  1.00  0.00     0.148 A 
HETATM   28  F3  UNL     1      29.697   2.475   7.141  1.00  0.00    -0.203 F 
ENDBRANCH  18  20
ENDBRANCH  17  18
ENDBRANCH  16  17
ENDBRANCH   8  16
BRANCH  13  29
HETATM   29  C18 UNL     1      23.188   4.897   4.062  1.00  0.00     0.357 C 
HETATM   30  F4  UNL     1      22.475   3.797   4.467  1.00  0.00    -0.214 F 
HETATM   31  F5  UNL     1      22.873   5.206   2.773  1.00  0.00    -0.214 F 
ENDBRANCH  13  29
TORSDOF 5
ENDMDL
MODEL 2
REMARK VINA RESULT: -9.518991770      0.122      1.526
REMARK  5 active torsions:
REMARK  status: ('A' for Active; 'I' for Inactive)
REMARK    1  A    between atoms: C5_8  and  C6_9 
REMARK    2  A    between atoms: C6_9  and  C7_10 
REMARK    3  A    between atoms: C7_10  and  N3_11 
REMARK    4  A    between atoms: N3_11  and  C8_13 
REMARK    5  A    between atoms: C17_26  and  C18_27 
ROOT
HETATM    1  N1  UNL     1      28.113   5.493   4.136  1.00  0.00    -0.087 NA
HETATM    2  C1  UNL     1      27.530   4.229   3.762  1.00  0.00     0.096 C 
HETATM    3  N2  UNL     1      27.856   3.067   4.178  1.00  0.00    -0.350 N 
ATOM      4  H2  UNL     1      28.601   2.893   4.852  1.00  0.00     0.163 HD
HETATM    5  C2  UNL     1      27.039   2.017   3.577  1.00  0.00     0.139 C 
HETATM    6  C3  UNL     1      27.658   1.485   2.305  1.00  0.00     0.062 C 
HETATM    7  C4  UNL     1      28.929   0.761   2.613  1.00  0.00     0.011 C 
HETATM    8  C5  UNL     1      28.769  -0.112   3.847  1.00  0.00     0.011 C 
HETATM    9  C14 UNL     1      28.002   0.557   4.950  1.00  0.00     0.175 C 
HETATM   10  O1  UNL     1      26.788   1.020   4.486  1.00  0.00    -0.360 OA
HETATM   11  C15 UNL     1      25.792   2.789   3.175  1.00  0.00     0.053 C 
HETATM   12  C16 UNL     1      24.948   3.172   4.357  1.00  0.00     0.020 C 
HETATM   13  C17 UNL     1      24.664   4.638   4.268  1.00  0.00     0.052 C 
HETATM   14  C19 UNL     1      25.355   5.147   3.007  1.00  0.00     0.022 C 
HETATM   15  C20 UNL     1      26.426   4.104   2.789  1.00  0.00     0.059 C 
ENDROOT
BRANCH   8  16
HETATM   16  C6  UNL     1      30.168  -0.468   4.321  1.00  0.00     0.026 C 
BRANCH  16  17
HETATM   17  C7  UNL     1      30.515   0.360   5.517  1.00  0.00     0.120 C 
BRANCH  17  18
HETATM   18  N3  UNL     1      30.658  -0.350   6.753  1.00  0.00    -0.385 N 
ATOM     19  H3  UNL     1      31.253  -1.179   6.772  1.00  0.00     0.159 HD
BRANCH  18  20
HETATM   20  C8  UNL     1      30.015   0.042   7.947  1.00  0.00     0.106 A 
HETATM   21  C9  UNL     1      29.629   1.390   8.032  1.00  0.00     0.148 A 
HETATM   22  F1  UNL     1      29.894   2.190   6.971  1.00  0.00    -0.203 F 
HETATM   23  C10 UNL     1      29.006   1.901   9.140  1.00  0.00     0.087 A 
HETATM   24  C11 UNL     1      28.750   1.069  10.200  1.00  0.00     0.122 A 
HETATM   25  F2  UNL     1      28.141   1.529  11.305  1.00  0.00    -0.206 F 
HETATM   26  C12 UNL     1      29.121  -0.251  10.133  1.00  0.00     0.087 A 
HETATM   27  C13 UNL     1      29.758  -0.774   9.001  1.00  0.00     0.148 A 
HETATM   28  F3  UNL     1      30.103  -2.077   9.012  1.00  0.00    -0.203 F 
ENDBRANCH  18  20
ENDBRANCH  17  18
ENDBRANCH  16  17
ENDBRANCH   8  16
BRANCH  13  29
HETATM   29  C18 UNL     1      23.179   4.923   4.084  1.00  0.00     0.357 C 
HETATM   30  F4  UNL     1      22.463   3.817   4.467  1.00  0.00    -0.214 F 
HETATM   31  F5  UNL     1      22.863   5.260   2.802  1.00  0.00    -0.214 F 
ENDBRANCH  13  29
TORSDOF 5
ENDMDL
MODEL 3
REMARK VINA RESULT: -8.838819294      0.898      1.842
REMARK  5 active torsions:
REMARK  status: ('A' for Active; 'I' for Inactive)
REMARK    1  A    between atoms: C5_8  and  C6_9 
REMARK    2  A    between atoms: C6_9  and  C7_10 
REMARK    3  A    between atoms: C7_10  and  N3_11 
REMARK    4  A    between atoms: N3_11  and  C8_13 
REMARK    5  A    between atoms: C17_26  and  C18_27 
ROOT
HETATM    1  N1  UNL     1      28.464   6.255   3.772  1.00  0.00    -0.087 NA
HETATM    2  C1  UNL     1      27.873   4.954   3.583  1.00  0.00     0.096 C 
HETATM    3  N2  UNL     1      28.170   3.869   4.186  1.00  0.00    -0.350 N 
ATOM      4  H2  UNL     1      28.892   3.795   4.902  1.00  0.00     0.163 HD
HETATM    5  C2  UNL     1      27.355   2.746   3.733  1.00  0.00     0.139 C 
HETATM    6  C3  UNL     1      28.003   2.013   2.581  1.00  0.00     0.062 C 
HETATM    7  C4  UNL     1      29.253   1.334   3.038  1.00  0.00     0.011 C 
HETATM    8  C5  UNL     1      29.044   0.668   4.389  1.00  0.00     0.011 C 
HETATM    9  C14 UNL     1      28.255   1.511   5.348  1.00  0.00     0.175 C 
HETATM   10  O1  UNL     1      27.062   1.906   4.780  1.00  0.00    -0.360 OA
HETATM   11  C15 UNL     1      26.132   3.457   3.176  1.00  0.00     0.053 C 
HETATM   12  C16 UNL     1      25.260   4.030   4.255  1.00  0.00     0.020 C 
HETATM   13  C17 UNL     1      25.000   5.466   3.928  1.00  0.00     0.052 C 
HETATM   14  C19 UNL     1      25.735   5.763   2.626  1.00  0.00     0.022 C 
HETATM   15  C20 UNL     1      26.797   4.688   2.608  1.00  0.00     0.059 C 
ENDROOT
BRANCH   8  16
HETATM   16  C6  UNL     1      30.424   0.377   4.956  1.00  0.00     0.026 C 
BRANCH  16  17
HETATM   17  C7  UNL     1      30.285  -0.386   6.236  1.00  0.00     0.120 C 
BRANCH  17  18
HETATM   18  N3  UNL     1      30.773   0.268   7.413  1.00  0.00    -0.385 N 
ATOM     19  H3  UNL     1      31.716   0.655   7.398  1.00  0.00     0.159 HD
BRANCH  18  20
HETATM   20  C8  UNL     1      30.009   0.403   8.593  1.00  0.00     0.106 A 
HETATM   21  C9  UNL     1      29.429   1.661   8.819  1.00  0.00     0.148 A 
HETATM   22  F1  UNL     1      29.639   2.628   7.893  1.00  0.00    -0.203 F 
HETATM   23  C10 UNL     1      28.674   1.927   9.931  1.00  0.00     0.087 A 
HETATM   24  C11 UNL     1      28.478   0.930  10.852  1.00  0.00     0.122 A 
HETATM   25  F2  UNL     1      27.744   1.147  11.956  1.00  0.00    -0.206 F 
HETATM   26  C12 UNL     1      29.038  -0.306  10.647  1.00  0.00     0.087 A 
HETATM   27  C13 UNL     1      29.810  -0.578   9.511  1.00  0.00     0.148 A 
HETATM   28  F3  UNL     1      30.338  -1.812   9.382  1.00  0.00    -0.203 F 
ENDBRANCH  18  20
ENDBRANCH  17  18
ENDBRANCH  16  17
ENDBRANCH   8  16
BRANCH  13  29
HETATM   29  C18 UNL     1      23.526   5.734   3.655  1.00  0.00     0.357 C 
HETATM   30  F4  UNL     1      23.212   6.993   4.102  1.00  0.00    -0.214 F 
HETATM   31  F5  UNL     1      22.707   4.815   4.240  1.00  0.00    -0.214 F 
ENDBRANCH  13  29
TORSDOF 5
ENDMDL
MODEL 4
REMARK VINA RESULT: -8.729760450      2.007      7.355
REMARK  5 active torsions:
REMARK  status: ('A' for Active; 'I' for Inactive)
REMARK    1  A    between atoms: C5_8  and  C6_9 
REMARK    2  A    between atoms: C6_9  and  C7_10 
REMARK    3  A    between atoms: C7_10  and  N3_11 
REMARK    4  A    between atoms: N3_11  and  C8_13 
REMARK    5  A    between atoms: C17_26  and  C18_27 
ROOT
HETATM    1  N1  UNL     1      28.790  -2.493   8.782  1.00  0.00    -0.087 NA
HETATM    2  C1  UNL     1      29.274  -1.182   8.430  1.00  0.00     0.096 C 
HETATM    3  N2  UNL     1      28.982  -0.495   7.394  1.00  0.00    -0.350 N 
ATOM      4  H2  UNL     1      28.343  -0.811   6.664  1.00  0.00     0.163 HD
HETATM    5  C2  UNL     1      29.667   0.793   7.375  1.00  0.00     0.139 C 
HETATM    6  C3  UNL     1      30.997   0.711   6.663  1.00  0.00     0.062 C 
HETATM    7  C4  UNL     1      30.787   0.442   5.208  1.00  0.00     0.011 C 
HETATM    8  C5  UNL     1      29.641   1.279   4.663  1.00  0.00     0.011 C 
HETATM    9  C14 UNL     1      28.463   1.346   5.589  1.00  0.00     0.175 C 
HETATM   10  O1  UNL     1      28.855   1.765   6.844  1.00  0.00    -0.360 OA
HETATM   11  C15 UNL     1      29.966   1.006   8.851  1.00  0.00     0.053 C 
HETATM   12  C16 UNL     1      28.736   1.342   9.644  1.00  0.00     0.020 C 
HETATM   13  C17 UNL     1      28.674   0.420  10.819  1.00  0.00     0.052 C 
HETATM   14  C19 UNL     1      29.892  -0.493  10.729  1.00  0.00     0.022 C 
HETATM   15  C20 UNL     1      30.233  -0.423   9.259  1.00  0.00     0.059 C 
ENDROOT
BRANCH   8  16
HETATM   16  C6  UNL     1      29.233   0.659   3.336  1.00  0.00     0.026 C 
BRANCH  16  17
HETATM   17  C7  UNL     1      27.743   0.544   3.278  1.00  0.00     0.120 C 
BRANCH  17  18
HETATM   18  N3  UNL     1      27.073   1.471   2.415  1.00  0.00    -0.385 N 
ATOM     19  H3  UNL     1      27.118   1.316   1.408  1.00  0.00     0.159 HD
BRANCH  18  20
HETATM   20  C8  UNL     1      26.355   2.589   2.892  1.00  0.00     0.106 A 
HETATM   21  C9  UNL     1      25.001   2.375   3.195  1.00  0.00     0.148 A 
HETATM   22  F1  UNL     1      24.503   1.128   3.015  1.00  0.00    -0.203 F 
HETATM   23  C10 UNL     1      24.190   3.379   3.656  1.00  0.00     0.087 A 
HETATM   24  C11 UNL     1      24.719   4.632   3.828  1.00  0.00     0.122 A 
HETATM   25  F2  UNL     1      23.960   5.644   4.279  1.00  0.00    -0.206 F 
HETATM   26  C12 UNL     1      26.042   4.858   3.538  1.00  0.00     0.087 A 
HETATM   27  C13 UNL     1      26.870   3.833   3.066  1.00  0.00     0.148 A 
HETATM   28  F3  UNL     1      28.156   4.131   2.791  1.00  0.00    -0.203 F 
ENDBRANCH  18  20
ENDBRANCH  17  18
ENDBRANCH  16  17
ENDBRANCH   8  16
BRANCH  13  29
HETATM   29  C18 UNL     1      28.800   1.167  12.141  1.00  0.00     0.357 C 
HETATM   30  F4  UNL     1      29.552   0.415  13.008  1.00  0.00    -0.214 F 
HETATM   31  F5  UNL     1      27.591   1.453  12.701  1.00  0.00    -0.214 F 
ENDBRANCH  13  29
TORSDOF 5
ENDMDL
MODEL 5
REMARK VINA RESULT: -8.668624675      2.011      7.421
REMARK  5 active torsions:
REMARK  status: ('A' for Active; 'I' for Inactive)
REMARK    1  A    between atoms: C5_8  and  C6_9 
REMARK    2  A    between atoms: C6_9  and  C7_10 
REMARK    3  A    between atoms: C7_10  and  N3_11 
REMARK    4  A    between atoms: N3_11  and  C8_13 
REMARK    5  A    between atoms: C17_26  and  C18_27 
ROOT
HETATM    1  N1  UNL     1      28.802  -2.490   8.722  1.00  0.00    -0.087 NA
HETATM    2  C1  UNL     1      29.284  -1.179   8.365  1.00  0.00     0.096 C 
HETATM    3  N2  UNL     1      28.982  -0.492   7.332  1.00  0.00    -0.350 N 
ATOM      4  H2  UNL     1      28.336  -0.808   6.608  1.00  0.00     0.163 HD
HETATM    5  C2  UNL     1      29.666   0.796   7.307  1.00  0.00     0.139 C 
HETATM    6  C3  UNL     1      30.990   0.714   6.582  1.00  0.00     0.062 C 
HETATM    7  C4  UNL     1      30.767   0.444   5.129  1.00  0.00     0.011 C 
HETATM    8  C5  UNL     1      29.617   1.282   4.594  1.00  0.00     0.011 C 
HETATM    9  C14 UNL     1      28.447   1.349   5.531  1.00  0.00     0.175 C 
HETATM   10  O1  UNL     1      28.850   1.768   6.782  1.00  0.00    -0.360 OA
HETATM   11  C15 UNL     1      29.979   1.009   8.780  1.00  0.00     0.053 C 
HETATM   12  C16 UNL     1      28.756   1.345   9.583  1.00  0.00     0.020 C 
HETATM   13  C17 UNL     1      28.705   0.423  10.759  1.00  0.00     0.052 C 
HETATM   14  C19 UNL     1      29.922  -0.490  10.658  1.00  0.00     0.022 C 
HETATM   15  C20 UNL     1      30.249  -0.420   9.185  1.00  0.00     0.059 C 
ENDROOT
BRANCH   8  16
HETATM   16  C6  UNL     1      29.197   0.662   3.271  1.00  0.00     0.026 C 
BRANCH  16  17
HETATM   17  C7  UNL     1      27.705   0.568   3.217  1.00  0.00     0.120 C 
BRANCH  17  18
HETATM   18  N3  UNL     1      27.045   1.515   2.369  1.00  0.00    -0.385 N 
ATOM     19  H3  UNL     1      27.173   1.436   1.360  1.00  0.00     0.159 HD
BRANCH  18  20
HETATM   20  C8  UNL     1      26.225   2.553   2.864  1.00  0.00     0.106 A 
HETATM   21  C9  UNL     1      26.847   3.797   3.058  1.00  0.00     0.148 A 
HETATM   22  F1  UNL     1      28.163   3.900   2.750  1.00  0.00    -0.203 F 
HETATM   23  C10 UNL     1      26.167   4.884   3.543  1.00  0.00     0.087 A 
HETATM   24  C11 UNL     1      24.837   4.751   3.846  1.00  0.00     0.122 A 
HETATM   25  F2  UNL     1      24.132   5.790   4.323  1.00  0.00    -0.206 F 
HETATM   26  C12 UNL     1      24.213   3.542   3.662  1.00  0.00     0.087 A 
HETATM   27  C13 UNL     1      24.908   2.431   3.167  1.00  0.00     0.148 A 
HETATM   28  F3  UNL     1      24.233   1.273   3.023  1.00  0.00    -0.203 F 
ENDBRANCH  18  20
ENDBRANCH  17  18
ENDBRANCH  16  17
ENDBRANCH   8  16
BRANCH  13  29
HETATM   29  C18 UNL     1      28.842   1.170  12.079  1.00  0.00     0.357 C 
HETATM   30  F4  UNL     1      29.554   0.393  12.959  1.00  0.00    -0.214 F 
HETATM   31  F5  UNL     1      27.639   1.504  12.623  1.00  0.00    -0.214 F 
ENDBRANCH  13  29
TORSDOF 5
ENDMDL
