MODEL 1
REMARK VINA RESULT: -8.040750465      0.000      0.000
REMARK  6 active torsions:
REMARK  status: ('A' for Active; 'I' for Inactive)
REMARK    1  A    between atoms: C3_4  and  S2_5 
REMARK    2  A    between atoms: S2_5  and  N1_8 
REMARK    3  A    between atoms: N1_8  and  C4_10 
REMARK       I    between atoms: N2_13  and  C7_14 
REMARK    4  A    between atoms: C7_14  and  C8_16 
REMARK    5  A    between atoms: C11_19  and  C12_20 
REMARK    6  A    between atoms: C12_20  and  N3_21 
ROOT
HETATM    1  C4  UNL     1      27.744   1.280   4.362  1.00  0.00     0.096 C 
HETATM    2  C5  UNL     1      27.931   2.082   5.602  1.00  0.00     0.045 C 
HETATM    3  C6  UNL     1      29.332   2.083   6.156  1.00  0.00     0.127 C 
HETATM    4  N2  UNL     1      29.727   0.709   6.333  1.00  0.00    -0.352 N 
HETATM    5  C7  UNL     1      30.215   0.292   7.588  1.00  0.00     0.224 C 
HETATM    6  O3  UNL     1      30.519  -0.951   7.690  1.00  0.00    -0.273 OA
HETATM    7  C15 UNL     1      29.617  -0.171   5.222  1.00  0.00     0.127 C 
HETATM    8  C16 UNL     1      28.448  -0.032   4.340  1.00  0.00     0.045 C 
ENDROOT
BRANCH   1   9
HETATM    9  N1  UNL     1      26.319   1.036   4.220  1.00  0.00    -0.310 N 
ATOM     10  H1  UNL     1      25.784   0.420   4.832  1.00  0.00     0.172 HD
BRANCH   9  11
HETATM   11  S2  UNL     1      25.635   1.904   2.905  1.00  0.00     0.266 S 
HETATM   12  O1  UNL     1      24.274   1.327   2.642  1.00  0.00    -0.200 OA
HETATM   13  O2  UNL     1      26.452   1.720   1.655  1.00  0.00    -0.200 OA
BRANCH  11  14
HETATM   14  C3  UNL     1      25.516   3.633   3.274  1.00  0.00     0.128 A 
HETATM   15  S1  UNL     1      24.141   4.542   3.691  1.00  0.00    -0.079 SA
HETATM   16  C2  UNL     1      24.863   6.073   3.878  1.00  0.00     0.002 A 
HETATM   17  C1  UNL     1      24.230   7.395   4.253  1.00  0.00     0.058 C 
HETATM   18  C19 UNL     1      26.184   5.824   3.605  1.00  0.00     0.054 A 
HETATM   19  C17 UNL     1      26.522   4.566   3.293  1.00  0.00    -0.009 A 
HETATM   20 CL1  UNL     1      27.362   7.173   3.678  1.00  0.00    -0.083 Cl
HETATM   21  C18 UNL     1      27.944   4.131   2.966  1.00  0.00     0.052 C 
ENDBRANCH  11  14
ENDBRANCH   9  11
ENDBRANCH   1   9
BRANCH   5  22
HETATM   22  C8  UNL     1      30.396   1.193   8.775  1.00  0.00     0.078 C 
HETATM   23  C9  UNL     1      29.073   1.793   9.192  1.00  0.00     0.014 C 
HETATM   24  C10 UNL     1      28.290   0.980  10.158  1.00  0.00     0.007 C 
HETATM   25  C11 UNL     1      29.143   0.897  11.432  1.00  0.00     0.011 C 
HETATM   26  C13 UNL     1      30.313   0.031  11.031  1.00  0.00     0.007 C 
HETATM   27  C14 UNL     1      31.124   0.541   9.904  1.00  0.00     0.014 C 
BRANCH  25  28
HETATM   28  C12 UNL     1      28.348   0.159  12.487  1.00  0.00     0.234 C 
BRANCH  28  29
HETATM   29  N3  UNL     1      29.120   0.160  13.722  1.00  0.00    -0.079 N 
ATOM     30  H33 UNL     1      28.919  -0.648  14.312  1.00  0.00     0.274 HD
ATOM     31  H32 UNL     1      30.111  -0.027  13.566  1.00  0.00     0.274 HD
ATOM     32  H31 UNL     1      28.957   1.047  14.198  1.00  0.00     0.274 HD
ENDBRANCH  28  29
ENDBRANCH  25  28
ENDBRANCH   5  22
TORSDOF 6
ENDMDL
MODEL 2
REMARK VINA RESULT: -7.655798443      1.104      1.491
REMARK  6 active torsions:
REMARK  status: ('A' for Active; 'I' for Inactive)
REMARK    1  A    between atoms: C3_4  and  S2_5 
REMARK    2  A    between atoms: S2_5  and  N1_8 
REMARK    3  A    between atoms: N1_8  and  C4_10 
REMARK       I    between atoms: N2_13  and  C7_14 
REMARK    4  A    between atoms: C7_14  and  C8_16 
REMARK    5  A    between atoms: C11_19  and  C12_20 
REMARK    6  A    between atoms: C12_20  and  N3_21 
ROOT
HETATM    1  C4  UNL     1      27.728   1.166   4.212  1.00  0.00     0.096 C 
HETATM    2  C5  UNL     1      27.900   2.003   5.431  1.00  0.00     0.045 C 
HETATM    3  C6  UNL     1      29.300   2.038   5.988  1.00  0.00     0.127 C 
HETATM    4  N2  UNL     1      29.713   0.675   6.202  1.00  0.00    -0.352 N 
HETATM    5  C7  UNL     1      30.203   0.298   7.469  1.00  0.00     0.224 C 
HETATM    6  O3  UNL     1      30.524  -0.938   7.604  1.00  0.00    -0.273 OA
HETATM    7  C15 UNL     1      29.618  -0.236   5.115  1.00  0.00     0.127 C 
HETATM    8  C16 UNL     1      28.450  -0.136   4.226  1.00  0.00     0.045 C 
ENDROOT
BRANCH   1   9
HETATM    9  N1  UNL     1      26.306   0.899   4.073  1.00  0.00    -0.310 N 
ATOM     10  H1  UNL     1      25.804   0.200   4.620  1.00  0.00     0.172 HD
BRANCH   9  11
HETATM   11  S2  UNL     1      25.568   1.893   2.883  1.00  0.00     0.266 S 
HETATM   12  O1  UNL     1      24.096   1.594   2.895  1.00  0.00    -0.200 OA
HETATM   13  O2  UNL     1      26.085   1.565   1.510  1.00  0.00    -0.200 OA
BRANCH  11  14
HETATM   14  C3  UNL     1      25.856   3.610   3.219  1.00  0.00     0.128 A 
HETATM   15  S1  UNL     1      27.313   4.483   3.132  1.00  0.00    -0.079 SA
HETATM   16  C2  UNL     1      26.746   6.021   3.593  1.00  0.00     0.002 A 
HETATM   17  C1  UNL     1      27.505   7.322   3.741  1.00  0.00     0.058 C 
HETATM   18  C19 UNL     1      25.408   5.803   3.805  1.00  0.00     0.054 A 
HETATM   19  C17 UNL     1      24.949   4.560   3.613  1.00  0.00    -0.009 A 
HETATM   20 CL1  UNL     1      24.369   7.170   4.320  1.00  0.00    -0.083 Cl
HETATM   21  C18 UNL     1      23.492   4.160   3.804  1.00  0.00     0.052 C 
ENDBRANCH  11  14
ENDBRANCH   9  11
ENDBRANCH   1   9
BRANCH   5  22
HETATM   22  C8  UNL     1      30.369   1.232   8.632  1.00  0.00     0.078 C 
HETATM   23  C9  UNL     1      29.021   1.687   9.143  1.00  0.00     0.014 C 
HETATM   24  C10 UNL     1      28.408   0.807  10.171  1.00  0.00     0.007 C 
HETATM   25  C11 UNL     1      29.356   0.841  11.378  1.00  0.00     0.011 C 
HETATM   26  C13 UNL     1      30.584   0.104  10.897  1.00  0.00     0.007 C 
HETATM   27  C14 UNL     1      31.246   0.684   9.708  1.00  0.00     0.014 C 
BRANCH  25  28
HETATM   28  C12 UNL     1      28.729   0.035  12.495  1.00  0.00     0.234 C 
BRANCH  28  29
HETATM   29  N3  UNL     1      27.656   0.827  13.079  1.00  0.00    -0.079 N 
ATOM     30  H33 UNL     1      27.463   1.679  12.551  1.00  0.00     0.274 HD
ATOM     31  H32 UNL     1      26.741   0.390  12.974  1.00  0.00     0.274 HD
ATOM     32  H31 UNL     1      27.893   1.014  14.054  1.00  0.00     0.274 HD
ENDBRANCH  28  29
ENDBRANCH  25  28
ENDBRANCH   5  22
TORSDOF 6
ENDMDL
MODEL 3
REMARK VINA RESULT: -7.574381021      1.653      1.997
REMARK  6 active torsions:
REMARK  status: ('A' for Active; 'I' for Inactive)
REMARK    1  A    between atoms: C3_4  and  S2_5 
REMARK    2  A    between atoms: S2_5  and  N1_8 
REMARK    3  A    between atoms: N1_8  and  C4_10 
REMARK       I    between atoms: N2_13  and  C7_14 
REMARK    4  A    between atoms: C7_14  and  C8_16 
REMARK    5  A    between atoms: C11_19  and  C12_20 
REMARK    6  A    between atoms: C12_20  and  N3_21 
ROOT
HETATM    1  C4  UNL     1      28.795   1.513   5.087  1.00  0.00     0.096 C 
HETATM    2  C5  UNL     1      28.868   2.264   6.371  1.00  0.00     0.045 C 
HETATM    3  C6  UNL     1      30.076   1.959   7.219  1.00  0.00     0.127 C 
HETATM    4  N2  UNL     1      30.114   0.533   7.420  1.00  0.00    -0.352 N 
HETATM    5  C7  UNL     1      30.205   0.029   8.734  1.00  0.00     0.224 C 
HETATM    6  O3  UNL     1      30.203  -1.250   8.847  1.00  0.00    -0.273 OA
HETATM    7  C15 UNL     1      30.067  -0.309   6.277  1.00  0.00     0.127 C 
HETATM    8  C16 UNL     1      29.185   0.078   5.165  1.00  0.00     0.045 C 
ENDROOT
BRANCH   1   9
HETATM    9  N1  UNL     1      27.419   1.588   4.625  1.00  0.00    -0.310 N 
ATOM     10  H1  UNL     1      26.638   1.127   5.090  1.00  0.00     0.172 HD
BRANCH   9  11
HETATM   11  S2  UNL     1      27.259   2.542   3.205  1.00  0.00     0.266 S 
HETATM   12  O1  UNL     1      26.867   1.621   2.085  1.00  0.00    -0.200 OA
HETATM   13  O2  UNL     1      28.571   3.175   2.830  1.00  0.00    -0.200 OA
BRANCH  11  14
HETATM   14  C3  UNL     1      26.041   3.811   3.423  1.00  0.00     0.128 A 
HETATM   15  S1  UNL     1      26.255   5.497   3.477  1.00  0.00    -0.079 SA
HETATM   16  C2  UNL     1      24.638   5.978   3.707  1.00  0.00     0.002 A 
HETATM   17  C1  UNL     1      24.059   7.368   3.848  1.00  0.00     0.058 C 
HETATM   18  C19 UNL     1      23.964   4.783   3.735  1.00  0.00     0.054 A 
HETATM   19  C17 UNL     1      24.687   3.665   3.589  1.00  0.00    -0.009 A 
HETATM   20 CL1  UNL     1      22.187   4.786   3.962  1.00  0.00    -0.083 Cl
HETATM   21  C18 UNL     1      24.087   2.266   3.596  1.00  0.00     0.052 C 
ENDBRANCH  11  14
ENDBRANCH   9  11
ENDBRANCH   1   9
BRANCH   5  22
HETATM   22  C8  UNL     1      30.307   0.877   9.968  1.00  0.00     0.078 C 
HETATM   23  C9  UNL     1      28.943   1.382  10.378  1.00  0.00     0.014 C 
HETATM   24  C10 UNL     1      28.183   0.480  11.280  1.00  0.00     0.007 C 
HETATM   25  C11 UNL     1      29.007   0.378  12.572  1.00  0.00     0.011 C 
HETATM   26  C13 UNL     1      30.233  -0.402  12.161  1.00  0.00     0.007 C 
HETATM   27  C14 UNL     1      31.042   0.208  11.083  1.00  0.00     0.014 C 
BRANCH  25  28
HETATM   28  C12 UNL     1      28.228  -0.455  13.567  1.00  0.00     0.234 C 
BRANCH  28  29
HETATM   29  N3  UNL     1      28.958  -0.457  14.827  1.00  0.00    -0.079 N 
ATOM     30  H33 UNL     1      29.840  -0.966  14.770  1.00  0.00     0.274 HD
ATOM     31  H32 UNL     1      29.343   0.458  15.061  1.00  0.00     0.274 HD
ATOM     32  H31 UNL     1      28.339  -0.820  15.552  1.00  0.00     0.274 HD
ENDBRANCH  28  29
ENDBRANCH  25  28
ENDBRANCH   5  22
TORSDOF 6
ENDMDL
MODEL 4
REMARK VINA RESULT: -7.004619048      1.403      1.594
REMARK  6 active torsions:
REMARK  status: ('A' for Active; 'I' for Inactive)
REMARK    1  A    between atoms: C3_4  and  S2_5 
REMARK    2  A    between atoms: S2_5  and  N1_8 
REMARK    3  A    between atoms: N1_8  and  C4_10 
REMARK       I    between atoms: N2_13  and  C7_14 
REMARK    4  A    between atoms: C7_14  and  C8_16 
REMARK    5  A    between atoms: C11_19  and  C12_20 
REMARK    6  A    between atoms: C12_20  and  N3_21 
ROOT
HETATM    1  C4  UNL     1      28.692   1.372   4.743  1.00  0.00     0.096 C 
HETATM    2  C5  UNL     1      28.727   2.162   6.004  1.00  0.00     0.045 C 
HETATM    3  C6  UNL     1      29.970   1.981   6.836  1.00  0.00     0.127 C 
HETATM    4  N2  UNL     1      30.128   0.569   7.074  1.00  0.00    -0.352 N 
HETATM    5  C7  UNL     1      30.284   0.111   8.399  1.00  0.00     0.224 C 
HETATM    6  O3  UNL     1      30.388  -1.160   8.546  1.00  0.00    -0.273 OA
HETATM    7  C15 UNL     1      30.130  -0.306   5.954  1.00  0.00     0.127 C 
HETATM    8  C16 UNL     1      29.200  -0.024   4.851  1.00  0.00     0.045 C 
ENDROOT
BRANCH   1   9
HETATM    9  N1  UNL     1      27.307   1.322   4.306  1.00  0.00    -0.310 N 
ATOM     10  H1  UNL     1      26.600   0.720   4.728  1.00  0.00     0.172 HD
BRANCH   9  11
HETATM   11  S2  UNL     1      26.996   2.391   2.999  1.00  0.00     0.266 S 
HETATM   12  O1  UNL     1      26.795   1.554   1.768  1.00  0.00    -0.200 OA
HETATM   13  O2  UNL     1      28.175   3.290   2.745  1.00  0.00    -0.200 OA
BRANCH  11  14
HETATM   14  C3  UNL     1      25.563   3.385   3.315  1.00  0.00     0.128 A 
HETATM   15  S1  UNL     1      23.942   2.897   3.480  1.00  0.00    -0.079 SA
HETATM   16  C2  UNL     1      23.220   4.413   3.761  1.00  0.00     0.002 A 
HETATM   17  C1  UNL     1      21.766   4.756   4.002  1.00  0.00     0.058 C 
HETATM   18  C19 UNL     1      24.288   5.274   3.718  1.00  0.00     0.054 A 
HETATM   19  C17 UNL     1      25.496   4.745   3.487  1.00  0.00    -0.009 A 
HETATM   20 CL1  UNL     1      24.009   7.027   3.967  1.00  0.00    -0.083 Cl
HETATM   21  C18 UNL     1      26.776   5.565   3.412  1.00  0.00     0.052 C 
ENDBRANCH  11  14
ENDBRANCH   9  11
ENDBRANCH   1   9
BRANCH   5  22
HETATM   22  C8  UNL     1      30.338   0.998   9.607  1.00  0.00     0.078 C 
HETATM   23  C9  UNL     1      28.948   1.446   9.998  1.00  0.00     0.014 C 
HETATM   24  C10 UNL     1      28.230   0.534  10.924  1.00  0.00     0.007 C 
HETATM   25  C11 UNL     1      29.052   0.511  12.221  1.00  0.00     0.011 C 
HETATM   26  C13 UNL     1      30.317  -0.218  11.837  1.00  0.00     0.007 C 
HETATM   27  C14 UNL     1      31.100   0.400  10.744  1.00  0.00     0.014 C 
BRANCH  25  28
HETATM   28  C12 UNL     1      28.311  -0.330  13.237  1.00  0.00     0.234 C 
BRANCH  28  29
HETATM   29  N3  UNL     1      29.059  -0.297  14.486  1.00  0.00    -0.079 N 
ATOM     30  H33 UNL     1      29.982  -0.724  14.403  1.00  0.00     0.274 HD
ATOM     31  H32 UNL     1      29.365   0.643  14.737  1.00  0.00     0.274 HD
ATOM     32  H31 UNL     1      28.488  -0.732  15.211  1.00  0.00     0.274 HD
ENDBRANCH  28  29
ENDBRANCH  25  28
ENDBRANCH   5  22
TORSDOF 6
ENDMDL
MODEL 5
REMARK VINA RESULT: -6.941314897      1.814      2.095
REMARK  6 active torsions:
REMARK  status: ('A' for Active; 'I' for Inactive)
REMARK    1  A    between atoms: C3_4  and  S2_5 
REMARK    2  A    between atoms: S2_5  and  N1_8 
REMARK    3  A    between atoms: N1_8  and  C4_10 
REMARK       I    between atoms: N2_13  and  C7_14 
REMARK    4  A    between atoms: C7_14  and  C8_16 
REMARK    5  A    between atoms: C11_19  and  C12_20 
REMARK    6  A    between atoms: C12_20  and  N3_21 
ROOT
HETATM    1  C4  UNL     1      29.364   1.749   3.524  1.00  0.00     0.096 C 
HETATM    2  C5  UNL     1      29.637   2.569   4.736  1.00  0.00     0.045 C 
HETATM    3  C6  UNL     1      30.612   1.960   5.711  1.00  0.00     0.127 C 
HETATM    4  N2  UNL     1      30.127   0.645   6.042  1.00  0.00    -0.352 N 
HETATM    5  C7  UNL     1      29.967   0.295   7.398  1.00  0.00     0.224 C 
HETATM    6  O3  UNL     1      29.501  -0.879   7.625  1.00  0.00    -0.273 OA
HETATM    7  C15 UNL     1      29.839  -0.253   4.979  1.00  0.00     0.127 C 
HETATM    8  C16 UNL     1      29.210   0.288   3.764  1.00  0.00     0.045 C 
ENDROOT
BRANCH   1   9
HETATM    9  N1  UNL     1      28.131   2.248   2.939  1.00  0.00    -0.310 N 
ATOM     10  H1  UNL     1      28.068   2.647   2.002  1.00  0.00     0.172 HD
BRANCH   9  11
HETATM   11  S2  UNL     1      26.792   2.091   4.002  1.00  0.00     0.266 S 
HETATM   12  O1  UNL     1      27.336   1.938   5.394  1.00  0.00    -0.200 OA
HETATM   13  O2  UNL     1      25.997   0.853   3.690  1.00  0.00    -0.200 OA
BRANCH  11  14
HETATM   14  C3  UNL     1      25.729   3.506   3.903  1.00  0.00     0.128 A 
HETATM   15  S1  UNL     1      26.150   5.151   3.802  1.00  0.00    -0.079 SA
HETATM   16  C2  UNL     1      24.592   5.836   3.745  1.00  0.00     0.002 A 
HETATM   17  C1  UNL     1      24.183   7.289   3.648  1.00  0.00     0.058 C 
HETATM   18  C19 UNL     1      23.772   4.737   3.807  1.00  0.00     0.054 A 
HETATM   19  C17 UNL     1      24.357   3.536   3.890  1.00  0.00    -0.009 A 
HETATM   20 CL1  UNL     1      21.995   4.969   3.777  1.00  0.00    -0.083 Cl
HETATM   21  C18 UNL     1      23.587   2.225   3.965  1.00  0.00     0.052 C 
ENDBRANCH  11  14
ENDBRANCH   9  11
ENDBRANCH   1   9
BRANCH   5  22
HETATM   22  C8  UNL     1      30.304   1.189   8.555  1.00  0.00     0.078 C 
HETATM   23  C9  UNL     1      29.048   1.787   9.147  1.00  0.00     0.014 C 
HETATM   24  C10 UNL     1      28.399   0.970  10.203  1.00  0.00     0.007 C 
HETATM   25  C11 UNL     1      29.412   0.879  11.353  1.00  0.00     0.011 C 
HETATM   26  C13 UNL     1      30.518   0.014  10.797  1.00  0.00     0.007 C 
HETATM   27  C14 UNL     1      31.174   0.530   9.575  1.00  0.00     0.014 C 
BRANCH  25  28
HETATM   28  C12 UNL     1      28.762   0.135  12.499  1.00  0.00     0.234 C 
BRANCH  28  29
HETATM   29  N3  UNL     1      27.643   0.933  12.981  1.00  0.00    -0.079 N 
ATOM     30  H33 UNL     1      27.941   1.733  13.539  1.00  0.00     0.274 HD
ATOM     31  H32 UNL     1      27.179   1.450  12.235  1.00  0.00     0.274 HD
ATOM     32  H31 UNL     1      27.007   0.315  13.486  1.00  0.00     0.274 HD
ENDBRANCH  28  29
ENDBRANCH  25  28
ENDBRANCH   5  22
TORSDOF 6
ENDMDL
