MODEL 1
REMARK VINA RESULT: -7.333656983      0.000      0.000
REMARK  9 active torsions:
REMARK  status: ('A' for Active; 'I' for Inactive)
REMARK    1  A    between atoms: N1_1  and  C1_5 
REMARK    2  A    between atoms: C4_8  and  C5_9 
REMARK    3  A    between atoms: C5_9  and  N2_10 
REMARK    4  A    between atoms: N2_10  and  C6_11 
REMARK    5  A    between atoms: N2_10  and  C16_33 
REMARK    6  A    between atoms: C7_14  and  C8_15 
REMARK    7  A    between atoms: C8_15  and  C9_16 
REMARK    8  A    between atoms: C9_16  and  C10_17 
REMARK    9  A    between atoms: C14_26  and  C15_27 
ROOT
HETATM    1  C6  UNL     1      28.448   1.979   4.269  1.00  0.00     0.681 A 
HETATM    2  N3  UNL     1      27.159   1.656   4.412  1.00  0.00    -0.195 N 
ATOM      3  H3  UNL     1      26.963   0.738   4.812  1.00  0.00     0.184 HD
HETATM    4  C7  UNL     1      26.110   2.396   4.093  1.00  0.00     0.030 A 
HETATM    5  C13 UNL     1      26.399   3.648   3.551  1.00  0.00     0.060 A 
HETATM    6  C14 UNL     1      27.706   4.028   3.387  1.00  0.00     0.134 A 
HETATM    7  N4  UNL     1      28.720   3.175   3.754  1.00  0.00    -0.186 N 
ATOM      8  H4  UNL     1      29.691   3.462   3.629  1.00  0.00     0.184 HD
ENDROOT
BRANCH   1   9
HETATM    9  N2  UNL     1      29.403   0.988   4.642  1.00  0.00    -0.209 N 
BRANCH   9  10
HETATM   10  C5  UNL     1      30.309   1.346   5.703  1.00  0.00     0.146 C 
BRANCH  10  11
HETATM   11  C4  UNL     1      29.874   1.053   7.081  1.00  0.00     0.004 C 
HETATM   12  C3  UNL     1      29.612   2.393   7.780  1.00  0.00     0.008 C 
HETATM   13  C2  UNL     1      28.573   2.140   8.863  1.00  0.00     0.033 C 
HETATM   14  C1  UNL     1      28.889   0.792   9.471  1.00  0.00     0.183 C 
HETATM   15  C20 UNL     1      30.351   0.445   9.399  1.00  0.00     0.033 C 
HETATM   16  C19 UNL     1      30.837   0.326   7.960  1.00  0.00     0.008 C 
BRANCH  14  17
HETATM   17  N1  UNL     1      28.571   0.920  10.895  1.00  0.00    -0.075 N 
ATOM     18  H13 UNL     1      27.604   1.188  11.076  1.00  0.00     0.274 HD
ATOM     19  H12 UNL     1      28.545   0.030  11.392  1.00  0.00     0.274 HD
ATOM     20  H11 UNL     1      29.255   1.578  11.269  1.00  0.00     0.274 HD
ENDBRANCH  14  17
ENDBRANCH  10  11
ENDBRANCH   9  10
BRANCH   9  21
HETATM   21  C16 UNL     1      29.260  -0.266   4.002  1.00  0.00     0.153 C 
HETATM   22  C17 UNL     1      29.376  -0.513   2.571  1.00  0.00     0.259 C 
HETATM   23  N5  UNL     1      30.772  -0.949   2.717  1.00  0.00    -0.071 N 
HETATM   24  C18 UNL     1      30.517  -1.148   4.117  1.00  0.00     0.259 C 
ATOM     25  H52 UNL     1      31.145  -1.704   2.142  1.00  0.00     0.277 HD
ATOM     26  H51 UNL     1      31.540  -0.354   2.406  1.00  0.00     0.277 HD
ENDBRANCH   9  21
ENDBRANCH   1   9
BRANCH   4  27
HETATM   27  C8  UNL     1      24.706   2.026   4.255  1.00  0.00     0.082 C 
BRANCH  27  28
HETATM   28  C9  UNL     1      23.774   3.029   4.851  1.00  0.00     0.133 A 
HETATM   29  C11 UNL     1      23.196   2.940   6.195  1.00  0.00     0.105 A 
HETATM   30  C12 UNL     1      24.288   3.935   5.927  1.00  0.00     0.261 A 
HETATM   31  F4  UNL     1      25.473   3.827   6.546  1.00  0.00    -0.205 F 
HETATM   32  F5  UNL     1      23.806   5.264   5.949  1.00  0.00    -0.205 F 
BRANCH  28  33
HETATM   33  C10 UNL     1      22.938   3.781   3.781  1.00  0.00     0.401 C 
HETATM   34  F1  UNL     1      23.537   4.929   3.386  1.00  0.00    -0.170 F 
HETATM   35  F2  UNL     1      22.854   2.935   2.670  1.00  0.00    -0.170 F 
HETATM   36  F3  UNL     1      21.682   4.041   4.256  1.00  0.00    -0.170 F 
ENDBRANCH  28  33
ENDBRANCH  27  28
ENDBRANCH   4  27
BRANCH   6  37
HETATM   37  C15 UNL     1      28.011   5.360   2.829  1.00  0.00     0.433 C 
HETATM   38  F6  UNL     1      28.729   6.120   3.734  1.00  0.00    -0.165 F 
HETATM   39  F7  UNL     1      28.709   5.342   1.656  1.00  0.00    -0.165 F 
HETATM   40  F8  UNL     1      26.815   6.019   2.626  1.00  0.00    -0.165 F 
ENDBRANCH   6  37
TORSDOF 9
ENDMDL
MODEL 2
REMARK VINA RESULT: -7.213315053      2.682      4.328
REMARK  9 active torsions:
REMARK  status: ('A' for Active; 'I' for Inactive)
REMARK    1  A    between atoms: N1_1  and  C1_5 
REMARK    2  A    between atoms: C4_8  and  C5_9 
REMARK    3  A    between atoms: C5_9  and  N2_10 
REMARK    4  A    between atoms: N2_10  and  C6_11 
REMARK    5  A    between atoms: N2_10  and  C16_33 
REMARK    6  A    between atoms: C7_14  and  C8_15 
REMARK    7  A    between atoms: C8_15  and  C9_16 
REMARK    8  A    between atoms: C9_16  and  C10_17 
REMARK    9  A    between atoms: C14_26  and  C15_27 
ROOT
HETATM    1  C6  UNL     1      29.244   0.867   5.971  1.00  0.00     0.681 A 
HETATM    2  N3  UNL     1      27.926   1.040   5.832  1.00  0.00    -0.195 N 
ATOM      3  H3  UNL     1      27.467   1.620   6.535  1.00  0.00     0.184 HD
HETATM    4  C7  UNL     1      27.152   0.541   4.883  1.00  0.00     0.030 A 
HETATM    5  C13 UNL     1      27.798  -0.246   3.930  1.00  0.00     0.060 A 
HETATM    6  C14 UNL     1      29.150  -0.451   4.027  1.00  0.00     0.134 A 
HETATM    7  N4  UNL     1      29.858   0.117   5.060  1.00  0.00    -0.186 N 
ATOM      8  H4  UNL     1      30.863  -0.038   5.128  1.00  0.00     0.184 HD
ENDROOT
BRANCH   1   9
HETATM    9  N2  UNL     1      29.853   1.469   7.112  1.00  0.00    -0.209 N 
BRANCH   9  10
HETATM   10  C5  UNL     1      30.408   0.567   8.087  1.00  0.00     0.146 C 
BRANCH  10  11
HETATM   11  C4  UNL     1      29.888   0.667   9.463  1.00  0.00     0.004 C 
HETATM   12  C3  UNL     1      29.775  -0.757  10.021  1.00  0.00     0.008 C 
HETATM   13  C2  UNL     1      29.914  -0.661  11.533  1.00  0.00     0.033 C 
HETATM   14  C1  UNL     1      29.187   0.594  11.964  1.00  0.00     0.183 C 
HETATM   15  C20 UNL     1      28.051   0.955  11.048  1.00  0.00     0.033 C 
HETATM   16  C19 UNL     1      28.535   1.272   9.639  1.00  0.00     0.008 C 
BRANCH  14  17
HETATM   17  N1  UNL     1      28.581   0.270  13.258  1.00  0.00    -0.075 N 
ATOM     18  H13 UNL     1      27.717  -0.267  13.182  1.00  0.00     0.274 HD
ATOM     19  H12 UNL     1      29.106  -0.420  13.795  1.00  0.00     0.274 HD
ATOM     20  H11 UNL     1      28.468   1.163  13.736  1.00  0.00     0.274 HD
ENDBRANCH  14  17
ENDBRANCH  10  11
ENDBRANCH   9  10
BRANCH   9  21
HETATM   21  C16 UNL     1      29.938   2.881   7.081  1.00  0.00     0.153 C 
HETATM   22  C17 UNL     1      29.898   3.715   5.887  1.00  0.00     0.259 C 
HETATM   23  N5  UNL     1      28.465   3.985   6.073  1.00  0.00    -0.071 N 
HETATM   24  C18 UNL     1      28.611   3.573   7.442  1.00  0.00     0.259 C 
ATOM     25  H52 UNL     1      28.072   4.897   5.841  1.00  0.00     0.277 HD
ATOM     26  H51 UNL     1      27.769   3.549   5.469  1.00  0.00     0.277 HD
ENDBRANCH   9  21
ENDBRANCH   1   9
BRANCH   4  27
HETATM   27  C8  UNL     1      25.711   0.739   4.747  1.00  0.00     0.082 C 
BRANCH  27  28
HETATM   28  C9  UNL     1      25.225   2.021   4.154  1.00  0.00     0.133 A 
HETATM   29  C11 UNL     1      25.685   2.581   2.879  1.00  0.00     0.105 A 
HETATM   30  C12 UNL     1      24.320   1.962   2.962  1.00  0.00     0.261 A 
HETATM   31  F4  UNL     1      24.027   0.864   2.250  1.00  0.00    -0.205 F 
HETATM   32  F5  UNL     1      23.296   2.933   2.870  1.00  0.00    -0.205 F 
BRANCH  28  33
HETATM   33  C10 UNL     1      24.742   3.033   5.226  1.00  0.00     0.401 C 
HETATM   34  F1  UNL     1      25.563   3.061   6.302  1.00  0.00    -0.170 F 
HETATM   35  F2  UNL     1      24.774   4.298   4.628  1.00  0.00    -0.170 F 
HETATM   36  F3  UNL     1      23.463   2.741   5.613  1.00  0.00    -0.170 F 
ENDBRANCH  28  33
ENDBRANCH  27  28
ENDBRANCH   4  27
BRANCH   6  37
HETATM   37  C15 UNL     1      29.836  -1.271   3.009  1.00  0.00     0.433 C 
HETATM   38  F6  UNL     1      30.833  -0.545   2.382  1.00  0.00    -0.165 F 
HETATM   39  F7  UNL     1      30.397  -2.421   3.484  1.00  0.00    -0.165 F 
HETATM   40  F8  UNL     1      28.914  -1.594   2.034  1.00  0.00    -0.165 F 
ENDBRANCH   6  37
TORSDOF 9
ENDMDL
MODEL 3
REMARK VINA RESULT: -7.174030015      3.777      7.097
REMARK  9 active torsions:
REMARK  status: ('A' for Active; 'I' for Inactive)
REMARK    1  A    between atoms: N1_1  and  C1_5 
REMARK    2  A    between atoms: C4_8  and  C5_9 
REMARK    3  A    between atoms: C5_9  and  N2_10 
REMARK    4  A    between atoms: N2_10  and  C6_11 
REMARK    5  A    between atoms: N2_10  and  C16_33 
REMARK    6  A    between atoms: C7_14  and  C8_15 
REMARK    7  A    between atoms: C8_15  and  C9_16 
REMARK    8  A    between atoms: C9_16  and  C10_17 
REMARK    9  A    between atoms: C14_26  and  C15_27 
ROOT
HETATM    1  C6  UNL     1      27.458   1.352   5.333  1.00  0.00     0.681 A 
HETATM    2  N3  UNL     1      27.981   1.660   6.523  1.00  0.00    -0.195 N 
ATOM      3  H3  UNL     1      27.395   2.215   7.148  1.00  0.00     0.184 HD
HETATM    4  C7  UNL     1      29.176   1.324   6.981  1.00  0.00     0.030 A 
HETATM    5  C13 UNL     1      29.960   0.564   6.115  1.00  0.00     0.060 A 
HETATM    6  C14 UNL     1      29.467   0.219   4.883  1.00  0.00     0.134 A 
HETATM    7  N4  UNL     1      28.208   0.625   4.509  1.00  0.00    -0.186 N 
ATOM      8  H4  UNL     1      27.846   0.367   3.592  1.00  0.00     0.184 HD
ENDROOT
BRANCH   1   9
HETATM    9  N2  UNL     1      26.162   1.875   5.047  1.00  0.00    -0.209 N 
BRANCH   9  10
HETATM   10  C5  UNL     1      25.805   3.095   5.723  1.00  0.00     0.146 C 
BRANCH  10  11
HETATM   11  C4  UNL     1      25.879   4.341   4.938  1.00  0.00     0.004 C 
HETATM   12  C3  UNL     1      24.508   4.561   4.287  1.00  0.00     0.008 C 
HETATM   13  C2  UNL     1      24.343   6.059   4.078  1.00  0.00     0.033 C 
HETATM   14  C1  UNL     1      25.695   6.597   3.664  1.00  0.00     0.183 C 
HETATM   15  C20 UNL     1      26.532   5.582   2.937  1.00  0.00     0.033 C 
HETATM   16  C19 UNL     1      26.864   4.383   3.817  1.00  0.00     0.008 C 
BRANCH  14  17
HETATM   17  N1  UNL     1      25.412   7.660   2.696  1.00  0.00    -0.075 N 
ATOM     18  H13 UNL     1      24.422   7.764   2.478  1.00  0.00     0.274 HD
ATOM     19  H12 UNL     1      25.553   8.601   3.066  1.00  0.00     0.274 HD
ATOM     20  H11 UNL     1      25.991   7.449   1.883  1.00  0.00     0.274 HD
ENDBRANCH  14  17
ENDBRANCH  10  11
ENDBRANCH   9  10
BRANCH   9  21
HETATM   21  C16 UNL     1      25.437   1.189   4.044  1.00  0.00     0.153 C 
HETATM   22  C17 UNL     1      24.389   1.756   3.206  1.00  0.00     0.259 C 
HETATM   23  N5  UNL     1      25.336   1.993   2.108  1.00  0.00    -0.071 N 
HETATM   24  C18 UNL     1      26.222   1.045   2.726  1.00  0.00     0.259 C 
ATOM     25  H52 UNL     1      25.047   1.881   1.137  1.00  0.00     0.277 HD
ATOM     26  H51 UNL     1      25.654   2.937   1.888  1.00  0.00     0.277 HD
ENDBRANCH   9  21
ENDBRANCH   1   9
BRANCH   4  27
HETATM   27  C8  UNL     1      29.733   1.671   8.286  1.00  0.00     0.082 C 
BRANCH  27  28
HETATM   28  C9  UNL     1      29.548   0.708   9.413  1.00  0.00     0.133 A 
HETATM   29  C11 UNL     1      29.899  -0.715   9.364  1.00  0.00     0.105 A 
HETATM   30  C12 UNL     1      30.759   0.229  10.153  1.00  0.00     0.261 A 
HETATM   31  F4  UNL     1      32.034   0.446   9.798  1.00  0.00    -0.205 F 
HETATM   32  F5  UNL     1      30.633   0.018  11.545  1.00  0.00    -0.205 F 
BRANCH  28  33
HETATM   33  C10 UNL     1      28.384   1.107  10.359  1.00  0.00     0.401 C 
HETATM   34  F1  UNL     1      28.810   1.306  11.628  1.00  0.00    -0.170 F 
HETATM   35  F2  UNL     1      27.877   2.320   9.881  1.00  0.00    -0.170 F 
HETATM   36  F3  UNL     1      27.402   0.156  10.331  1.00  0.00    -0.170 F 
ENDBRANCH  28  33
ENDBRANCH  27  28
ENDBRANCH   4  27
BRANCH   6  37
HETATM   37  C15 UNL     1      30.292  -0.600   3.973  1.00  0.00     0.433 C 
HETATM   38  F6  UNL     1      30.672   0.131   2.862  1.00  0.00    -0.165 F 
HETATM   39  F7  UNL     1      31.422  -1.117   4.536  1.00  0.00    -0.165 F 
HETATM   40  F8  UNL     1      29.509  -1.638   3.509  1.00  0.00    -0.165 F 
ENDBRANCH   6  37
TORSDOF 9
ENDMDL
MODEL 4
REMARK VINA RESULT: -7.157494225      2.699      4.150
REMARK  9 active torsions:
REMARK  status: ('A' for Active; 'I' for Inactive)
REMARK    1  A    between atoms: N1_1  and  C1_5 
REMARK    2  A    between atoms: C4_8  and  C5_9 
REMARK    3  A    between atoms: C5_9  and  N2_10 
REMARK    4  A    between atoms: N2_10  and  C6_11 
REMARK    5  A    between atoms: N2_10  and  C16_33 
REMARK    6  A    between atoms: C7_14  and  C8_15 
REMARK    7  A    between atoms: C8_15  and  C9_16 
REMARK    8  A    between atoms: C9_16  and  C10_17 
REMARK    9  A    between atoms: C14_26  and  C15_27 
ROOT
HETATM    1  C6  UNL     1      28.966   0.959   6.062  1.00  0.00     0.681 A 
HETATM    2  N3  UNL     1      27.685   1.253   5.817  1.00  0.00    -0.195 N 
ATOM      3  H3  UNL     1      27.209   1.823   6.517  1.00  0.00     0.184 HD
HETATM    4  C7  UNL     1      26.969   0.886   4.768  1.00  0.00     0.030 A 
HETATM    5  C13 UNL     1      27.639   0.111   3.822  1.00  0.00     0.060 A 
HETATM    6  C14 UNL     1      28.955  -0.214   4.026  1.00  0.00     0.134 A 
HETATM    7  N4  UNL     1      29.603   0.221   5.157  1.00  0.00    -0.186 N 
ATOM      8  H4  UNL     1      30.582  -0.024   5.304  1.00  0.00     0.184 HD
ENDROOT
BRANCH   1   9
HETATM    9  N2  UNL     1      29.508   1.430   7.294  1.00  0.00    -0.209 N 
BRANCH   9  10
HETATM   10  C5  UNL     1      29.991   0.422   8.203  1.00  0.00     0.146 C 
BRANCH  10  11
HETATM   11  C4  UNL     1      29.603   0.559   9.620  1.00  0.00     0.004 C 
HETATM   12  C3  UNL     1      29.466  -0.854  10.201  1.00  0.00     0.008 C 
HETATM   13  C2  UNL     1      29.747  -0.756  11.694  1.00  0.00     0.033 C 
HETATM   14  C1  UNL     1      29.130   0.540  12.174  1.00  0.00     0.183 C 
HETATM   15  C20 UNL     1      27.936   0.956  11.361  1.00  0.00     0.033 C 
HETATM   16  C19 UNL     1      28.306   1.237   9.910  1.00  0.00     0.008 C 
BRANCH  14  17
HETATM   17  N1  UNL     1      28.627   0.257  13.521  1.00  0.00    -0.075 N 
ATOM     18  H13 UNL     1      27.877  -0.433  13.542  1.00  0.00     0.274 HD
ATOM     19  H12 UNL     1      29.284  -0.262  14.104  1.00  0.00     0.274 HD
ATOM     20  H11 UNL     1      28.364   1.163  13.908  1.00  0.00     0.274 HD
ENDBRANCH  14  17
ENDBRANCH  10  11
ENDBRANCH   9  10
BRANCH   9  21
HETATM   21  C16 UNL     1      29.611   2.836   7.415  1.00  0.00     0.153 C 
HETATM   22  C17 UNL     1      29.671   3.787   6.314  1.00  0.00     0.259 C 
HETATM   23  N5  UNL     1      28.232   4.064   6.419  1.00  0.00    -0.071 N 
HETATM   24  C18 UNL     1      28.268   3.512   7.746  1.00  0.00     0.259 C 
ATOM     25  H52 UNL     1      27.868   5.002   6.253  1.00  0.00     0.277 HD
ATOM     26  H51 UNL     1      27.579   3.705   5.722  1.00  0.00     0.277 HD
ENDBRANCH   9  21
ENDBRANCH   1   9
BRANCH   4  27
HETATM   27  C8  UNL     1      25.568   1.216   4.517  1.00  0.00     0.082 C 
BRANCH  27  28
HETATM   28  C9  UNL     1      25.216   2.639   4.225  1.00  0.00     0.133 A 
HETATM   29  C11 UNL     1      23.871   3.209   4.343  1.00  0.00     0.105 A 
HETATM   30  C12 UNL     1      24.909   3.551   5.373  1.00  0.00     0.261 A 
HETATM   31  F4  UNL     1      24.746   3.179   6.651  1.00  0.00    -0.205 F 
HETATM   32  F5  UNL     1      25.330   4.896   5.269  1.00  0.00    -0.205 F 
BRANCH  28  33
HETATM   33  C10 UNL     1      26.160   3.287   3.178  1.00  0.00     0.401 C 
HETATM   34  F1  UNL     1      27.431   3.382   3.633  1.00  0.00    -0.170 F 
HETATM   35  F2  UNL     1      26.165   2.441   2.063  1.00  0.00    -0.170 F 
HETATM   36  F3  UNL     1      25.692   4.520   2.816  1.00  0.00    -0.170 F 
ENDBRANCH  28  33
ENDBRANCH  27  28
ENDBRANCH   4  27
BRANCH   6  37
HETATM   37  C15 UNL     1      29.668  -1.021   3.016  1.00  0.00     0.433 C 
HETATM   38  F6  UNL     1      30.660  -0.277   2.402  1.00  0.00    -0.165 F 
HETATM   39  F7  UNL     1      30.243  -2.162   3.497  1.00  0.00    -0.165 F 
HETATM   40  F8  UNL     1      28.765  -1.360   2.028  1.00  0.00    -0.165 F 
ENDBRANCH   6  37
TORSDOF 9
ENDMDL
MODEL 5
REMARK VINA RESULT: -7.038564643      1.060      1.525
REMARK  9 active torsions:
REMARK  status: ('A' for Active; 'I' for Inactive)
REMARK    1  A    between atoms: N1_1  and  C1_5 
REMARK    2  A    between atoms: C4_8  and  C5_9 
REMARK    3  A    between atoms: C5_9  and  N2_10 
REMARK    4  A    between atoms: N2_10  and  C6_11 
REMARK    5  A    between atoms: N2_10  and  C16_33 
REMARK    6  A    between atoms: C7_14  and  C8_15 
REMARK    7  A    between atoms: C8_15  and  C9_16 
REMARK    8  A    between atoms: C9_16  and  C10_17 
REMARK    9  A    between atoms: C14_26  and  C15_27 
ROOT
HETATM    1  C6  UNL     1      28.471   2.410   4.945  1.00  0.00     0.681 A 
HETATM    2  N3  UNL     1      27.225   2.308   5.418  1.00  0.00    -0.195 N 
ATOM      3  H3  UNL     1      27.023   1.490   5.994  1.00  0.00     0.184 HD
HETATM    4  C7  UNL     1      26.224   3.150   5.221  1.00  0.00     0.030 A 
HETATM    5  C13 UNL     1      26.520   4.263   4.434  1.00  0.00     0.060 A 
HETATM    6  C14 UNL     1      27.785   4.415   3.928  1.00  0.00     0.134 A 
HETATM    7  N4  UNL     1      28.750   3.474   4.197  1.00  0.00    -0.186 N 
ATOM      8  H4  UNL     1      29.689   3.592   3.818  1.00  0.00     0.184 HD
ENDROOT
BRANCH   1   9
HETATM    9  N2  UNL     1      29.364   1.343   5.255  1.00  0.00    -0.209 N 
BRANCH   9  10
HETATM   10  C5  UNL     1      30.285   1.579   6.337  1.00  0.00     0.146 C 
BRANCH  10  11
HETATM   11  C4  UNL     1      29.903   1.063   7.665  1.00  0.00     0.004 C 
HETATM   12  C3  UNL     1      29.428   2.254   8.506  1.00  0.00     0.008 C 
HETATM   13  C2  UNL     1      28.444   1.716   9.534  1.00  0.00     0.033 C 
HETATM   14  C1  UNL     1      28.973   0.374   9.990  1.00  0.00     0.183 C 
HETATM   15  C20 UNL     1      30.471   0.276   9.907  1.00  0.00     0.033 C 
HETATM   16  C19 UNL     1      30.970   0.404   8.473  1.00  0.00     0.008 C 
BRANCH  14  17
HETATM   17  N1  UNL     1      28.638   0.285  11.414  1.00  0.00    -0.075 N 
ATOM     18  H13 UNL     1      28.213   1.133  11.789  1.00  0.00     0.274 HD
ATOM     19  H12 UNL     1      27.856  -0.339  11.613  1.00  0.00     0.274 HD
ATOM     20  H11 UNL     1      29.504   0.019  11.882  1.00  0.00     0.274 HD
ENDBRANCH  14  17
ENDBRANCH  10  11
ENDBRANCH   9  10
BRANCH   9  21
HETATM   21  C16 UNL     1      29.151   0.143   4.536  1.00  0.00     0.153 C 
HETATM   22  C17 UNL     1      28.950   0.032   3.098  1.00  0.00     0.259 C 
HETATM   23  N5  UNL     1      30.365  -0.303   2.884  1.00  0.00    -0.071 N 
HETATM   24  C18 UNL     1      30.449  -0.644   4.277  1.00  0.00     0.259 C 
ATOM     25  H52 UNL     1      30.640  -0.972   2.165  1.00  0.00     0.277 HD
ATOM     26  H51 UNL     1      31.006   0.376   2.473  1.00  0.00     0.277 HD
ENDBRANCH   9  21
ENDBRANCH   1   9
BRANCH   4  27
HETATM   27  C8  UNL     1      24.866   3.021   5.745  1.00  0.00     0.082 C 
BRANCH  27  28
HETATM   28  C9  UNL     1      23.741   2.891   4.771  1.00  0.00     0.133 A 
HETATM   29  C11 UNL     1      22.324   3.064   5.103  1.00  0.00     0.105 A 
HETATM   30  C12 UNL     1      23.033   4.133   4.324  1.00  0.00     0.261 A 
HETATM   31  F4  UNL     1      23.193   5.359   4.843  1.00  0.00    -0.205 F 
HETATM   32  F5  UNL     1      22.593   4.187   2.982  1.00  0.00    -0.205 F 
BRANCH  28  33
HETATM   33  C10 UNL     1      24.071   1.932   3.597  1.00  0.00     0.401 C 
HETATM   34  F1  UNL     1      24.825   2.534   2.648  1.00  0.00    -0.170 F 
HETATM   35  F2  UNL     1      24.819   0.879   4.137  1.00  0.00    -0.170 F 
HETATM   36  F3  UNL     1      22.919   1.440   3.047  1.00  0.00    -0.170 F 
ENDBRANCH  28  33
ENDBRANCH  27  28
ENDBRANCH   4  27
BRANCH   6  37
HETATM   37  C15 UNL     1      28.102   5.602   3.109  1.00  0.00     0.433 C 
HETATM   38  F6  UNL     1      28.792   6.543   3.851  1.00  0.00    -0.165 F 
HETATM   39  F7  UNL     1      28.832   5.343   1.986  1.00  0.00    -0.165 F 
HETATM   40  F8  UNL     1      26.910   6.192   2.739  1.00  0.00    -0.165 F 
ENDBRANCH   6  37
TORSDOF 9
ENDMDL
