MODEL 1
REMARK VINA RESULT: -8.276319370      0.000      0.000
REMARK  10 active torsions:
REMARK  status: ('A' for Active; 'I' for Inactive)
REMARK    1  A    between atoms: C2_2  and  O1_4 
REMARK    2  A    between atoms: C2_2  and  C17_31 
REMARK    3  A    between atoms: O1_4  and  C4_5 
REMARK    4  A    between atoms: C4_5  and  C5_6 
REMARK    5  A    between atoms: C5_6  and  N1_7 
REMARK    6  A    between atoms: C7_13  and  C8_14 
REMARK    7  A    between atoms: C10_19  and  O3_20 
REMARK    8  A    between atoms: C10_19  and  C16_27 
REMARK    9  A    between atoms: O3_20  and  C11_21 
REMARK   10  A    between atoms: C11_21  and  C12_22 
ROOT
HETATM    1  N1  UNL     1      27.047   2.805   3.743  1.00  0.00    -0.306 N 
HETATM    2  C6  UNL     1      25.869   2.016   3.710  1.00  0.00     0.218 C 
HETATM    3  N2  UNL     1      25.880   0.738   3.957  1.00  0.00    -0.365 N 
ATOM      4  H21 UNL     1      25.033   0.170   3.933  1.00  0.00     0.159 HD
ATOM      5  H22 UNL     1      26.764   0.280   4.184  1.00  0.00     0.159 HD
HETATM    6  O2  UNL     1      24.650   2.648   3.397  1.00  0.00    -0.308 OA
HETATM    7  C7  UNL     1      24.487   3.926   4.012  1.00  0.00     0.244 C 
HETATM    8  C9  UNL     1      25.589   4.303   4.939  1.00  0.00     0.113 C 
HETATM    9  C10 UNL     1      26.989   4.135   4.416  1.00  0.00     0.241 C 
ENDROOT
BRANCH   9  10
HETATM   10  O3  UNL     1      27.894   3.984   5.441  1.00  0.00    -0.350 OA
BRANCH  10  11
HETATM   11  C11 UNL     1      27.683   3.006   6.355  1.00  0.00     0.203 C 
BRANCH  11  12
HETATM   12  C12 UNL     1      28.357   3.409   7.689  1.00  0.00     0.145 C 
HETATM   13  C13 UNL     1      29.551   2.507   7.846  1.00  0.00     0.036 C 
HETATM   14  C14 UNL     1      29.023   1.470   8.830  1.00  0.00     0.029 C 
HETATM   15  C15 UNL     1      28.081   2.356   9.647  1.00  0.00     0.168 C 
HETATM   16  O4  UNL     1      27.475   3.125   8.703  1.00  0.00    -0.384 OA
ENDBRANCH  11  12
ENDBRANCH  10  11
ENDBRANCH   9  10
BRANCH   9  17
HETATM   17  C16 UNL     1      27.277   5.275   3.508  1.00  0.00     0.438 C 
HETATM   18  F4  UNL     1      26.942   4.996   2.185  1.00  0.00    -0.166 F 
HETATM   19  F5  UNL     1      26.374   6.343   3.817  1.00  0.00    -0.166 F 
HETATM   20  F6  UNL     1      28.509   5.824   3.546  1.00  0.00    -0.166 F 
ENDBRANCH   9  17
BRANCH   1  21
HETATM   21  C5  UNL     1      28.283   2.326   3.215  1.00  0.00     0.156 C 
BRANCH  21  22
HETATM   22  C4  UNL     1      28.240   0.896   2.710  1.00  0.00     0.189 C 
BRANCH  22  23
HETATM   23  O1  UNL     1      29.529   0.353   2.701  1.00  0.00    -0.370 OA
BRANCH  23  24
HETATM   24  C2  UNL     1      29.698  -0.541   3.720  1.00  0.00     0.151 C 
HETATM   25  C1  UNL     1      30.706  -1.611   3.222  1.00  0.00     0.055 C 
HETATM   26  C3  UNL     1      28.424  -1.340   3.977  1.00  0.00     0.055 C 
BRANCH  24  27
HETATM   27  C17 UNL     1      30.236  -0.069   5.018  1.00  0.00     0.417 C 
HETATM   28  F7  UNL     1      30.744   1.249   4.798  1.00  0.00    -0.168 F 
HETATM   29  F8  UNL     1      31.412  -0.737   5.421  1.00  0.00    -0.168 F 
HETATM   30  F9  UNL     1      29.316   0.039   6.010  1.00  0.00    -0.168 F 
ENDBRANCH  24  27
ENDBRANCH  23  24
ENDBRANCH  22  23
ENDBRANCH  21  22
ENDBRANCH   1  21
BRANCH   7  31
HETATM   31  C8  UNL     1      23.238   3.767   4.907  1.00  0.00     0.414 C 
HETATM   32  F1  UNL     1      23.652   3.741   6.227  1.00  0.00    -0.168 F 
HETATM   33  F2  UNL     1      22.702   2.525   4.608  1.00  0.00    -0.168 F 
HETATM   34  F3  UNL     1      22.374   4.811   4.675  1.00  0.00    -0.168 F 
ENDBRANCH   7  31
TORSDOF 10
ENDMDL
MODEL 2
REMARK VINA RESULT: -8.243037336      2.182      6.317
REMARK  10 active torsions:
REMARK  status: ('A' for Active; 'I' for Inactive)
REMARK    1  A    between atoms: C2_2  and  O1_4 
REMARK    2  A    between atoms: C2_2  and  C17_31 
REMARK    3  A    between atoms: O1_4  and  C4_5 
REMARK    4  A    between atoms: C4_5  and  C5_6 
REMARK    5  A    between atoms: C5_6  and  N1_7 
REMARK    6  A    between atoms: C7_13  and  C8_14 
REMARK    7  A    between atoms: C10_19  and  O3_20 
REMARK    8  A    between atoms: C10_19  and  C16_27 
REMARK    9  A    between atoms: O3_20  and  C11_21 
REMARK   10  A    between atoms: C11_21  and  C12_22 
ROOT
HETATM    1  N1  UNL     1      28.209   3.050   6.457  1.00  0.00    -0.306 N 
HETATM    2  C6  UNL     1      28.144   3.080   7.873  1.00  0.00     0.218 C 
HETATM    3  N2  UNL     1      27.070   3.447   8.513  1.00  0.00    -0.365 N 
ATOM      4  H21 UNL     1      27.023   3.468   9.531  1.00  0.00     0.159 HD
ATOM      5  H22 UNL     1      26.242   3.722   7.984  1.00  0.00     0.159 HD
HETATM    6  O2  UNL     1      29.286   2.699   8.603  1.00  0.00    -0.308 OA
HETATM    7  C7  UNL     1      29.961   1.562   8.068  1.00  0.00     0.244 C 
HETATM    8  C9  UNL     1      29.278   0.939   6.901  1.00  0.00     0.113 C 
HETATM    9  C10 UNL     1      28.847   1.871   5.803  1.00  0.00     0.241 C 
ENDROOT
BRANCH   9  10
HETATM   10  O3  UNL     1      27.807   1.343   5.073  1.00  0.00    -0.350 OA
BRANCH  10  11
HETATM   11  C11 UNL     1      27.514   0.028   5.218  1.00  0.00     0.203 C 
BRANCH  11  12
HETATM   12  C12 UNL     1      27.506  -0.643   3.824  1.00  0.00     0.145 C 
HETATM   13  C13 UNL     1      28.570  -1.706   3.863  1.00  0.00     0.036 C 
HETATM   14  C14 UNL     1      29.718  -1.015   3.137  1.00  0.00     0.029 C 
HETATM   15  C15 UNL     1      28.916  -0.165   2.150  1.00  0.00     0.168 C 
HETATM   16  O4  UNL     1      27.886   0.304   2.904  1.00  0.00    -0.384 OA
ENDBRANCH  11  12
ENDBRANCH  10  11
ENDBRANCH   9  10
BRANCH   9  17
HETATM   17  C16 UNL     1      30.048   2.214   4.998  1.00  0.00     0.438 C 
HETATM   18  F4  UNL     1      30.950   1.157   4.915  1.00  0.00    -0.166 F 
HETATM   19  F5  UNL     1      29.651   2.366   3.630  1.00  0.00    -0.166 F 
HETATM   20  F6  UNL     1      30.718   3.344   5.305  1.00  0.00    -0.166 F 
ENDBRANCH   9  17
BRANCH   1  21
HETATM   21  C5  UNL     1      27.621   4.078   5.659  1.00  0.00     0.156 C 
BRANCH  21  22
HETATM   22  C4  UNL     1      26.133   4.272   5.880  1.00  0.00     0.189 C 
BRANCH  22  23
HETATM   23  O1  UNL     1      25.494   4.496   4.656  1.00  0.00    -0.370 OA
BRANCH  23  24
HETATM   24  C2  UNL     1      24.399   3.691   4.515  1.00  0.00     0.151 C 
HETATM   25  C1  UNL     1      23.301   4.538   3.817  1.00  0.00     0.055 C 
HETATM   26  C3  UNL     1      23.782   3.348   5.867  1.00  0.00     0.055 C 
BRANCH  24  27
HETATM   27  C17 UNL     1      24.508   2.451   3.710  1.00  0.00     0.417 C 
HETATM   28  F7  UNL     1      24.744   1.383   4.632  1.00  0.00    -0.168 F 
HETATM   29  F8  UNL     1      25.681   2.383   2.929  1.00  0.00    -0.168 F 
HETATM   30  F9  UNL     1      23.386   2.117   3.022  1.00  0.00    -0.168 F 
ENDBRANCH  24  27
ENDBRANCH  23  24
ENDBRANCH  22  23
ENDBRANCH  21  22
ENDBRANCH   1  21
BRANCH   7  31
HETATM   31  C8  UNL     1      29.890   0.506   9.193  1.00  0.00     0.414 C 
HETATM   32  F1  UNL     1      31.168   0.312   9.687  1.00  0.00    -0.168 F 
HETATM   33  F2  UNL     1      29.487  -0.675   8.591  1.00  0.00    -0.168 F 
HETATM   34  F3  UNL     1      29.035   0.943  10.177  1.00  0.00    -0.168 F 
ENDBRANCH   7  31
TORSDOF 10
ENDMDL
MODEL 3
REMARK VINA RESULT: -8.243008407      1.000      1.276
REMARK  10 active torsions:
REMARK  status: ('A' for Active; 'I' for Inactive)
REMARK    1  A    between atoms: C2_2  and  O1_4 
REMARK    2  A    between atoms: C2_2  and  C17_31 
REMARK    3  A    between atoms: O1_4  and  C4_5 
REMARK    4  A    between atoms: C4_5  and  C5_6 
REMARK    5  A    between atoms: C5_6  and  N1_7 
REMARK    6  A    between atoms: C7_13  and  C8_14 
REMARK    7  A    between atoms: C10_19  and  O3_20 
REMARK    8  A    between atoms: C10_19  and  C16_27 
REMARK    9  A    between atoms: O3_20  and  C11_21 
REMARK   10  A    between atoms: C11_21  and  C12_22 
ROOT
HETATM    1  N1  UNL     1      27.030   2.681   3.961  1.00  0.00    -0.306 N 
HETATM    2  C6  UNL     1      25.839   1.913   3.907  1.00  0.00     0.218 C 
HETATM    3  N2  UNL     1      25.810   0.650   4.224  1.00  0.00    -0.365 N 
ATOM      4  H21 UNL     1      24.954   0.098   4.185  1.00  0.00     0.159 HD
ATOM      5  H22 UNL     1      26.670   0.190   4.523  1.00  0.00     0.159 HD
HETATM    6  O2  UNL     1      24.652   2.548   3.494  1.00  0.00    -0.308 OA
HETATM    7  C7  UNL     1      24.484   3.861   4.028  1.00  0.00     0.244 C 
HETATM    8  C9  UNL     1      25.542   4.269   4.991  1.00  0.00     0.113 C 
HETATM    9  C10 UNL     1      26.964   4.047   4.556  1.00  0.00     0.241 C 
ENDROOT
BRANCH   9  10
HETATM   10  O3  UNL     1      27.810   3.937   5.635  1.00  0.00    -0.350 OA
BRANCH  10  11
HETATM   11  C11 UNL     1      27.342   3.366   6.772  1.00  0.00     0.203 C 
BRANCH  11  12
HETATM   12  C12 UNL     1      28.456   3.393   7.845  1.00  0.00     0.145 C 
HETATM   13  C13 UNL     1      29.639   2.687   7.242  1.00  0.00     0.036 C 
HETATM   14  C14 UNL     1      29.535   1.311   7.887  1.00  0.00     0.029 C 
HETATM   15  C15 UNL     1      28.948   1.712   9.242  1.00  0.00     0.168 C 
HETATM   16  O4  UNL     1      28.020   2.651   8.916  1.00  0.00    -0.384 OA
ENDBRANCH  11  12
ENDBRANCH  10  11
ENDBRANCH   9  10
BRANCH   9  17
HETATM   17  C16 UNL     1      27.324   5.129   3.603  1.00  0.00     0.438 C 
HETATM   18  F4  UNL     1      27.066   4.778   2.281  1.00  0.00    -0.166 F 
HETATM   19  F5  UNL     1      26.420   6.224   3.795  1.00  0.00    -0.166 F 
HETATM   20  F6  UNL     1      28.560   5.664   3.686  1.00  0.00    -0.166 F 
ENDBRANCH   9  17
BRANCH   1  21
HETATM   21  C5  UNL     1      28.282   2.150   3.529  1.00  0.00     0.156 C 
BRANCH  21  22
HETATM   22  C4  UNL     1      28.767   0.953   4.323  1.00  0.00     0.189 C 
BRANCH  22  23
HETATM   23  O1  UNL     1      29.971   0.480   3.790  1.00  0.00    -0.370 OA
BRANCH  23  24
HETATM   24  C2  UNL     1      29.845  -0.806   3.345  1.00  0.00     0.151 C 
HETATM   25  C1  UNL     1      29.827  -0.749   1.794  1.00  0.00     0.055 C 
HETATM   26  C3  UNL     1      28.480  -1.386   3.699  1.00  0.00     0.055 C 
BRANCH  24  27
HETATM   27  C17 UNL     1      30.891  -1.798   3.690  1.00  0.00     0.417 C 
HETATM   28  F7  UNL     1      31.827  -1.801   2.609  1.00  0.00    -0.168 F 
HETATM   29  F8  UNL     1      30.440  -3.135   3.646  1.00  0.00    -0.168 F 
HETATM   30  F9  UNL     1      31.603  -1.509   4.809  1.00  0.00    -0.168 F 
ENDBRANCH  24  27
ENDBRANCH  23  24
ENDBRANCH  22  23
ENDBRANCH  21  22
ENDBRANCH   1  21
BRANCH   7  31
HETATM   31  C8  UNL     1      23.186   3.775   4.860  1.00  0.00     0.414 C 
HETATM   32  F1  UNL     1      23.532   3.722   6.199  1.00  0.00    -0.168 F 
HETATM   33  F2  UNL     1      22.591   2.568   4.530  1.00  0.00    -0.168 F 
HETATM   34  F3  UNL     1      22.397   4.869   4.592  1.00  0.00    -0.168 F 
ENDBRANCH   7  31
TORSDOF 10
ENDMDL
MODEL 4
REMARK VINA RESULT: -8.242050149      1.177      1.550
REMARK  10 active torsions:
REMARK  status: ('A' for Active; 'I' for Inactive)
REMARK    1  A    between atoms: C2_2  and  O1_4 
REMARK    2  A    between atoms: C2_2  and  C17_31 
REMARK    3  A    between atoms: O1_4  and  C4_5 
REMARK    4  A    between atoms: C4_5  and  C5_6 
REMARK    5  A    between atoms: C5_6  and  N1_7 
REMARK    6  A    between atoms: C7_13  and  C8_14 
REMARK    7  A    between atoms: C10_19  and  O3_20 
REMARK    8  A    between atoms: C10_19  and  C16_27 
REMARK    9  A    between atoms: O3_20  and  C11_21 
REMARK   10  A    between atoms: C11_21  and  C12_22 
ROOT
HETATM    1  N1  UNL     1      26.942   2.895   3.684  1.00  0.00    -0.306 N 
HETATM    2  C6  UNL     1      25.783   2.095   3.524  1.00  0.00     0.218 C 
HETATM    3  N2  UNL     1      25.809   0.799   3.643  1.00  0.00    -0.365 N 
ATOM      4  H21 UNL     1      24.975   0.224   3.529  1.00  0.00     0.159 HD
ATOM      5  H22 UNL     1      26.691   0.334   3.860  1.00  0.00     0.159 HD
HETATM    6  O2  UNL     1      24.565   2.736   3.226  1.00  0.00    -0.308 OA
HETATM    7  C7  UNL     1      24.353   3.944   3.957  1.00  0.00     0.244 C 
HETATM    8  C9  UNL     1      25.410   4.243   4.961  1.00  0.00     0.113 C 
HETATM    9  C10 UNL     1      26.832   4.150   4.482  1.00  0.00     0.241 C 
ENDROOT
BRANCH   9  10
HETATM   10  O3  UNL     1      27.700   3.912   5.523  1.00  0.00    -0.350 OA
BRANCH  10  11
HETATM   11  C11 UNL     1      27.251   3.215   6.595  1.00  0.00     0.203 C 
BRANCH  11  12
HETATM   12  C12 UNL     1      28.193   3.474   7.795  1.00  0.00     0.145 C 
HETATM   13  C13 UNL     1      29.472   2.740   7.493  1.00  0.00     0.036 C 
HETATM   14  C14 UNL     1      29.310   1.485   8.341  1.00  0.00     0.029 C 
HETATM   15  C15 UNL     1      28.519   2.072   9.512  1.00  0.00     0.168 C 
HETATM   16  O4  UNL     1      27.624   2.896   8.904  1.00  0.00    -0.384 OA
ENDBRANCH  11  12
ENDBRANCH  10  11
ENDBRANCH   9  10
BRANCH   9  17
HETATM   17  C16 UNL     1      27.133   5.379   3.703  1.00  0.00     0.438 C 
HETATM   18  F4  UNL     1      26.774   5.259   2.363  1.00  0.00    -0.166 F 
HETATM   19  F5  UNL     1      26.259   6.424   4.146  1.00  0.00    -0.166 F 
HETATM   20  F6  UNL     1      28.378   5.894   3.783  1.00  0.00    -0.166 F 
ENDBRANCH   9  17
BRANCH   1  21
HETATM   21  C5  UNL     1      28.208   2.490   3.162  1.00  0.00     0.156 C 
BRANCH  21  22
HETATM   22  C4  UNL     1      29.231   2.111   4.215  1.00  0.00     0.189 C 
BRANCH  22  23
HETATM   23  O1  UNL     1      30.132   1.177   3.693  1.00  0.00    -0.370 OA
BRANCH  23  24
HETATM   24  C2  UNL     1      29.889  -0.074   4.184  1.00  0.00     0.151 C 
HETATM   25  C1  UNL     1      28.792   0.070   5.272  1.00  0.00     0.055 C 
HETATM   26  C3  UNL     1      31.090  -0.614   4.954  1.00  0.00     0.055 C 
BRANCH  24  27
HETATM   27  C17 UNL     1      29.395  -1.130   3.267  1.00  0.00     0.417 C 
HETATM   28  F7  UNL     1      29.157  -0.500   2.006  1.00  0.00    -0.168 F 
HETATM   29  F8  UNL     1      28.098  -1.589   3.577  1.00  0.00    -0.168 F 
HETATM   30  F9  UNL     1      30.276  -2.135   3.029  1.00  0.00    -0.168 F 
ENDBRANCH  24  27
ENDBRANCH  23  24
ENDBRANCH  22  23
ENDBRANCH  21  22
ENDBRANCH   1  21
BRANCH   7  31
HETATM   31  C8  UNL     1      23.073   3.677   4.780  1.00  0.00     0.414 C 
HETATM   32  F1  UNL     1      23.385   3.812   6.121  1.00  0.00    -0.168 F 
HETATM   33  F2  UNL     1      22.737   2.352   4.556  1.00  0.00    -0.168 F 
HETATM   34  F3  UNL     1      22.094   4.566   4.402  1.00  0.00    -0.168 F 
ENDBRANCH   7  31
TORSDOF 10
ENDMDL
MODEL 5
REMARK VINA RESULT: -8.212512365      2.094      6.533
REMARK  10 active torsions:
REMARK  status: ('A' for Active; 'I' for Inactive)
REMARK    1  A    between atoms: C2_2  and  O1_4 
REMARK    2  A    between atoms: C2_2  and  C17_31 
REMARK    3  A    between atoms: O1_4  and  C4_5 
REMARK    4  A    between atoms: C4_5  and  C5_6 
REMARK    5  A    between atoms: C5_6  and  N1_7 
REMARK    6  A    between atoms: C7_13  and  C8_14 
REMARK    7  A    between atoms: C10_19  and  O3_20 
REMARK    8  A    between atoms: C10_19  and  C16_27 
REMARK    9  A    between atoms: O3_20  and  C11_21 
REMARK   10  A    between atoms: C11_21  and  C12_22 
ROOT
HETATM    1  N1  UNL     1      28.313   3.082   6.453  1.00  0.00    -0.306 N 
HETATM    2  C6  UNL     1      28.222   3.105   7.867  1.00  0.00     0.218 C 
HETATM    3  N2  UNL     1      27.162   3.534   8.490  1.00  0.00    -0.365 N 
ATOM      4  H21 UNL     1      27.096   3.550   9.508  1.00  0.00     0.159 HD
ATOM      5  H22 UNL     1      26.363   3.866   7.948  1.00  0.00     0.159 HD
HETATM    6  O2  UNL     1      29.323   2.646   8.615  1.00  0.00    -0.308 OA
HETATM    7  C7  UNL     1      29.935   1.472   8.082  1.00  0.00     0.244 C 
HETATM    8  C9  UNL     1      29.236   0.904   6.896  1.00  0.00     0.113 C 
HETATM    9  C10 UNL     1      28.887   1.870   5.800  1.00  0.00     0.241 C 
ENDROOT
BRANCH   9  10
HETATM   10  O3  UNL     1      27.829   1.416   5.045  1.00  0.00    -0.350 OA
BRANCH  10  11
HETATM   11  C11 UNL     1      27.415   0.137   5.212  1.00  0.00     0.203 C 
BRANCH  11  12
HETATM   12  C12 UNL     1      27.389  -0.568   3.834  1.00  0.00     0.145 C 
HETATM   13  C13 UNL     1      28.404  -1.676   3.909  1.00  0.00     0.036 C 
HETATM   14  C14 UNL     1      29.587  -1.055   3.177  1.00  0.00     0.029 C 
HETATM   15  C15 UNL     1      28.833  -0.195   2.162  1.00  0.00     0.168 C 
HETATM   16  O4  UNL     1      27.818   0.338   2.895  1.00  0.00    -0.384 OA
ENDBRANCH  11  12
ENDBRANCH  10  11
ENDBRANCH   9  10
BRANCH   9  17
HETATM   17  C16 UNL     1      30.122   2.143   5.021  1.00  0.00     0.438 C 
HETATM   18  F4  UNL     1      30.984   1.049   4.993  1.00  0.00    -0.166 F 
HETATM   19  F5  UNL     1      29.770   2.269   3.638  1.00  0.00    -0.166 F 
HETATM   20  F6  UNL     1      30.828   3.255   5.315  1.00  0.00    -0.166 F 
ENDBRANCH   9  17
BRANCH   1  21
HETATM   21  C5  UNL     1      27.807   4.152   5.653  1.00  0.00     0.156 C 
BRANCH  21  22
HETATM   22  C4  UNL     1      26.294   4.221   5.578  1.00  0.00     0.189 C 
BRANCH  22  23
HETATM   23  O1  UNL     1      25.851   3.685   4.364  1.00  0.00    -0.370 OA
BRANCH  23  24
HETATM   24  C2  UNL     1      24.501   3.476   4.378  1.00  0.00     0.151 C 
HETATM   25  C1  UNL     1      24.101   3.189   5.849  1.00  0.00     0.055 C 
HETATM   26  C3  UNL     1      24.128   2.191   3.647  1.00  0.00     0.055 C 
BRANCH  24  27
HETATM   27  C17 UNL     1      23.594   4.561   3.930  1.00  0.00     0.417 C 
HETATM   28  F7  UNL     1      22.878   5.001   5.086  1.00  0.00    -0.168 F 
HETATM   29  F8  UNL     1      22.530   4.111   3.120  1.00  0.00    -0.168 F 
HETATM   30  F9  UNL     1      24.221   5.656   3.431  1.00  0.00    -0.168 F 
ENDBRANCH  24  27
ENDBRANCH  23  24
ENDBRANCH  22  23
ENDBRANCH  21  22
ENDBRANCH   1  21
BRANCH   7  31
HETATM   31  C8  UNL     1      29.775   0.414   9.195  1.00  0.00     0.414 C 
HETATM   32  F1  UNL     1      31.011   0.213   9.783  1.00  0.00    -0.168 F 
HETATM   33  F2  UNL     1      29.413  -0.765   8.562  1.00  0.00    -0.168 F 
HETATM   34  F3  UNL     1      28.849   0.852  10.113  1.00  0.00    -0.168 F 
ENDBRANCH   7  31
TORSDOF 10
ENDMDL
