MODEL 1
REMARK VINA RESULT: -7.223342512      0.000      0.000
REMARK  11 active torsions:
REMARK  status: ('A' for Active; 'I' for Inactive)
REMARK    1  A    between atoms: C2_2  and  C3_3 
REMARK    2  A    between atoms: C3_3  and  C4_4 
REMARK    3  A    between atoms: C4_4  and  C5_5 
REMARK    4  A    between atoms: C5_5  and  C6_6 
REMARK    5  A    between atoms: C6_6  and  N1_7 
REMARK    6  A    between atoms: N1_7  and  C7_9 
REMARK    7  A    between atoms: C8_12  and  N3_13 
REMARK    8  A    between atoms: C11_16  and  O1_17 
REMARK    9  A    between atoms: C15_22  and  N4_23 
REMARK   10  A    between atoms: C17_25  and  C19_27 
REMARK   11  A    between atoms: C21_32  and  N5_33 
ROOT
HETATM    1  C7  UNL     1      30.068   0.585   5.479  1.00  0.00     0.681 A 
HETATM    2  N2  UNL     1      30.185   0.655   6.814  1.00  0.00    -0.177 N 
ATOM      3  H2  UNL     1      30.889   0.072   7.267  1.00  0.00     0.185 HD
HETATM    4  C8  UNL     1      29.425   1.449   7.588  1.00  0.00     0.122 A 
HETATM    5  C14 UNL     1      28.490   2.223   6.984  1.00  0.00     0.097 A 
HETATM    6  C15 UNL     1      28.323   2.193   5.600  1.00  0.00     0.124 A 
HETATM    7  N6  UNL     1      29.131   1.368   4.921  1.00  0.00    -0.177 N 
ATOM      8  H6  UNL     1      29.026   1.331   3.907  1.00  0.00     0.185 HD
ENDROOT
BRANCH   6   9
HETATM    9  N4  UNL     1      27.348   2.999   4.956  1.00  0.00    -0.338 N 
HETATM   10  C16 UNL     1      25.920   2.856   5.085  1.00  0.00     0.145 C 
HETATM   11  C17 UNL     1      25.357   3.611   3.928  1.00  0.00     0.074 C 
HETATM   12  C18 UNL     1      25.381   2.744   2.687  1.00  0.00     0.026 C 
HETATM   13  C20 UNL     1      26.321   4.753   3.751  1.00  0.00     0.074 C 
HETATM   14  C21 UNL     1      27.647   4.096   4.066  1.00  0.00     0.286 C 
BRANCH  11  15
HETATM   15  C19 UNL     1      23.967   4.136   4.210  1.00  0.00     0.396 C 
HETATM   16  F1  UNL     1      23.703   3.879   5.554  1.00  0.00    -0.170 F 
HETATM   17  F2  UNL     1      23.982   5.494   3.961  1.00  0.00    -0.170 F 
HETATM   18  F3  UNL     1      23.087   3.451   3.424  1.00  0.00    -0.170 F 
ENDBRANCH  11  15
BRANCH  14  19
HETATM   19  N5  UNL     1      28.339   3.675   2.864  1.00  0.00    -0.058 N 
ATOM     20  H53 UNL     1      27.700   3.209   2.220  1.00  0.00     0.276 HD
ATOM     21  H52 UNL     1      28.597   4.479   2.292  1.00  0.00     0.276 HD
ATOM     22  H51 UNL     1      29.152   3.090   3.058  1.00  0.00     0.276 HD
ENDBRANCH  14  19
ENDBRANCH   6   9
BRANCH   4  23
HETATM   23  N3  UNL     1      29.631   1.445   8.982  1.00  0.00    -0.367 N 
HETATM   24  C9  UNL     1      28.726   1.983   9.960  1.00  0.00     0.127 C 
HETATM   25  C10 UNL     1      28.271   0.824  10.830  1.00  0.00     0.051 C 
HETATM   26  C11 UNL     1      29.439   0.065  11.413  1.00  0.00     0.121 C 
HETATM   27  C12 UNL     1      30.459  -0.311  10.377  1.00  0.00     0.051 C 
HETATM   28  C13 UNL     1      30.858   0.850   9.506  1.00  0.00     0.127 C 
BRANCH  26  29
HETATM   29  O1  UNL     1      28.913  -1.141  11.927  1.00  0.00    -0.395 OA
ATOM     30  H1  UNL     1      29.492  -1.405  12.633  1.00  0.00     0.210 HD
ENDBRANCH  26  29
ENDBRANCH   4  23
BRANCH   1  31
HETATM   31  N1  UNL     1      30.841  -0.203   4.849  1.00  0.00    -0.226 N 
ATOM     32  H1  UNL     1      31.842  -0.071   5.001  1.00  0.00     0.177 HD
BRANCH  31  33
HETATM   33  C6  UNL     1      30.473  -1.246   3.956  1.00  0.00     0.138 C 
BRANCH  33  34
HETATM   34  C5  UNL     1      29.998  -0.584   2.655  1.00  0.00     0.020 C 
BRANCH  34  35
HETATM   35  C4  UNL     1      28.592  -1.057   2.425  1.00  0.00     0.002 C 
BRANCH  35  36
HETATM   36  C3  UNL     1      27.627   0.041   2.740  1.00  0.00    -0.000 C 
BRANCH  36  37
HETATM   37  C2  UNL     1      26.593  -0.345   3.751  1.00  0.00    -0.005 C 
HETATM   38  C1  UNL     1      26.822  -1.793   4.152  1.00  0.00     0.005 C 
ENDBRANCH  36  37
ENDBRANCH  35  36
ENDBRANCH  34  35
ENDBRANCH  33  34
ENDBRANCH  31  33
ENDBRANCH   1  31
TORSDOF 11
ENDMDL
MODEL 2
REMARK VINA RESULT: -6.952354807      1.330      1.910
REMARK  11 active torsions:
REMARK  status: ('A' for Active; 'I' for Inactive)
REMARK    1  A    between atoms: C2_2  and  C3_3 
REMARK    2  A    between atoms: C3_3  and  C4_4 
REMARK    3  A    between atoms: C4_4  and  C5_5 
REMARK    4  A    between atoms: C5_5  and  C6_6 
REMARK    5  A    between atoms: C6_6  and  N1_7 
REMARK    6  A    between atoms: N1_7  and  C7_9 
REMARK    7  A    between atoms: C8_12  and  N3_13 
REMARK    8  A    between atoms: C11_16  and  O1_17 
REMARK    9  A    between atoms: C15_22  and  N4_23 
REMARK   10  A    between atoms: C17_25  and  C19_27 
REMARK   11  A    between atoms: C21_32  and  N5_33 
ROOT
HETATM    1  C7  UNL     1      30.237   0.485   5.095  1.00  0.00     0.681 A 
HETATM    2  N2  UNL     1      30.248   0.614   6.431  1.00  0.00    -0.177 N 
ATOM      3  H2  UNL     1      30.774  -0.069   6.977  1.00  0.00     0.185 HD
HETATM    4  C8  UNL     1      29.604   1.593   7.090  1.00  0.00     0.122 A 
HETATM    5  C14 UNL     1      28.906   2.499   6.364  1.00  0.00     0.097 A 
HETATM    6  C15 UNL     1      28.858   2.416   4.973  1.00  0.00     0.124 A 
HETATM    7  N6  UNL     1      29.533   1.403   4.414  1.00  0.00    -0.177 N 
ATOM      8  H6  UNL     1      29.512   1.325   3.397  1.00  0.00     0.185 HD
ENDROOT
BRANCH   6   9
HETATM    9  N4  UNL     1      28.130   3.359   4.201  1.00  0.00    -0.338 N 
HETATM   10  C16 UNL     1      27.596   4.608   4.683  1.00  0.00     0.145 C 
HETATM   11  C17 UNL     1      26.587   5.009   3.660  1.00  0.00     0.074 C 
HETATM   12  C18 UNL     1      25.279   4.294   3.920  1.00  0.00     0.026 C 
HETATM   13  C20 UNL     1      27.176   4.507   2.369  1.00  0.00     0.074 C 
HETATM   14  C21 UNL     1      27.813   3.204   2.801  1.00  0.00     0.286 C 
BRANCH  11  15
HETATM   15  C19 UNL     1      26.397   6.508   3.602  1.00  0.00     0.396 C 
HETATM   16  F1  UNL     1      26.134   6.832   2.272  1.00  0.00    -0.170 F 
HETATM   17  F2  UNL     1      25.319   6.818   4.408  1.00  0.00    -0.170 F 
HETATM   18  F3  UNL     1      27.559   7.099   4.003  1.00  0.00    -0.170 F 
ENDBRANCH  11  15
BRANCH  14  19
HETATM   19  N5  UNL     1      26.950   2.070   2.539  1.00  0.00    -0.058 N 
ATOM     20  H53 UNL     1      27.339   1.216   2.940  1.00  0.00     0.276 HD
ATOM     21  H52 UNL     1      26.090   2.132   3.084  1.00  0.00     0.276 HD
ATOM     22  H51 UNL     1      26.745   1.946   1.548  1.00  0.00     0.276 HD
ENDBRANCH  14  19
ENDBRANCH   6   9
BRANCH   4  23
HETATM   23  N3  UNL     1      29.682   1.635   8.497  1.00  0.00    -0.367 N 
HETATM   24  C9  UNL     1      28.680   2.178   9.371  1.00  0.00     0.127 C 
HETATM   25  C10 UNL     1      28.174   1.033  10.233  1.00  0.00     0.051 C 
HETATM   26  C11 UNL     1      29.302   0.323  10.943  1.00  0.00     0.121 C 
HETATM   27  C12 UNL     1      30.421  -0.056  10.017  1.00  0.00     0.051 C 
HETATM   28  C13 UNL     1      30.870   1.089   9.148  1.00  0.00     0.127 C 
BRANCH  26  29
HETATM   29  O1  UNL     1      28.760  -0.880  11.446  1.00  0.00    -0.395 OA
ATOM     30  H1  UNL     1      28.809  -0.820  12.393  1.00  0.00     0.210 HD
ENDBRANCH  26  29
ENDBRANCH   4  23
BRANCH   1  31
HETATM   31  N1  UNL     1      30.883  -0.481   4.580  1.00  0.00    -0.226 N 
ATOM     32  H1  UNL     1      31.874  -0.538   4.816  1.00  0.00     0.177 HD
BRANCH  31  33
HETATM   33  C6  UNL     1      30.383  -1.490   3.712  1.00  0.00     0.138 C 
BRANCH  33  34
HETATM   34  C5  UNL     1      29.861  -0.787   2.451  1.00  0.00     0.020 C 
BRANCH  34  35
HETATM   35  C4  UNL     1      28.365  -0.905   2.487  1.00  0.00     0.002 C 
BRANCH  35  36
HETATM   36  C3  UNL     1      27.948  -1.742   3.654  1.00  0.00    -0.000 C 
BRANCH  36  37
HETATM   37  C2  UNL     1      26.518  -1.543   4.050  1.00  0.00    -0.005 C 
HETATM   38  C1  UNL     1      26.284  -0.062   4.299  1.00  0.00     0.005 C 
ENDBRANCH  36  37
ENDBRANCH  35  36
ENDBRANCH  34  35
ENDBRANCH  33  34
ENDBRANCH  31  33
ENDBRANCH   1  31
TORSDOF 11
ENDMDL
MODEL 3
REMARK VINA RESULT: -6.516679510      1.108      1.503
REMARK  11 active torsions:
REMARK  status: ('A' for Active; 'I' for Inactive)
REMARK    1  A    between atoms: C2_2  and  C3_3 
REMARK    2  A    between atoms: C3_3  and  C4_4 
REMARK    3  A    between atoms: C4_4  and  C5_5 
REMARK    4  A    between atoms: C5_5  and  C6_6 
REMARK    5  A    between atoms: C6_6  and  N1_7 
REMARK    6  A    between atoms: N1_7  and  C7_9 
REMARK    7  A    between atoms: C8_12  and  N3_13 
REMARK    8  A    between atoms: C11_16  and  O1_17 
REMARK    9  A    between atoms: C15_22  and  N4_23 
REMARK   10  A    between atoms: C17_25  and  C19_27 
REMARK   11  A    between atoms: C21_32  and  N5_33 
ROOT
HETATM    1  C7  UNL     1      29.961   1.514   4.599  1.00  0.00     0.681 A 
HETATM    2  N2  UNL     1      30.121   1.360   5.923  1.00  0.00    -0.177 N 
ATOM      3  H2  UNL     1      30.822   0.695   6.249  1.00  0.00     0.185 HD
HETATM    4  C8  UNL     1      29.408   2.032   6.843  1.00  0.00     0.122 A 
HETATM    5  C14 UNL     1      28.476   2.916   6.408  1.00  0.00     0.097 A 
HETATM    6  C15 UNL     1      28.266   3.118   5.044  1.00  0.00     0.124 A 
HETATM    7  N6  UNL     1      29.028   2.398   4.211  1.00  0.00    -0.177 N 
ATOM      8  H6  UNL     1      28.891   2.532   3.209  1.00  0.00     0.185 HD
ENDROOT
BRANCH   6   9
HETATM    9  N4  UNL     1      27.293   4.041   4.576  1.00  0.00    -0.338 N 
HETATM   10  C16 UNL     1      25.865   3.897   4.708  1.00  0.00     0.145 C 
HETATM   11  C17 UNL     1      25.295   4.856   3.717  1.00  0.00     0.074 C 
HETATM   12  C18 UNL     1      25.280   4.225   2.341  1.00  0.00     0.026 C 
HETATM   13  C20 UNL     1      26.276   5.997   3.727  1.00  0.00     0.074 C 
HETATM   14  C21 UNL     1      27.595   5.275   3.890  1.00  0.00     0.286 C 
BRANCH  11  15
HETATM   15  C19 UNL     1      23.920   5.342   4.118  1.00  0.00     0.396 C 
HETATM   16  F1  UNL     1      23.078   5.116   3.032  1.00  0.00    -0.170 F 
HETATM   17  F2  UNL     1      23.524   4.600   5.213  1.00  0.00    -0.170 F 
HETATM   18  F3  UNL     1      24.001   6.680   4.373  1.00  0.00    -0.170 F 
ENDBRANCH  11  15
BRANCH  14  19
HETATM   19  N5  UNL     1      28.257   5.066   2.618  1.00  0.00    -0.058 N 
ATOM     20  H53 UNL     1      28.760   4.179   2.610  1.00  0.00     0.276 HD
ATOM     21  H52 UNL     1      27.578   4.879   1.880  1.00  0.00     0.276 HD
ATOM     22  H51 UNL     1      28.874   5.837   2.359  1.00  0.00     0.276 HD
ENDBRANCH  14  19
ENDBRANCH   6   9
BRANCH   4  23
HETATM   23  N3  UNL     1      29.657   1.793   8.209  1.00  0.00    -0.367 N 
HETATM   24  C9  UNL     1      28.798   2.182   9.293  1.00  0.00     0.127 C 
HETATM   25  C10 UNL     1      28.338   0.906   9.976  1.00  0.00     0.051 C 
HETATM   26  C11 UNL     1      29.503   0.036  10.385  1.00  0.00     0.121 C 
HETATM   27  C12 UNL     1      30.479  -0.186   9.267  1.00  0.00     0.051 C 
HETATM   28  C13 UNL     1      30.883   1.094   8.584  1.00  0.00     0.127 C 
BRANCH  26  29
HETATM   29  O1  UNL     1      28.961  -1.226  10.713  1.00  0.00    -0.395 OA
ATOM     30  H1  UNL     1      28.223  -1.060  11.287  1.00  0.00     0.210 HD
ENDBRANCH  26  29
ENDBRANCH   4  23
BRANCH   1  31
HETATM   31  N1  UNL     1      30.692   0.824   3.821  1.00  0.00    -0.226 N 
ATOM     32  H1  UNL     1      31.692   0.825   4.023  1.00  0.00     0.177 HD
BRANCH  31  33
HETATM   33  C6  UNL     1      30.277   0.051   2.703  1.00  0.00     0.138 C 
BRANCH  33  34
HETATM   34  C5  UNL     1      29.530  -1.174   3.250  1.00  0.00     0.020 C 
BRANCH  34  35
HETATM   35  C4  UNL     1      28.092  -1.009   2.850  1.00  0.00     0.002 C 
BRANCH  35  36
HETATM   36  C3  UNL     1      27.236  -0.873   4.068  1.00  0.00    -0.000 C 
BRANCH  36  37
HETATM   37  C2  UNL     1      26.272   0.270   3.995  1.00  0.00    -0.005 C 
HETATM   38  C1  UNL     1      26.476   0.995   2.676  1.00  0.00     0.005 C 
ENDBRANCH  36  37
ENDBRANCH  35  36
ENDBRANCH  34  35
ENDBRANCH  33  34
ENDBRANCH  31  33
ENDBRANCH   1  31
TORSDOF 11
ENDMDL
MODEL 4
REMARK VINA RESULT: -5.923115386      1.389      2.062
REMARK  11 active torsions:
REMARK  status: ('A' for Active; 'I' for Inactive)
REMARK    1  A    between atoms: C2_2  and  C3_3 
REMARK    2  A    between atoms: C3_3  and  C4_4 
REMARK    3  A    between atoms: C4_4  and  C5_5 
REMARK    4  A    between atoms: C5_5  and  C6_6 
REMARK    5  A    between atoms: C6_6  and  N1_7 
REMARK    6  A    between atoms: N1_7  and  C7_9 
REMARK    7  A    between atoms: C8_12  and  N3_13 
REMARK    8  A    between atoms: C11_16  and  O1_17 
REMARK    9  A    between atoms: C15_22  and  N4_23 
REMARK   10  A    between atoms: C17_25  and  C19_27 
REMARK   11  A    between atoms: C21_32  and  N5_33 
ROOT
HETATM    1  C7  UNL     1      29.706   1.574   3.964  1.00  0.00     0.681 A 
HETATM    2  N2  UNL     1      30.006   1.498   5.270  1.00  0.00    -0.177 N 
ATOM      3  H2  UNL     1      30.909   1.104   5.535  1.00  0.00     0.185 HD
HETATM    4  C8  UNL     1      29.183   1.914   6.249  1.00  0.00     0.122 A 
HETATM    5  C14 UNL     1      27.984   2.438   5.895  1.00  0.00     0.097 A 
HETATM    6  C15 UNL     1      27.618   2.542   4.554  1.00  0.00     0.124 A 
HETATM    7  N6  UNL     1      28.509   2.100   3.657  1.00  0.00    -0.177 N 
ATOM      8  H6  UNL     1      28.261   2.168   2.670  1.00  0.00     0.185 HD
ENDROOT
BRANCH   6   9
HETATM    9  N4  UNL     1      26.365   3.089   4.171  1.00  0.00    -0.338 N 
HETATM   10  C16 UNL     1      25.891   4.412   4.491  1.00  0.00     0.145 C 
HETATM   11  C17 UNL     1      24.419   4.355   4.257  1.00  0.00     0.074 C 
HETATM   12  C18 UNL     1      23.729   3.762   5.466  1.00  0.00     0.026 C 
HETATM   13  C20 UNL     1      24.285   3.405   3.096  1.00  0.00     0.074 C 
HETATM   14  C21 UNL     1      25.368   2.392   3.393  1.00  0.00     0.286 C 
BRANCH  11  15
HETATM   15  C19 UNL     1      23.845   5.707   3.898  1.00  0.00     0.396 C 
HETATM   16  F1  UNL     1      24.330   6.029   2.632  1.00  0.00    -0.170 F 
HETATM   17  F2  UNL     1      22.470   5.579   3.882  1.00  0.00    -0.170 F 
HETATM   18  F3  UNL     1      24.293   6.615   4.813  1.00  0.00    -0.170 F 
ENDBRANCH  11  15
BRANCH  14  19
HETATM   19  N5  UNL     1      24.842   1.222   4.067  1.00  0.00    -0.058 N 
ATOM     20  H53 UNL     1      23.867   1.063   3.813  1.00  0.00     0.276 HD
ATOM     21  H52 UNL     1      25.254   0.369   3.691  1.00  0.00     0.276 HD
ATOM     22  H51 UNL     1      24.953   1.264   5.081  1.00  0.00     0.276 HD
ENDBRANCH  14  19
ENDBRANCH   6   9
BRANCH   4  23
HETATM   23  N3  UNL     1      29.598   1.788   7.590  1.00  0.00    -0.367 N 
HETATM   24  C9  UNL     1      29.162   2.618   8.679  1.00  0.00     0.127 C 
HETATM   25  C10 UNL     1      28.430   1.716   9.659  1.00  0.00     0.051 C 
HETATM   26  C11 UNL     1      29.275   0.536  10.075  1.00  0.00     0.121 C 
HETATM   27  C12 UNL     1      29.871  -0.190   8.904  1.00  0.00     0.051 C 
HETATM   28  C13 UNL     1      30.552   0.736   7.931  1.00  0.00     0.127 C 
BRANCH  26  29
HETATM   29  O1  UNL     1      28.403  -0.370  10.718  1.00  0.00    -0.395 OA
ATOM     30  H1  UNL     1      28.158   0.034  11.542  1.00  0.00     0.210 HD
ENDBRANCH  26  29
ENDBRANCH   4  23
BRANCH   1  31
HETATM   31  N1  UNL     1      30.562   1.150   3.126  1.00  0.00    -0.226 N 
ATOM     32  H1  UNL     1      31.444   1.662   3.083  1.00  0.00     0.177 HD
BRANCH  31  33
HETATM   33  C6  UNL     1      30.433   0.046   2.241  1.00  0.00     0.138 C 
BRANCH  33  34
HETATM   34  C5  UNL     1      30.904  -1.202   3.000  1.00  0.00     0.020 C 
BRANCH  34  35
HETATM   35  C4  UNL     1      29.664  -1.937   3.422  1.00  0.00     0.002 C 
BRANCH  35  36
HETATM   36  C3  UNL     1      28.454  -1.254   2.868  1.00  0.00    -0.000 C 
BRANCH  36  37
HETATM   37  C2  UNL     1      27.379  -1.029   3.884  1.00  0.00    -0.005 C 
HETATM   38  C1  UNL     1      26.457  -2.237   3.892  1.00  0.00     0.005 C 
ENDBRANCH  36  37
ENDBRANCH  35  36
ENDBRANCH  34  35
ENDBRANCH  33  34
ENDBRANCH  31  33
ENDBRANCH   1  31
TORSDOF 11
ENDMDL
MODEL 5
REMARK VINA RESULT: -4.972882991      4.058      6.599
REMARK  11 active torsions:
REMARK  status: ('A' for Active; 'I' for Inactive)
REMARK    1  A    between atoms: C2_2  and  C3_3 
REMARK    2  A    between atoms: C3_3  and  C4_4 
REMARK    3  A    between atoms: C4_4  and  C5_5 
REMARK    4  A    between atoms: C5_5  and  C6_6 
REMARK    5  A    between atoms: C6_6  and  N1_7 
REMARK    6  A    between atoms: N1_7  and  C7_9 
REMARK    7  A    between atoms: C8_12  and  N3_13 
REMARK    8  A    between atoms: C11_16  and  O1_17 
REMARK    9  A    between atoms: C15_22  and  N4_23 
REMARK   10  A    between atoms: C17_25  and  C19_27 
REMARK   11  A    between atoms: C21_32  and  N5_33 
ROOT
HETATM    1  C7  UNL     1      29.806   1.398   3.595  1.00  0.00     0.681 A 
HETATM    2  N2  UNL     1      28.879   2.272   3.173  1.00  0.00    -0.177 N 
ATOM      3  H2  UNL     1      28.765   2.406   2.168  1.00  0.00     0.185 HD
HETATM    4  C8  UNL     1      28.092   2.981   4.000  1.00  0.00     0.122 A 
HETATM    5  C14 UNL     1      28.244   2.802   5.335  1.00  0.00     0.097 A 
HETATM    6  C15 UNL     1      29.190   1.907   5.833  1.00  0.00     0.124 A 
HETATM    7  N6  UNL     1      29.923   1.250   4.924  1.00  0.00    -0.177 N 
ATOM      8  H6  UNL     1      30.621   0.590   5.267  1.00  0.00     0.185 HD
ENDROOT
BRANCH   6   9
HETATM    9  N4  UNL     1      29.359   1.711   7.229  1.00  0.00    -0.338 N 
HETATM   10  C16 UNL     1      30.093   0.634   7.844  1.00  0.00     0.145 C 
HETATM   11  C17 UNL     1      29.627   0.619   9.261  1.00  0.00     0.074 C 
HETATM   12  C18 UNL     1      28.324  -0.144   9.366  1.00  0.00     0.026 C 
HETATM   13  C20 UNL     1      29.374   2.072   9.564  1.00  0.00     0.074 C 
HETATM   14  C21 UNL     1      28.813   2.572   8.251  1.00  0.00     0.286 C 
BRANCH  11  15
HETATM   15  C19 UNL     1      30.673   0.062  10.201  1.00  0.00     0.396 C 
HETATM   16  F1  UNL     1      30.299   0.437  11.490  1.00  0.00    -0.170 F 
HETATM   17  F2  UNL     1      30.660  -1.312  10.064  1.00  0.00    -0.170 F 
HETATM   18  F3  UNL     1      31.873   0.626   9.882  1.00  0.00    -0.170 F 
ENDBRANCH  11  15
BRANCH  14  19
HETATM   19  N5  UNL     1      27.364   2.593   8.257  1.00  0.00    -0.058 N 
ATOM     20  H53 UNL     1      26.990   1.833   8.825  1.00  0.00     0.276 HD
ATOM     21  H52 UNL     1      27.013   3.388   8.790  1.00  0.00     0.276 HD
ATOM     22  H51 UNL     1      26.962   2.578   7.319  1.00  0.00     0.276 HD
ENDBRANCH  14  19
ENDBRANCH   6   9
BRANCH   4  23
HETATM   23  N3  UNL     1      27.150   3.873   3.449  1.00  0.00    -0.367 N 
HETATM   24  C9  UNL     1      25.730   3.661   3.402  1.00  0.00     0.127 C 
HETATM   25  C10 UNL     1      25.088   4.757   4.235  1.00  0.00     0.051 C 
HETATM   26  C11 UNL     1      25.527   6.131   3.789  1.00  0.00     0.121 C 
HETATM   27  C12 UNL     1      27.019   6.250   3.666  1.00  0.00     0.051 C 
HETATM   28  C13 UNL     1      27.628   5.126   2.871  1.00  0.00     0.127 C 
BRANCH  26  29
HETATM   29  O1  UNL     1      25.128   7.026   4.806  1.00  0.00    -0.395 OA
ATOM     30  H1  UNL     1      24.550   7.658   4.395  1.00  0.00     0.210 HD
ENDBRANCH  26  29
ENDBRANCH   4  23
BRANCH   1  31
HETATM   31  N1  UNL     1      30.493   0.782   2.721  1.00  0.00    -0.226 N 
ATOM     32  H1  UNL     1      31.402   1.187   2.493  1.00  0.00     0.177 HD
BRANCH  31  33
HETATM   33  C6  UNL     1      30.142  -0.406   2.024  1.00  0.00     0.138 C 
BRANCH  33  34
HETATM   34  C5  UNL     1      30.539  -1.590   2.917  1.00  0.00     0.020 C 
BRANCH  34  35
HETATM   35  C4  UNL     1      29.320  -1.949   3.716  1.00  0.00     0.002 C 
BRANCH  35  36
HETATM   36  C3  UNL     1      28.116  -1.278   3.136  1.00  0.00    -0.000 C 
BRANCH  36  37
HETATM   37  C2  UNL     1      26.911  -1.348   4.021  1.00  0.00    -0.005 C 
HETATM   38  C1  UNL     1      26.260   0.024   4.067  1.00  0.00     0.005 C 
ENDBRANCH  36  37
ENDBRANCH  35  36
ENDBRANCH  34  35
ENDBRANCH  33  34
ENDBRANCH  31  33
ENDBRANCH   1  31
TORSDOF 11
ENDMDL
