MODEL 1
REMARK VINA RESULT: -7.207117736      0.000      0.000
REMARK  9 active torsions:
REMARK  status: ('A' for Active; 'I' for Inactive)
REMARK    1  A    between atoms: C2_2  and  C3_3 
REMARK    2  A    between atoms: C3_3  and  C4_4 
REMARK    3  A    between atoms: C4_4  and  C5_5 
REMARK    4  A    between atoms: C5_5  and  C6_6 
REMARK    5  A    between atoms: C6_6  and  C7_7 
REMARK    6  A    between atoms: C7_7  and  C8_8 
REMARK    7  A    between atoms: C8_8  and  N1_9 
REMARK    8  A    between atoms: C14_18  and  N3_19 
REMARK    9  A    between atoms: N3_19  and  C15_21 
ROOT
HETATM    1  N1  UNL     1      35.254   9.034   1.706  1.00  0.00    -0.343 N 
HETATM    2  C9  UNL     1      34.883   9.670   0.523  1.00  0.00     0.166 C 
HETATM    3  C10 UNL     1      33.565   9.218  -0.026  1.00  0.00     0.257 C 
HETATM    4  O1  UNL     1      33.599   8.839  -1.221  1.00  0.00    -0.267 OA
HETATM    5  N2  UNL     1      32.342   9.190   0.676  1.00  0.00    -0.352 N 
ATOM      6  H2  UNL     1      31.537   8.858   0.144  1.00  0.00     0.163 HD
HETATM    7  C11 UNL     1      32.073   9.565   2.043  1.00  0.00     0.084 C 
HETATM    8  C12 UNL     1      30.733   9.008   2.483  1.00  0.00     0.032 C 
HETATM    9  C13 UNL     1      33.178   9.236   2.998  1.00  0.00     0.072 C 
HETATM   10  C14 UNL     1      34.231   8.323   2.423  1.00  0.00     0.207 C 
ENDROOT
BRANCH   1  11
HETATM   11  C8  UNL     1      36.552   8.535   1.808  1.00  0.00     0.066 C 
BRANCH  11  12
HETATM   12  C7  UNL     1      37.062   8.220   3.181  1.00  0.00     0.045 C 
BRANCH  12  13
HETATM   13  C6  UNL     1      37.444   9.343   4.056  1.00  0.00     0.005 C 
BRANCH  13  14
HETATM   14  C5  UNL     1      36.406   9.502   5.171  1.00  0.00     0.000 C 
BRANCH  14  15
HETATM   15  C4  UNL     1      35.812  10.863   5.166  1.00  0.00     0.000 C 
BRANCH  15  16
HETATM   16  C3  UNL     1      35.099  11.173   6.482  1.00  0.00    -0.000 C 
BRANCH  16  17
HETATM   17  C2  UNL     1      34.085  10.134   6.836  1.00  0.00    -0.005 C 
HETATM   18  C1  UNL     1      32.717  10.557   6.282  1.00  0.00     0.005 C 
ENDBRANCH  16  17
ENDBRANCH  15  16
ENDBRANCH  14  15
ENDBRANCH  13  14
ENDBRANCH  12  13
ENDBRANCH  11  12
ENDBRANCH   1  11
BRANCH  10  19
HETATM   19  N3  UNL     1      33.672   7.211   1.708  1.00  0.00    -0.202 N 
ATOM     20  H3  UNL     1      32.910   7.400   1.058  1.00  0.00     0.180 HD
BRANCH  19  21
HETATM   21  C15 UNL     1      34.067   5.990   1.828  1.00  0.00     0.706 A 
HETATM   22  N4  UNL     1      34.840   5.274   2.633  1.00  0.00    -0.115 N 
HETATM   23  N5  UNL     1      34.621   4.159   1.959  1.00  0.00     0.007 NA
ATOM     24  H4  UNL     1      35.394   5.499   3.459  1.00  0.00     0.203 HD
HETATM   25  N6  UNL     1      33.844   4.855   1.141  1.00  0.00    -0.115 N 
ATOM     26  H6  UNL     1      33.293   4.621   0.315  1.00  0.00     0.203 HD
ENDBRANCH  19  21
ENDBRANCH  10  19
TORSDOF 9
ENDMDL
MODEL 2
REMARK VINA RESULT: -7.146461313      0.912      1.298
REMARK  9 active torsions:
REMARK  status: ('A' for Active; 'I' for Inactive)
REMARK    1  A    between atoms: C2_2  and  C3_3 
REMARK    2  A    between atoms: C3_3  and  C4_4 
REMARK    3  A    between atoms: C4_4  and  C5_5 
REMARK    4  A    between atoms: C5_5  and  C6_6 
REMARK    5  A    between atoms: C6_6  and  C7_7 
REMARK    6  A    between atoms: C7_7  and  C8_8 
REMARK    7  A    between atoms: C8_8  and  N1_9 
REMARK    8  A    between atoms: C14_18  and  N3_19 
REMARK    9  A    between atoms: N3_19  and  C15_21 
ROOT
HETATM    1  N1  UNL     1      35.054   9.614   2.345  1.00  0.00    -0.343 N 
HETATM    2  C9  UNL     1      34.996  10.525   1.292  1.00  0.00     0.166 C 
HETATM    3  C10 UNL     1      33.966  10.196   0.256  1.00  0.00     0.257 C 
HETATM    4  O1  UNL     1      34.405  10.140  -0.918  1.00  0.00    -0.267 OA
HETATM    5  N2  UNL     1      32.597   9.954   0.496  1.00  0.00    -0.352 N 
ATOM      6  H2  UNL     1      32.034   9.749  -0.330  1.00  0.00     0.163 HD
HETATM    7  C11 UNL     1      31.884   9.955   1.751  1.00  0.00     0.084 C 
HETATM    8  C12 UNL     1      30.542   9.268   1.588  1.00  0.00     0.032 C 
HETATM    9  C13 UNL     1      32.672   9.419   2.905  1.00  0.00     0.072 C 
HETATM   10  C14 UNL     1      33.943   8.715   2.503  1.00  0.00     0.207 C 
ENDROOT
BRANCH   1  11
HETATM   11  C8  UNL     1      36.304   9.141   2.740  1.00  0.00     0.066 C 
BRANCH  11  12
HETATM   12  C7  UNL     1      36.458   8.714   4.167  1.00  0.00     0.045 C 
BRANCH  12  13
HETATM   13  C6  UNL     1      36.898   9.720   5.151  1.00  0.00     0.005 C 
BRANCH  13  14
HETATM   14  C5  UNL     1      35.677  10.454   5.715  1.00  0.00     0.000 C 
BRANCH  14  15
HETATM   15  C4  UNL     1      34.650   9.499   6.203  1.00  0.00     0.000 C 
BRANCH  15  16
HETATM   16  C3  UNL     1      33.471  10.221   6.854  1.00  0.00    -0.000 C 
BRANCH  16  17
HETATM   17  C2  UNL     1      32.904  11.289   5.975  1.00  0.00    -0.005 C 
HETATM   18  C1  UNL     1      31.408  11.022   5.760  1.00  0.00     0.005 C 
ENDBRANCH  16  17
ENDBRANCH  15  16
ENDBRANCH  14  15
ENDBRANCH  13  14
ENDBRANCH  12  13
ENDBRANCH  11  12
ENDBRANCH   1  11
BRANCH  10  19
HETATM   19  N3  UNL     1      33.754   7.812   1.403  1.00  0.00    -0.202 N 
ATOM     20  H3  UNL     1      33.418   8.201   0.522  1.00  0.00     0.180 HD
BRANCH  19  21
HETATM   21  C15 UNL     1      33.980   6.544   1.449  1.00  0.00     0.706 A 
HETATM   22  N4  UNL     1      33.764   5.471   0.699  1.00  0.00    -0.115 N 
HETATM   23  N5  UNL     1      34.344   4.664   1.572  1.00  0.00     0.007 NA
ATOM     24  H4  UNL     1      33.320   5.325  -0.207  1.00  0.00     0.203 HD
HETATM   25  N6  UNL     1      34.569   5.722   2.337  1.00  0.00    -0.115 N 
ATOM     26  H6  UNL     1      35.015   5.860   3.245  1.00  0.00     0.203 HD
ENDBRANCH  19  21
ENDBRANCH  10  19
TORSDOF 9
ENDMDL
MODEL 3
REMARK VINA RESULT: -7.071178683      2.157      3.556
REMARK  9 active torsions:
REMARK  status: ('A' for Active; 'I' for Inactive)
REMARK    1  A    between atoms: C2_2  and  C3_3 
REMARK    2  A    between atoms: C3_3  and  C4_4 
REMARK    3  A    between atoms: C4_4  and  C5_5 
REMARK    4  A    between atoms: C5_5  and  C6_6 
REMARK    5  A    between atoms: C6_6  and  C7_7 
REMARK    6  A    between atoms: C7_7  and  C8_8 
REMARK    7  A    between atoms: C8_8  and  N1_9 
REMARK    8  A    between atoms: C14_18  and  N3_19 
REMARK    9  A    between atoms: N3_19  and  C15_21 
ROOT
HETATM    1  N1  UNL     1      34.630   9.582   1.311  1.00  0.00    -0.343 N 
HETATM    2  C9  UNL     1      35.107   8.339   0.899  1.00  0.00     0.166 C 
HETATM    3  C10 UNL     1      34.042   7.408   0.409  1.00  0.00     0.257 C 
HETATM    4  O1  UNL     1      34.031   6.285   0.968  1.00  0.00    -0.267 OA
HETATM    5  N2  UNL     1      33.092   7.692  -0.595  1.00  0.00    -0.352 N 
ATOM      6  H2  UNL     1      32.440   6.937  -0.811  1.00  0.00     0.163 HD
HETATM    7  C11 UNL     1      32.915   8.905  -1.357  1.00  0.00     0.084 C 
HETATM    8  C12 UNL     1      31.553   8.905  -2.025  1.00  0.00     0.032 C 
HETATM    9  C13 UNL     1      33.181  10.159  -0.585  1.00  0.00     0.072 C 
HETATM   10  C14 UNL     1      33.300   9.947   0.903  1.00  0.00     0.207 C 
ENDROOT
BRANCH   1  11
HETATM   11  C8  UNL     1      35.071  10.088   2.533  1.00  0.00     0.066 C 
BRANCH  11  12
HETATM   12  C7  UNL     1      36.250   9.418   3.169  1.00  0.00     0.045 C 
BRANCH  12  13
HETATM   13  C6  UNL     1      36.159   9.056   4.595  1.00  0.00     0.005 C 
BRANCH  13  14
HETATM   14  C5  UNL     1      34.689   9.025   5.025  1.00  0.00     0.000 C 
BRANCH  14  15
HETATM   15  C4  UNL     1      34.500   9.667   6.350  1.00  0.00     0.000 C 
BRANCH  15  16
HETATM   16  C3  UNL     1      33.117  10.304   6.477  1.00  0.00    -0.000 C 
BRANCH  16  17
HETATM   17  C2  UNL     1      32.436  10.451   5.155  1.00  0.00    -0.005 C 
HETATM   18  C1  UNL     1      30.990  10.915   5.382  1.00  0.00     0.005 C 
ENDBRANCH  16  17
ENDBRANCH  15  16
ENDBRANCH  14  15
ENDBRANCH  13  14
ENDBRANCH  12  13
ENDBRANCH  11  12
ENDBRANCH   1  11
BRANCH  10  19
HETATM   19  N3  UNL     1      32.268   9.098   1.428  1.00  0.00    -0.202 N 
ATOM     20  H3  UNL     1      32.483   8.109   1.549  1.00  0.00     0.180 HD
BRANCH  19  21
HETATM   21  C15 UNL     1      31.088   9.498   1.759  1.00  0.00     0.706 A 
HETATM   22  N4  UNL     1      30.383  10.622   1.744  1.00  0.00    -0.115 N 
HETATM   23  N5  UNL     1      29.320  10.038   2.269  1.00  0.00     0.007 NA
ATOM     24  H4  UNL     1      30.585  11.574   1.442  1.00  0.00     0.203 HD
HETATM   25  N6  UNL     1      30.006   8.904   2.294  1.00  0.00    -0.115 N 
ATOM     26  H6  UNL     1      29.796   7.953   2.598  1.00  0.00     0.203 HD
ENDBRANCH  19  21
ENDBRANCH  10  19
TORSDOF 9
ENDMDL
MODEL 4
REMARK VINA RESULT: -7.066412290      1.660      3.334
REMARK  9 active torsions:
REMARK  status: ('A' for Active; 'I' for Inactive)
REMARK    1  A    between atoms: C2_2  and  C3_3 
REMARK    2  A    between atoms: C3_3  and  C4_4 
REMARK    3  A    between atoms: C4_4  and  C5_5 
REMARK    4  A    between atoms: C5_5  and  C6_6 
REMARK    5  A    between atoms: C6_6  and  C7_7 
REMARK    6  A    between atoms: C7_7  and  C8_8 
REMARK    7  A    between atoms: C8_8  and  N1_9 
REMARK    8  A    between atoms: C14_18  and  N3_19 
REMARK    9  A    between atoms: N3_19  and  C15_21 
ROOT
HETATM    1  N1  UNL     1      32.431  10.225   2.936  1.00  0.00    -0.343 N 
HETATM    2  C9  UNL     1      33.210  11.350   2.672  1.00  0.00     0.166 C 
HETATM    3  C10 UNL     1      34.245  11.140   1.611  1.00  0.00     0.257 C 
HETATM    4  O1  UNL     1      35.413  11.443   1.954  1.00  0.00    -0.267 OA
HETATM    5  N2  UNL     1      34.011  10.647   0.311  1.00  0.00    -0.352 N 
ATOM      6  H2  UNL     1      34.834  10.574  -0.288  1.00  0.00     0.163 HD
HETATM    7  C11 UNL     1      32.765  10.233  -0.289  1.00  0.00     0.084 C 
HETATM    8  C12 UNL     1      33.035   9.417  -1.539  1.00  0.00     0.032 C 
HETATM    9  C13 UNL     1      31.827   9.549   0.655  1.00  0.00     0.072 C 
HETATM   10  C14 UNL     1      32.457   9.161   1.969  1.00  0.00     0.207 C 
ENDROOT
BRANCH   1  11
HETATM   11  C8  UNL     1      32.231   9.858   4.266  1.00  0.00     0.066 C 
BRANCH  11  12
HETATM   12  C7  UNL     1      32.589  10.861   5.318  1.00  0.00     0.045 C 
BRANCH  12  13
HETATM   13  C6  UNL     1      33.175  10.369   6.578  1.00  0.00     0.005 C 
BRANCH  13  14
HETATM   14  C5  UNL     1      34.484   9.630   6.283  1.00  0.00     0.000 C 
BRANCH  14  15
HETATM   15  C4  UNL     1      35.571  10.576   5.927  1.00  0.00     0.000 C 
BRANCH  15  16
HETATM   16  C3  UNL     1      36.707   9.877   5.182  1.00  0.00    -0.000 C 
BRANCH  16  17
HETATM   17  C2  UNL     1      36.212   8.792   4.281  1.00  0.00    -0.005 C 
HETATM   18  C1  UNL     1      37.313   8.434   3.273  1.00  0.00     0.005 C 
ENDBRANCH  16  17
ENDBRANCH  15  16
ENDBRANCH  14  15
ENDBRANCH  13  14
ENDBRANCH  12  13
ENDBRANCH  11  12
ENDBRANCH   1  11
BRANCH  10  19
HETATM   19  N3  UNL     1      33.742   8.542   1.808  1.00  0.00    -0.202 N 
ATOM     20  H3  UNL     1      34.561   9.149   1.781  1.00  0.00     0.180 HD
BRANCH  19  21
HETATM   21  C15 UNL     1      33.934   7.272   1.697  1.00  0.00     0.706 A 
HETATM   22  N4  UNL     1      34.428   6.278   2.423  1.00  0.00    -0.115 N 
HETATM   23  N5  UNL     1      34.196   5.385   1.475  1.00  0.00     0.007 NA
ATOM     24  H4  UNL     1      34.832   6.223   3.357  1.00  0.00     0.203 HD
HETATM   25  N6  UNL     1      33.699   6.364   0.733  1.00  0.00    -0.115 N 
ATOM     26  H6  UNL     1      33.295   6.410  -0.203  1.00  0.00     0.203 HD
ENDBRANCH  19  21
ENDBRANCH  10  19
TORSDOF 9
ENDMDL
MODEL 5
REMARK VINA RESULT: -7.058933747      3.088      6.294
REMARK  9 active torsions:
REMARK  status: ('A' for Active; 'I' for Inactive)
REMARK    1  A    between atoms: C2_2  and  C3_3 
REMARK    2  A    between atoms: C3_3  and  C4_4 
REMARK    3  A    between atoms: C4_4  and  C5_5 
REMARK    4  A    between atoms: C5_5  and  C6_6 
REMARK    5  A    between atoms: C6_6  and  C7_7 
REMARK    6  A    between atoms: C7_7  and  C8_8 
REMARK    7  A    between atoms: C8_8  and  N1_9 
REMARK    8  A    between atoms: C14_18  and  N3_19 
REMARK    9  A    between atoms: N3_19  and  C15_21 
ROOT
HETATM    1  N1  UNL     1      34.200   8.544   0.983  1.00  0.00    -0.343 N 
HETATM    2  C9  UNL     1      35.157   9.554   0.895  1.00  0.00     0.166 C 
HETATM    3  C10 UNL     1      35.100  10.548   2.013  1.00  0.00     0.257 C 
HETATM    4  O1  UNL     1      35.016  11.744   1.646  1.00  0.00    -0.267 OA
HETATM    5  N2  UNL     1      35.132  10.247   3.391  1.00  0.00    -0.352 N 
ATOM      6  H2  UNL     1      35.091  11.050   4.019  1.00  0.00     0.163 HD
HETATM    7  C11 UNL     1      35.216   8.958   4.035  1.00  0.00     0.084 C 
HETATM    8  C12 UNL     1      34.828   9.079   5.496  1.00  0.00     0.032 C 
HETATM    9  C13 UNL     1      34.470   7.869   3.327  1.00  0.00     0.072 C 
HETATM   10  C14 UNL     1      33.542   8.367   2.248  1.00  0.00     0.207 C 
ENDROOT
BRANCH   1  11
HETATM   11  C8  UNL     1      33.460   8.235  -0.158  1.00  0.00     0.066 C 
BRANCH  11  12
HETATM   12  C7  UNL     1      33.035   9.374  -1.032  1.00  0.00     0.045 C 
BRANCH  12  13
HETATM   13  C6  UNL     1      32.568   9.068  -2.396  1.00  0.00     0.005 C 
BRANCH  13  14
HETATM   14  C5  UNL     1      31.037   9.048  -2.423  1.00  0.00     0.000 C 
BRANCH  14  15
HETATM   15  C4  UNL     1      30.466   9.929  -1.373  1.00  0.00     0.000 C 
BRANCH  15  16
HETATM   16  C3  UNL     1      29.043  10.367  -1.715  1.00  0.00    -0.000 C 
BRANCH  16  17
HETATM   17  C2  UNL     1      28.521   9.691  -2.941  1.00  0.00    -0.005 C 
HETATM   18  C1  UNL     1      27.447  10.579  -3.587  1.00  0.00     0.005 C 
ENDBRANCH  16  17
ENDBRANCH  15  16
ENDBRANCH  14  15
ENDBRANCH  13  14
ENDBRANCH  12  13
ENDBRANCH  11  12
ENDBRANCH   1  11
BRANCH  10  19
HETATM   19  N3  UNL     1      32.755   9.492   2.667  1.00  0.00    -0.202 N 
ATOM     20  H3  UNL     1      33.248  10.344   2.931  1.00  0.00     0.180 HD
BRANCH  19  21
HETATM   21  C15 UNL     1      31.467   9.501   2.732  1.00  0.00     0.706 A 
HETATM   22  N4  UNL     1      30.515  10.135   3.403  1.00  0.00    -0.115 N 
HETATM   23  N5  UNL     1      29.550   9.474   2.786  1.00  0.00     0.007 NA
ATOM     24  H4  UNL     1      30.523  10.858   4.122  1.00  0.00     0.203 HD
HETATM   25  N6  UNL     1      30.486   8.828   2.105  1.00  0.00    -0.115 N 
ATOM     26  H6  UNL     1      30.468   8.104   1.386  1.00  0.00     0.203 HD
ENDBRANCH  19  21
ENDBRANCH  10  19
TORSDOF 9
ENDMDL
