MODEL 1
REMARK VINA RESULT: -8.015502057      0.000      0.000
REMARK  6 active torsions:
REMARK  status: ('A' for Active; 'I' for Inactive)
REMARK    1  A    between atoms: C1_2  and  C2_3 
REMARK       I    between atoms: C1_2  and  N1_11 
REMARK    2  A    between atoms: C2_3  and  C3_4 
REMARK    3  A    between atoms: N1_11  and  C10_13 
REMARK    4  A    between atoms: C10_13  and  C11_14 
REMARK    5  A    between atoms: C11_14  and  C12_15 
REMARK    6  A    between atoms: C13_18  and  C14_19 
ROOT
HETATM    1  O1  UNL     1      -0.030  63.168  86.769  1.00  0.00    -0.274 OA
HETATM    2  C1  UNL     1      -0.094  62.826  85.574  1.00  0.00     0.217 C 
HETATM    3  N1  UNL     1      -1.139  63.290  84.753  1.00  0.00    -0.361 N 
ATOM      4  H1  UNL     1      -1.177  62.997  83.777  1.00  0.00     0.162 HD
ENDROOT
BRANCH   3   5
HETATM    5  C10 UNL     1      -2.151  64.167  85.265  1.00  0.00     0.130 C 
BRANCH   5   6
HETATM    6  C11 UNL     1      -2.514  65.222  84.278  1.00  0.00     0.106 C 
BRANCH   6   7
HETATM    7  C12 UNL     1      -3.198  64.522  83.133  1.00  0.00     0.149 A 
HETATM    8  N2  UNL     1      -4.427  64.001  83.133  1.00  0.00    -0.326 N 
HETATM    9  C13 UNL     1      -4.692  63.459  81.933  1.00  0.00     0.108 A 
ATOM     10  H2  UNL     1      -5.069  64.013  83.926  1.00  0.00     0.169 HD
HETATM   11  N3  UNL     1      -3.574  63.674  81.213  1.00  0.00    -0.247 N 
HETATM   12  O2  UNL     1      -2.699  64.305  81.937  1.00  0.00    -0.223 OA
ATOM     13  H3  UNL     1      -3.436  63.386  80.245  1.00  0.00     0.196 HD
BRANCH   9  14
HETATM   14  C14 UNL     1      -5.938  62.775  81.498  1.00  0.00     0.055 A 
HETATM   15  C15 UNL     1      -6.948  62.368  82.487  1.00  0.00     0.013 A 
HETATM   16  C16 UNL     1      -6.029  61.342  81.932  1.00  0.00     0.013 A 
ENDBRANCH   9  14
ENDBRANCH   6   7
ENDBRANCH   5   6
ENDBRANCH   3   5
BRANCH   2  17
HETATM   17  C2  UNL     1       0.933  61.928  85.008  1.00  0.00     0.107 C 
BRANCH  17  18
HETATM   18  C3  UNL     1       0.299  60.706  84.353  1.00  0.00    -0.005 C 
HETATM   19  C4  UNL     1      -0.383  59.827  85.347  1.00  0.00     0.009 C 
HETATM   20  C5  UNL     1      -0.128  58.367  85.141  1.00  0.00    -0.013 C 
HETATM   21  C6  UNL     1       1.339  58.043  85.007  1.00  0.00     0.009 C 
HETATM   22  C9  UNL     1      -0.241  58.108  83.632  1.00  0.00     0.009 C 
HETATM   23  C7  UNL     1       1.237  58.519  83.574  1.00  0.00    -0.013 C 
HETATM   24  C8  UNL     1       1.273  60.012  83.464  1.00  0.00     0.009 C 
ENDBRANCH  17  18
ENDBRANCH   2  17
TORSDOF 6
ENDMDL
MODEL 2
REMARK VINA RESULT: -7.866371905      4.468      6.809
REMARK  6 active torsions:
REMARK  status: ('A' for Active; 'I' for Inactive)
REMARK    1  A    between atoms: C1_2  and  C2_3 
REMARK       I    between atoms: C1_2  and  N1_11 
REMARK    2  A    between atoms: C2_3  and  C3_4 
REMARK    3  A    between atoms: N1_11  and  C10_13 
REMARK    4  A    between atoms: C10_13  and  C11_14 
REMARK    5  A    between atoms: C11_14  and  C12_15 
REMARK    6  A    between atoms: C13_18  and  C14_19 
ROOT
HETATM    1  O1  UNL     1       1.678  59.051  84.794  1.00  0.00    -0.274 OA
HETATM    2  C1  UNL     1       0.586  58.810  85.339  1.00  0.00     0.217 C 
HETATM    3  N1  UNL     1       0.346  57.558  85.936  1.00  0.00    -0.361 N 
ATOM      4  H1  UNL     1      -0.556  57.377  86.376  1.00  0.00     0.162 HD
ENDROOT
BRANCH   3   5
HETATM    5  C10 UNL     1       1.348  56.533  85.936  1.00  0.00     0.130 C 
BRANCH   5   6
HETATM    6  C11 UNL     1       0.769  55.201  85.604  1.00  0.00     0.106 C 
BRANCH   6   7
HETATM    7  C12 UNL     1      -0.478  55.461  84.802  1.00  0.00     0.149 A 
HETATM    8  N2  UNL     1      -1.721  55.087  85.111  1.00  0.00    -0.326 N 
HETATM    9  C13 UNL     1      -2.572  55.498  84.156  1.00  0.00     0.108 A 
ATOM     10  H2  UNL     1      -1.986  54.566  85.947  1.00  0.00     0.169 HD
HETATM   11  N3  UNL     1      -1.791  56.133  83.262  1.00  0.00    -0.247 N 
HETATM   12  O2  UNL     1      -0.554  56.104  83.658  1.00  0.00    -0.223 OA
ATOM     13  H3  UNL     1      -2.122  56.573  82.403  1.00  0.00     0.196 HD
BRANCH   9  14
HETATM   14  C14 UNL     1      -4.043  55.296  84.099  1.00  0.00     0.055 A 
HETATM   15  C15 UNL     1      -4.956  56.446  84.184  1.00  0.00     0.013 A 
HETATM   16  C16 UNL     1      -4.750  55.600  85.386  1.00  0.00     0.013 A 
ENDBRANCH   9  14
ENDBRANCH   6   7
ENDBRANCH   5   6
ENDBRANCH   3   5
BRANCH   2  17
HETATM   17  C2  UNL     1      -0.470  59.843  85.365  1.00  0.00     0.107 C 
BRANCH  17  18
HETATM   18  C3  UNL     1       0.050  61.151  85.950  1.00  0.00    -0.005 C 
HETATM   19  C4  UNL     1      -0.719  61.571  87.159  1.00  0.00     0.009 C 
HETATM   20  C5  UNL     1      -1.048  63.030  87.191  1.00  0.00    -0.013 C 
HETATM   21  C6  UNL     1      -1.688  63.514  85.914  1.00  0.00     0.009 C 
HETATM   22  C9  UNL     1       0.217  63.778  86.746  1.00  0.00     0.009 C 
HETATM   23  C7  UNL     1      -0.296  63.549  85.318  1.00  0.00    -0.013 C 
HETATM   24  C8  UNL     1       0.178  62.194  84.893  1.00  0.00     0.009 C 
ENDBRANCH  17  18
ENDBRANCH   2  17
TORSDOF 6
ENDMDL
MODEL 3
REMARK VINA RESULT: -7.728435505      4.402      6.982
REMARK  6 active torsions:
REMARK  status: ('A' for Active; 'I' for Inactive)
REMARK    1  A    between atoms: C1_2  and  C2_3 
REMARK       I    between atoms: C1_2  and  N1_11 
REMARK    2  A    between atoms: C2_3  and  C3_4 
REMARK    3  A    between atoms: N1_11  and  C10_13 
REMARK    4  A    between atoms: C10_13  and  C11_14 
REMARK    5  A    between atoms: C11_14  and  C12_15 
REMARK    6  A    between atoms: C13_18  and  C14_19 
ROOT
HETATM    1  O1  UNL     1       2.524  57.065  85.925  1.00  0.00    -0.274 OA
HETATM    2  C1  UNL     1       2.386  56.341  84.923  1.00  0.00     0.217 C 
HETATM    3  N1  UNL     1       1.611  56.774  83.830  1.00  0.00    -0.361 N 
ATOM      4  H1  UNL     1       1.507  56.166  83.017  1.00  0.00     0.162 HD
ENDROOT
BRANCH   3   5
HETATM    5  C10 UNL     1       0.966  58.053  83.840  1.00  0.00     0.130 C 
BRANCH   5   6
HETATM    6  C11 UNL     1      -0.294  58.027  84.634  1.00  0.00     0.106 C 
BRANCH   6   7
HETATM    7  C12 UNL     1      -0.335  59.312  85.419  1.00  0.00     0.149 A 
HETATM    8  N2  UNL     1       0.119  60.504  85.025  1.00  0.00    -0.326 N 
HETATM    9  C13 UNL     1      -0.091  61.412  85.992  1.00  0.00     0.108 A 
ATOM     10  H2  UNL     1       0.559  60.697  84.125  1.00  0.00     0.169 HD
HETATM   11  N3  UNL     1      -0.687  60.719  86.981  1.00  0.00    -0.247 N 
HETATM   12  O2  UNL     1      -0.825  59.477  86.627  1.00  0.00    -0.223 OA
ATOM     13  H3  UNL     1      -0.986  61.111  87.874  1.00  0.00     0.196 HD
BRANCH   9  14
HETATM   14  C14 UNL     1       0.257  62.857  85.975  1.00  0.00     0.055 A 
HETATM   15  C15 UNL     1      -0.404  63.794  86.896  1.00  0.00     0.013 A 
HETATM   16  C16 UNL     1      -0.846  63.744  85.480  1.00  0.00     0.013 A 
ENDBRANCH   9  14
ENDBRANCH   6   7
ENDBRANCH   5   6
ENDBRANCH   3   5
BRANCH   2  17
HETATM   17  C2  UNL     1       3.040  55.017  84.873  1.00  0.00     0.107 C 
BRANCH  17  18
HETATM   18  C3  UNL     1       2.203  54.016  84.085  1.00  0.00    -0.005 C 
HETATM   19  C4  UNL     1       1.762  52.866  84.929  1.00  0.00     0.009 C 
HETATM   20  C5  UNL     1       1.888  51.537  84.255  1.00  0.00    -0.013 C 
HETATM   21  C6  UNL     1       3.254  51.311  83.657  1.00  0.00     0.009 C 
HETATM   22  C9  UNL     1       1.377  51.719  82.818  1.00  0.00     0.009 C 
HETATM   23  C7  UNL     1       2.806  52.177  82.498  1.00  0.00    -0.013 C 
HETATM   24  C8  UNL     1       2.881  53.638  82.813  1.00  0.00     0.009 C 
ENDBRANCH  17  18
ENDBRANCH   2  17
TORSDOF 6
ENDMDL
MODEL 4
REMARK VINA RESULT: -7.649780165      5.440      9.122
REMARK  6 active torsions:
REMARK  status: ('A' for Active; 'I' for Inactive)
REMARK    1  A    between atoms: C1_2  and  C2_3 
REMARK       I    between atoms: C1_2  and  N1_11 
REMARK    2  A    between atoms: C2_3  and  C3_4 
REMARK    3  A    between atoms: N1_11  and  C10_13 
REMARK    4  A    between atoms: C10_13  and  C11_14 
REMARK    5  A    between atoms: C11_14  and  C12_15 
REMARK    6  A    between atoms: C13_18  and  C14_19 
ROOT
HETATM    1  O1  UNL     1       1.403  59.053  85.103  1.00  0.00    -0.274 OA
HETATM    2  C1  UNL     1       0.198  58.767  85.221  1.00  0.00     0.217 C 
HETATM    3  N1  UNL     1      -0.233  57.430  85.125  1.00  0.00    -0.361 N 
ATOM      4  H1  UNL     1      -1.225  57.215  85.221  1.00  0.00     0.162 HD
ENDROOT
BRANCH   3   5
HETATM    5  C10 UNL     1       0.700  56.366  84.894  1.00  0.00     0.130 C 
BRANCH   5   6
HETATM    6  C11 UNL     1       0.991  56.199  83.443  1.00  0.00     0.106 C 
BRANCH   6   7
HETATM    7  C12 UNL     1       1.257  54.732  83.224  1.00  0.00     0.149 A 
HETATM    8  N2  UNL     1       2.440  54.159  82.992  1.00  0.00    -0.326 N 
HETATM    9  C13 UNL     1       2.283  52.833  82.849  1.00  0.00     0.108 A 
ATOM     10  H2  UNL     1       3.330  54.654  82.932  1.00  0.00     0.169 HD
HETATM   11  N3  UNL     1       0.960  52.632  83.004  1.00  0.00    -0.247 N 
HETATM   12  O2  UNL     1       0.366  53.766  83.226  1.00  0.00    -0.223 OA
ATOM     13  H3  UNL     1       0.495  51.726  82.954  1.00  0.00     0.196 HD
BRANCH   9  14
HETATM   14  C14 UNL     1       3.332  51.816  82.579  1.00  0.00     0.055 A 
HETATM   15  C15 UNL     1       3.006  50.382  82.615  1.00  0.00     0.013 A 
HETATM   16  C16 UNL     1       3.703  50.991  83.775  1.00  0.00     0.013 A 
ENDBRANCH   9  14
ENDBRANCH   6   7
ENDBRANCH   5   6
ENDBRANCH   3   5
BRANCH   2  17
HETATM   17  C2  UNL     1      -0.793  59.836  85.466  1.00  0.00     0.107 C 
BRANCH  17  18
HETATM   18  C3  UNL     1      -0.122  61.107  85.972  1.00  0.00    -0.005 C 
HETATM   19  C4  UNL     1      -0.766  61.624  87.216  1.00  0.00     0.009 C 
HETATM   20  C5  UNL     1      -0.964  63.107  87.224  1.00  0.00    -0.013 C 
HETATM   21  C6  UNL     1      -1.647  63.613  85.977  1.00  0.00     0.009 C 
HETATM   22  C9  UNL     1       0.327  63.729  86.672  1.00  0.00     0.009 C 
HETATM   23  C7  UNL     1      -0.302  63.509  85.289  1.00  0.00    -0.013 C 
HETATM   24  C8  UNL     1       0.022  62.107  84.877  1.00  0.00     0.009 C 
ENDBRANCH  17  18
ENDBRANCH   2  17
TORSDOF 6
ENDMDL
MODEL 5
REMARK VINA RESULT: -7.646625788      4.720      8.401
REMARK  6 active torsions:
REMARK  status: ('A' for Active; 'I' for Inactive)
REMARK    1  A    between atoms: C1_2  and  C2_3 
REMARK       I    between atoms: C1_2  and  N1_11 
REMARK    2  A    between atoms: C2_3  and  C3_4 
REMARK    3  A    between atoms: N1_11  and  C10_13 
REMARK    4  A    between atoms: C10_13  and  C11_14 
REMARK    5  A    between atoms: C11_14  and  C12_15 
REMARK    6  A    between atoms: C13_18  and  C14_19 
ROOT
HETATM    1  O1  UNL     1       1.294  58.783  83.045  1.00  0.00    -0.274 OA
HETATM    2  C1  UNL     1       0.582  59.054  84.029  1.00  0.00     0.217 C 
HETATM    3  N1  UNL     1      -0.603  58.334  84.274  1.00  0.00    -0.361 N 
ATOM      4  H1  UNL     1      -1.175  58.572  85.084  1.00  0.00     0.162 HD
ENDROOT
BRANCH   3   5
HETATM    5  C10 UNL     1      -1.018  57.273  83.405  1.00  0.00     0.130 C 
BRANCH   5   6
HETATM    6  C11 UNL     1      -0.999  55.955  84.100  1.00  0.00     0.106 C 
BRANCH   6   7
HETATM    7  C12 UNL     1       0.367  55.365  83.866  1.00  0.00     0.149 A 
HETATM    8  N2  UNL     1       0.656  54.277  83.150  1.00  0.00    -0.326 N 
HETATM    9  C13 UNL     1       1.982  54.059  83.168  1.00  0.00     0.108 A 
ATOM     10  H2  UNL     1      -0.026  53.697  82.661  1.00  0.00     0.169 HD
HETATM   11  N3  UNL     1       2.476  55.058  83.924  1.00  0.00    -0.247 N 
HETATM   12  O2  UNL     1       1.508  55.824  84.330  1.00  0.00    -0.223 OA
ATOM     13  H3  UNL     1       3.463  55.194  84.144  1.00  0.00     0.196 HD
BRANCH   9  14
HETATM   14  C14 UNL     1       2.733  52.962  82.505  1.00  0.00     0.055 A 
HETATM   15  C15 UNL     1       2.077  51.676  82.220  1.00  0.00     0.013 A 
HETATM   16  C16 UNL     1       2.988  51.777  83.388  1.00  0.00     0.013 A 
ENDBRANCH   9  14
ENDBRANCH   6   7
ENDBRANCH   5   6
ENDBRANCH   3   5
BRANCH   2  17
HETATM   17  C2  UNL     1       0.979  60.138  84.951  1.00  0.00     0.107 C 
BRANCH  17  18
HETATM   18  C3  UNL     1      -0.174  61.101  85.202  1.00  0.00    -0.005 C 
HETATM   19  C4  UNL     1       0.032  62.414  84.520  1.00  0.00     0.009 C 
HETATM   20  C5  UNL     1      -0.317  63.597  85.365  1.00  0.00    -0.013 C 
HETATM   21  C6  UNL     1       0.330  63.555  86.727  1.00  0.00     0.009 C 
HETATM   22  C9  UNL     1      -1.639  63.261  86.072  1.00  0.00     0.009 C 
HETATM   23  C7  UNL     1      -0.759  62.585  87.132  1.00  0.00    -0.013 C 
HETATM   24  C8  UNL     1      -0.488  61.192  86.655  1.00  0.00     0.009 C 
ENDBRANCH  17  18
ENDBRANCH   2  17
TORSDOF 6
ENDMDL
