MODEL 1
REMARK VINA RESULT: -6.597118926      0.000      0.000
REMARK  8 active torsions:
REMARK  status: ('A' for Active; 'I' for Inactive)
REMARK    1  A    between atoms: C2_2  and  C3_3 
REMARK    2  A    between atoms: C3_3  and  N1_4 
REMARK    3  A    between atoms: N1_4  and  N2_5 
REMARK    4  A    between atoms: N1_4  and  C4_9 
REMARK    5  A    between atoms: N2_5  and  O1_7 
REMARK    6  A    between atoms: C4_9  and  C5_10 
REMARK    7  A    between atoms: C4_9  and  C12_18 
REMARK    8  A    between atoms: C5_10  and  N3_11 
ROOT
HETATM    1  C4  UNL     1      -1.049  57.044  84.150  1.00  0.00     0.051 C 
ENDROOT
BRANCH   1   2
HETATM    2  N1  UNL     1       0.078  56.227  84.422  1.00  0.00    -0.276 N 
BRANCH   2   3
HETATM    3  C3  UNL     1       1.068  55.790  83.484  1.00  0.00     0.150 C 
BRANCH   3   4
HETATM    4  C2  UNL     1       1.082  54.256  83.470  1.00  0.00     0.017 C 
HETATM    5  C1  UNL     1       2.379  53.668  83.031  1.00  0.00     0.007 C 
ENDBRANCH   3   4
ENDBRANCH   2   3
BRANCH   2   6
HETATM    6  N2  UNL     1       0.258  55.771  85.765  1.00  0.00    -0.208 N 
ATOM      7  H2  UNL     1      -0.307  54.992  86.105  1.00  0.00     0.216 HD
BRANCH   6   8
HETATM    8  O1  UNL     1       1.086  56.299  86.531  1.00  0.00    -0.274 OA
ATOM      9  H1  UNL     1       1.468  55.823  87.259  1.00  0.00     0.246 HD
ENDBRANCH   6   8
ENDBRANCH   2   6
ENDBRANCH   1   2
BRANCH   1  10
HETATM   10  C5  UNL     1      -1.058  58.486  84.384  1.00  0.00     0.117 C 
BRANCH  10  11
HETATM   11  N3  UNL     1      -0.007  59.213  84.895  1.00  0.00    -0.368 N 
HETATM   12  C6  UNL     1       1.119  59.570  84.109  1.00  0.00     0.127 C 
HETATM   13  C7  UNL     1       1.498  61.038  84.343  1.00  0.00     0.020 C 
HETATM   14  C8  UNL     1       0.267  61.860  84.648  1.00  0.00     0.002 C 
HETATM   15  C9  UNL     1       0.005  62.066  86.100  1.00  0.00     0.005 C 
HETATM   16  C10 UNL     1      -0.793  60.847  86.595  1.00  0.00     0.044 C 
HETATM   17  C11 UNL     1       0.046  59.653  86.231  1.00  0.00     0.063 C 
ENDBRANCH  10  11
ENDBRANCH   1  10
BRANCH   1  18
HETATM   18  C12 UNL     1      -2.334  56.318  84.562  1.00  0.00     0.066 C 
HETATM   19  C13 UNL     1      -3.565  57.130  84.441  1.00  0.00     0.040 C 
HETATM   20  C14 UNL     1      -4.643  56.073  84.213  1.00  0.00     0.233 C 
HETATM   21  N4  UNL     1      -4.011  55.138  83.344  1.00  0.00    -0.074 N 
HETATM   22  C15 UNL     1      -2.604  55.151  83.629  1.00  0.00     0.243 C 
ATOM     23  H42 UNL     1      -4.417  54.205  83.405  1.00  0.00     0.277 HD
ATOM     24  H41 UNL     1      -4.216  55.312  82.360  1.00  0.00     0.277 HD
ENDBRANCH   1  18
TORSDOF 8
ENDMDL
MODEL 2
REMARK VINA RESULT: -6.575443979      1.588      1.715
REMARK  8 active torsions:
REMARK  status: ('A' for Active; 'I' for Inactive)
REMARK    1  A    between atoms: C2_2  and  C3_3 
REMARK    2  A    between atoms: C3_3  and  N1_4 
REMARK    3  A    between atoms: N1_4  and  N2_5 
REMARK    4  A    between atoms: N1_4  and  C4_9 
REMARK    5  A    between atoms: N2_5  and  O1_7 
REMARK    6  A    between atoms: C4_9  and  C5_10 
REMARK    7  A    between atoms: C4_9  and  C12_18 
REMARK    8  A    between atoms: C5_10  and  N3_11 
ROOT
HETATM    1  C4  UNL     1      -0.512  56.582  83.616  1.00  0.00     0.051 C 
ENDROOT
BRANCH   1   2
HETATM    2  N1  UNL     1       0.595  55.756  83.941  1.00  0.00    -0.276 N 
BRANCH   2   3
HETATM    3  C3  UNL     1       1.166  55.555  85.238  1.00  0.00     0.150 C 
BRANCH   3   4
HETATM    4  C2  UNL     1       2.619  56.047  85.213  1.00  0.00     0.017 C 
HETATM    5  C1  UNL     1       3.623  54.979  85.475  1.00  0.00     0.007 C 
ENDBRANCH   3   4
ENDBRANCH   2   3
BRANCH   2   6
HETATM    6  N2  UNL     1       1.229  55.049  82.872  1.00  0.00    -0.208 N 
ATOM      7  H2  UNL     1       1.640  55.577  82.102  1.00  0.00     0.216 HD
BRANCH   6   8
HETATM    8  O1  UNL     1       1.294  53.804  82.857  1.00  0.00    -0.274 OA
ATOM      9  H1  UNL     1       0.513  53.265  82.818  1.00  0.00     0.246 HD
ENDBRANCH   6   8
ENDBRANCH   2   6
ENDBRANCH   1   2
BRANCH   1  10
HETATM   10  C5  UNL     1      -0.420  58.038  83.542  1.00  0.00     0.117 C 
BRANCH  10  11
HETATM   11  N3  UNL     1       0.454  58.815  84.266  1.00  0.00    -0.368 N 
HETATM   12  C6  UNL     1       1.518  59.527  83.655  1.00  0.00     0.127 C 
HETATM   13  C7  UNL     1       1.602  60.956  84.210  1.00  0.00     0.020 C 
HETATM   14  C8  UNL     1       0.227  61.459  84.584  1.00  0.00     0.002 C 
HETATM   15  C9  UNL     1      -0.120  61.300  86.024  1.00  0.00     0.005 C 
HETATM   16  C10 UNL     1      -0.686  59.880  86.201  1.00  0.00     0.044 C 
HETATM   17  C11 UNL     1       0.377  58.962  85.664  1.00  0.00     0.063 C 
ENDBRANCH  10  11
ENDBRANCH   1  10
BRANCH   1  18
HETATM   18  C12 UNL     1      -1.778  56.051  84.297  1.00  0.00     0.066 C 
HETATM   19  C13 UNL     1      -2.857  57.051  84.452  1.00  0.00     0.040 C 
HETATM   20  C14 UNL     1      -4.117  56.188  84.461  1.00  0.00     0.233 C 
HETATM   21  N4  UNL     1      -3.848  55.201  83.470  1.00  0.00    -0.074 N 
HETATM   22  C15 UNL     1      -2.430  54.980  83.440  1.00  0.00     0.243 C 
ATOM     23  H42 UNL     1      -4.378  54.342  83.614  1.00  0.00     0.277 HD
ATOM     24  H41 UNL     1      -4.230  55.444  82.556  1.00  0.00     0.277 HD
ENDBRANCH   1  18
TORSDOF 8
ENDMDL
MODEL 3
REMARK VINA RESULT: -6.568850940      1.424      1.571
REMARK  8 active torsions:
REMARK  status: ('A' for Active; 'I' for Inactive)
REMARK    1  A    between atoms: C2_2  and  C3_3 
REMARK    2  A    between atoms: C3_3  and  N1_4 
REMARK    3  A    between atoms: N1_4  and  N2_5 
REMARK    4  A    between atoms: N1_4  and  C4_9 
REMARK    5  A    between atoms: N2_5  and  O1_7 
REMARK    6  A    between atoms: C4_9  and  C5_10 
REMARK    7  A    between atoms: C4_9  and  C12_18 
REMARK    8  A    between atoms: C5_10  and  N3_11 
ROOT
HETATM    1  C4  UNL     1      -1.122  57.063  84.034  1.00  0.00     0.051 C 
ENDROOT
BRANCH   1   2
HETATM    2  N1  UNL     1       0.024  56.242  84.187  1.00  0.00    -0.276 N 
BRANCH   2   3
HETATM    3  C3  UNL     1       0.518  55.675  85.406  1.00  0.00     0.150 C 
BRANCH   3   4
HETATM    4  C2  UNL     1       1.894  56.284  85.705  1.00  0.00     0.017 C 
HETATM    5  C1  UNL     1       3.029  55.342  85.497  1.00  0.00     0.007 C 
ENDBRANCH   3   4
ENDBRANCH   2   3
BRANCH   2   6
HETATM    6  N2  UNL     1       0.789  55.945  83.016  1.00  0.00    -0.208 N 
ATOM      7  H2  UNL     1       0.942  54.971  82.756  1.00  0.00     0.216 HD
BRANCH   6   8
HETATM    8  O1  UNL     1       1.273  56.847  82.305  1.00  0.00    -0.274 OA
ATOM      9  H1  UNL     1       2.157  57.168  82.440  1.00  0.00     0.246 HD
ENDBRANCH   6   8
ENDBRANCH   2   6
ENDBRANCH   1   2
BRANCH   1  10
HETATM   10  C5  UNL     1      -1.121  58.491  84.340  1.00  0.00     0.117 C 
BRANCH  10  11
HETATM   11  N3  UNL     1      -0.045  59.197  84.828  1.00  0.00    -0.368 N 
HETATM   12  C6  UNL     1       1.029  59.609  83.998  1.00  0.00     0.127 C 
HETATM   13  C7  UNL     1       1.414  61.065  84.294  1.00  0.00     0.020 C 
HETATM   14  C8  UNL     1       0.199  61.856  84.720  1.00  0.00     0.002 C 
HETATM   15  C9  UNL     1       0.025  61.975  86.195  1.00  0.00     0.005 C 
HETATM   16  C10 UNL     1      -0.735  60.722  86.665  1.00  0.00     0.044 C 
HETATM   17  C11 UNL     1       0.087  59.559  86.182  1.00  0.00     0.063 C 
ENDBRANCH  10  11
ENDBRANCH   1  10
BRANCH   1  18
HETATM   18  C12 UNL     1      -2.373  56.307  84.494  1.00  0.00     0.066 C 
HETATM   19  C13 UNL     1      -3.625  57.092  84.424  1.00  0.00     0.040 C 
HETATM   20  C14 UNL     1      -4.688  56.013  84.235  1.00  0.00     0.233 C 
HETATM   21  N4  UNL     1      -4.071  55.093  83.339  1.00  0.00    -0.074 N 
HETATM   22  C15 UNL     1      -2.654  55.137  83.568  1.00  0.00     0.243 C 
ATOM     23  H42 UNL     1      -4.454  54.152  83.413  1.00  0.00     0.277 HD
ATOM     24  H41 UNL     1      -4.319  55.265  82.364  1.00  0.00     0.277 HD
ENDBRANCH   1  18
TORSDOF 8
ENDMDL
MODEL 4
REMARK VINA RESULT: -6.216368535      2.205      3.161
REMARK  8 active torsions:
REMARK  status: ('A' for Active; 'I' for Inactive)
REMARK    1  A    between atoms: C2_2  and  C3_3 
REMARK    2  A    between atoms: C3_3  and  N1_4 
REMARK    3  A    between atoms: N1_4  and  N2_5 
REMARK    4  A    between atoms: N1_4  and  C4_9 
REMARK    5  A    between atoms: N2_5  and  O1_7 
REMARK    6  A    between atoms: C4_9  and  C5_10 
REMARK    7  A    between atoms: C4_9  and  C12_18 
REMARK    8  A    between atoms: C5_10  and  N3_11 
ROOT
HETATM    1  C4  UNL     1       1.212  55.876  84.989  1.00  0.00     0.051 C 
ENDROOT
BRANCH   1   2
HETATM    2  N1  UNL     1       2.577  55.579  84.742  1.00  0.00    -0.276 N 
BRANCH   2   3
HETATM    3  C3  UNL     1       3.145  54.287  84.500  1.00  0.00     0.150 C 
BRANCH   3   4
HETATM    4  C2  UNL     1       2.875  53.901  83.040  1.00  0.00     0.017 C 
HETATM    5  C1  UNL     1       2.390  52.503  82.865  1.00  0.00     0.007 C 
ENDBRANCH   3   4
ENDBRANCH   2   3
BRANCH   2   6
HETATM    6  N2  UNL     1       3.503  56.668  84.742  1.00  0.00    -0.208 N 
ATOM      7  H2  UNL     1       3.347  57.453  84.109  1.00  0.00     0.216 HD
BRANCH   6   8
HETATM    8  O1  UNL     1       4.496  56.684  85.495  1.00  0.00    -0.274 OA
ATOM      9  H1  UNL     1       5.339  57.012  85.203  1.00  0.00     0.246 HD
ENDBRANCH   6   8
ENDBRANCH   2   6
ENDBRANCH   1   2
BRANCH   1  10
HETATM   10  C5  UNL     1       0.777  57.085  85.685  1.00  0.00     0.117 C 
BRANCH  10  11
HETATM   11  N3  UNL     1       0.113  58.140  85.103  1.00  0.00    -0.368 N 
HETATM   12  C6  UNL     1      -0.718  59.015  85.849  1.00  0.00     0.127 C 
HETATM   13  C7  UNL     1      -0.447  60.476  85.465  1.00  0.00     0.020 C 
HETATM   14  C8  UNL     1       1.001  60.661  85.075  1.00  0.00     0.002 C 
HETATM   15  C9  UNL     1       1.259  60.599  83.609  1.00  0.00     0.005 C 
HETATM   16  C10 UNL     1       1.440  59.115  83.242  1.00  0.00     0.044 C 
HETATM   17  C11 UNL     1       0.191  58.434  83.729  1.00  0.00     0.063 C 
ENDBRANCH  10  11
ENDBRANCH   1  10
BRANCH   1  18
HETATM   18  C12 UNL     1       0.462  54.601  85.384  1.00  0.00     0.066 C 
HETATM   19  C13 UNL     1       0.453  54.319  86.837  1.00  0.00     0.040 C 
HETATM   20  C14 UNL     1      -0.835  53.518  87.016  1.00  0.00     0.233 C 
HETATM   21  N4  UNL     1      -1.757  54.177  86.152  1.00  0.00    -0.074 N 
HETATM   22  C15 UNL     1      -1.015  54.732  85.056  1.00  0.00     0.243 C 
ATOM     23  H42 UNL     1      -2.516  53.569  85.847  1.00  0.00     0.277 HD
ATOM     24  H41 UNL     1      -2.325  54.872  86.636  1.00  0.00     0.277 HD
ENDBRANCH   1  18
TORSDOF 8
ENDMDL
MODEL 5
REMARK VINA RESULT: -6.131116145      2.006      3.911
REMARK  8 active torsions:
REMARK  status: ('A' for Active; 'I' for Inactive)
REMARK    1  A    between atoms: C2_2  and  C3_3 
REMARK    2  A    between atoms: C3_3  and  N1_4 
REMARK    3  A    between atoms: N1_4  and  N2_5 
REMARK    4  A    between atoms: N1_4  and  C4_9 
REMARK    5  A    between atoms: N2_5  and  O1_7 
REMARK    6  A    between atoms: C4_9  and  C5_10 
REMARK    7  A    between atoms: C4_9  and  C12_18 
REMARK    8  A    between atoms: C5_10  and  N3_11 
ROOT
HETATM    1  C4  UNL     1      -1.231  56.778  84.195  1.00  0.00     0.051 C 
ENDROOT
BRANCH   1   2
HETATM    2  N1  UNL     1      -2.626  56.552  84.068  1.00  0.00    -0.276 N 
BRANCH   2   3
HETATM    3  C3  UNL     1      -3.299  55.289  84.110  1.00  0.00     0.150 C 
BRANCH   3   4
HETATM    4  C2  UNL     1      -3.775  55.037  85.546  1.00  0.00     0.017 C 
HETATM    5  C1  UNL     1      -5.245  54.828  85.667  1.00  0.00     0.007 C 
ENDBRANCH   3   4
ENDBRANCH   2   3
BRANCH   2   6
HETATM    6  N2  UNL     1      -3.466  57.691  83.865  1.00  0.00    -0.208 N 
ATOM      7  H2  UNL     1      -3.106  58.620  84.087  1.00  0.00     0.216 HD
BRANCH   6   8
HETATM    8  O1  UNL     1      -4.626  57.579  83.424  1.00  0.00    -0.274 OA
ATOM      9  H1  UNL     1      -4.798  57.253  82.548  1.00  0.00     0.246 HD
ENDBRANCH   6   8
ENDBRANCH   2   6
ENDBRANCH   1   2
BRANCH   1  10
HETATM   10  C5  UNL     1      -0.562  57.946  83.628  1.00  0.00     0.117 C 
BRANCH  10  11
HETATM   11  N3  UNL     1       0.363  58.727  84.282  1.00  0.00    -0.368 N 
HETATM   12  C6  UNL     1       1.379  59.436  83.591  1.00  0.00     0.127 C 
HETATM   13  C7  UNL     1       1.503  60.867  84.132  1.00  0.00     0.020 C 
HETATM   14  C8  UNL     1       0.160  61.372  84.604  1.00  0.00     0.002 C 
HETATM   15  C9  UNL     1      -0.080  61.218  86.067  1.00  0.00     0.005 C 
HETATM   16  C10 UNL     1      -0.631  59.800  86.291  1.00  0.00     0.044 C 
HETATM   17  C11 UNL     1       0.389  58.879  85.681  1.00  0.00     0.063 C 
ENDBRANCH  10  11
ENDBRANCH   1  10
BRANCH   1  18
HETATM   18  C12 UNL     1      -0.470  55.459  84.032  1.00  0.00     0.066 C 
HETATM   19  C13 UNL     1       0.690  55.527  83.116  1.00  0.00     0.040 C 
HETATM   20  C14 UNL     1       1.607  54.430  83.651  1.00  0.00     0.233 C 
HETATM   21  N4  UNL     1       1.481  54.555  85.065  1.00  0.00    -0.074 N 
HETATM   22  C15 UNL     1       0.163  55.047  85.349  1.00  0.00     0.243 C 
ATOM     23  H42 UNL     1       1.694  53.689  85.558  1.00  0.00     0.277 HD
ATOM     24  H41 UNL     1       2.216  55.130  85.477  1.00  0.00     0.277 HD
ENDBRANCH   1  18
TORSDOF 8
ENDMDL
