MODEL 1
REMARK VINA RESULT: -8.704508732      0.000      0.000
REMARK  9 active torsions:
REMARK  status: ('A' for Active; 'I' for Inactive)
REMARK    1  A    between atoms: N7_18  and  C7_19 
REMARK    2  A    between atoms: C7_19  and  C8_20 
REMARK    3  A    between atoms: C8_20  and  O1_21 
REMARK    4  A    between atoms: C8_20  and  C9_23 
REMARK    5  A    between atoms: C9_23  and  C10_24 
REMARK    6  A    between atoms: C9_23  and  N8_27 
REMARK    7  A    between atoms: C10_24  and  O2_25 
REMARK    8  A    between atoms: C12_31  and  C13_32 
REMARK       I    between atoms: C13_32  and  N10_34 
REMARK       I    between atoms: N10_34  and  C14_36 
REMARK    9  A    between atoms: C15_43  and  N14_44 
ROOT
HETATM    1  N1  UNL     1      27.530  35.756  26.983  1.00  0.00    -0.190 NA
HETATM    2  C1  UNL     1      27.054  34.970  27.718  1.00  0.00     0.121 C 
HETATM    3  C2  UNL     1      26.465  34.031  28.631  1.00  0.00     0.158 A 
HETATM    4  N2  UNL     1      26.939  32.793  28.706  1.00  0.00    -0.339 N 
ATOM      5  H2  UNL     1      27.722  32.511  28.116  1.00  0.00     0.167 HD
HETATM    6  C3  UNL     1      26.390  31.910  29.562  1.00  0.00     0.120 A 
HETATM    7  C4  UNL     1      26.918  30.642  29.602  1.00  0.00     0.162 A 
HETATM    8  N3  UNL     1      28.011  30.251  28.776  1.00  0.00    -0.080 NA
HETATM    9  N4  UNL     1      26.362  29.746  30.468  1.00  0.00    -0.177 N 
ATOM     10  H4  UNL     1      26.731  28.797  30.522  1.00  0.00     0.185 HD
HETATM   11  C5  UNL     1      25.332  30.109  31.249  1.00  0.00     0.678 A 
HETATM   12  N5  UNL     1      24.818  29.255  32.060  1.00  0.00    -0.234 N 
ATOM     13  H51 UNL     1      24.035  29.531  32.653  1.00  0.00     0.174 HD
ATOM     14  H52 UNL     1      25.200  28.310  32.101  1.00  0.00     0.174 HD
HETATM   15  N6  UNL     1      24.822  31.372  31.193  1.00  0.00    -0.174 N 
ATOM     16  H6  UNL     1      24.039  31.622  31.796  1.00  0.00     0.186 HD
HETATM   17  C6  UNL     1      25.332  32.295  30.358  1.00  0.00     0.155 A 
HETATM   18  N7  UNL     1      24.825  33.564  30.298  1.00  0.00    -0.312 N 
HETATM   19  C15 UNL     1      25.379  34.406  29.457  1.00  0.00     0.141 A 
ENDROOT
BRANCH  19  20
HETATM   20  N14 UNL     1      25.008  35.607  29.334  1.00  0.00    -0.383 N 
ATOM     21 2H14 UNL     1      24.390  35.927  28.587  1.00  0.00     0.157 HD
ATOM     22 1H14 UNL     1      25.359  36.240  30.052  1.00  0.00     0.157 HD
ENDBRANCH  19  20
BRANCH  18  23
HETATM   23  C7  UNL     1      23.739  33.895  31.152  1.00  0.00     0.166 C 
BRANCH  23  24
HETATM   24  C8  UNL     1      24.121  34.499  32.465  1.00  0.00     0.163 C 
BRANCH  24  25
HETATM   25  O1  UNL     1      25.027  33.709  33.162  1.00  0.00    -0.392 OA
ATOM     26  H1  UNL     1      25.761  34.212  33.493  1.00  0.00     0.210 HD
ENDBRANCH  24  25
BRANCH  24  27
HETATM   27  C9  UNL     1      22.921  34.696  33.363  1.00  0.00     0.162 C 
BRANCH  27  28
HETATM   28  C10 UNL     1      21.671  34.052  32.826  1.00  0.00     0.194 C 
BRANCH  28  29
HETATM   29  O2  UNL     1      21.561  32.776  33.400  1.00  0.00    -0.399 OA
ATOM     30  H2  UNL     1      21.896  32.824  34.288  1.00  0.00     0.209 HD
ENDBRANCH  28  29
ENDBRANCH  27  28
BRANCH  27  31
HETATM   31  N8  UNL     1      22.650  36.102  33.589  1.00  0.00    -0.277 N 
HETATM   32  C11 UNL     1      22.003  36.965  32.780  1.00  0.00     0.202 A 
HETATM   33  N9  UNL     1      21.975  38.161  33.371  1.00  0.00    -0.332 N 
HETATM   34  C12 UNL     1      22.602  38.065  34.554  1.00  0.00     0.190 A 
ATOM     35  H9  UNL     1      21.550  39.005  32.987  1.00  0.00     0.168 HD
HETATM   36  N13 UNL     1      23.009  36.805  34.675  1.00  0.00    -0.277 N 
ATOM     37  H13 UNL     1      23.518  36.428  35.475  1.00  0.00     0.189 HD
BRANCH  34  38
HETATM   38  C13 UNL     1      22.779  39.173  35.502  1.00  0.00     0.293 C 
HETATM   39  O3  UNL     1      22.242  39.101  36.636  1.00  0.00    -0.264 OA
HETATM   40  N10 UNL     1      23.541  40.321  35.169  1.00  0.00    -0.295 N 
HETATM   41  C14 UNL     1      23.695  41.372  36.105  1.00  0.00     0.188 C 
ATOM     42  H10 UNL     1      23.980  40.389  34.252  1.00  0.00     0.171 HD
HETATM   43  N11 UNL     1      24.374  42.437  35.858  1.00  0.00    -0.373 N 
HETATM   44  N12 UNL     1      23.085  41.303  37.408  1.00  0.00    -0.064 NA
ATOM     45 2H11 UNL     1      24.806  42.486  34.936  1.00  0.00     0.158 HD
ATOM     46 1H11 UNL     1      24.485  43.195  36.532  1.00  0.00     0.158 HD
ENDBRANCH  34  38
ENDBRANCH  27  31
ENDBRANCH  24  27
ENDBRANCH  23  24
ENDBRANCH  18  23
TORSDOF 9
ENDMDL
MODEL 2
REMARK VINA RESULT: -8.561036931      0.884      3.248
REMARK  9 active torsions:
REMARK  status: ('A' for Active; 'I' for Inactive)
REMARK    1  A    between atoms: N7_18  and  C7_19 
REMARK    2  A    between atoms: C7_19  and  C8_20 
REMARK    3  A    between atoms: C8_20  and  O1_21 
REMARK    4  A    between atoms: C8_20  and  C9_23 
REMARK    5  A    between atoms: C9_23  and  C10_24 
REMARK    6  A    between atoms: C9_23  and  N8_27 
REMARK    7  A    between atoms: C10_24  and  O2_25 
REMARK    8  A    between atoms: C12_31  and  C13_32 
REMARK       I    between atoms: C13_32  and  N10_34 
REMARK       I    between atoms: N10_34  and  C14_36 
REMARK    9  A    between atoms: C15_43  and  N14_44 
ROOT
HETATM    1  N1  UNL     1      25.708  28.467  31.124  1.00  0.00    -0.190 NA
HETATM    2  C1  UNL     1      25.684  29.596  30.793  1.00  0.00     0.121 C 
HETATM    3  C2  UNL     1      25.631  30.975  30.394  1.00  0.00     0.158 A 
HETATM    4  N2  UNL     1      26.474  31.433  29.476  1.00  0.00    -0.339 N 
ATOM      5  H2  UNL     1      27.158  30.805  29.054  1.00  0.00     0.167 HD
HETATM    6  C3  UNL     1      26.426  32.725  29.100  1.00  0.00     0.120 A 
HETATM    7  C4  UNL     1      27.319  33.148  28.145  1.00  0.00     0.162 A 
HETATM    8  N3  UNL     1      28.273  32.269  27.558  1.00  0.00    -0.080 NA
HETATM    9  N4  UNL     1      27.272  34.457  27.763  1.00  0.00    -0.177 N 
ATOM     10  H4  UNL     1      27.922  34.804  27.057  1.00  0.00     0.185 HD
HETATM   11  C5  UNL     1      26.375  35.292  28.313  1.00  0.00     0.678 A 
HETATM   12  N5  UNL     1      26.342  36.522  27.944  1.00  0.00    -0.234 N 
ATOM     13  H51 UNL     1      25.660  37.156  28.362  1.00  0.00     0.174 HD
ATOM     14  H52 UNL     1      26.998  36.851  27.236  1.00  0.00     0.174 HD
HETATM   15  N6  UNL     1      25.498  34.852  29.259  1.00  0.00    -0.174 N 
ATOM     16  H6  UNL     1      24.827  35.505  29.661  1.00  0.00     0.186 HD
HETATM   17  C6  UNL     1      25.501  33.571  29.672  1.00  0.00     0.155 A 
HETATM   18  N7  UNL     1      24.622  33.124  30.620  1.00  0.00    -0.312 N 
HETATM   19  C15 UNL     1      24.689  31.860  30.969  1.00  0.00     0.141 A 
ENDROOT
BRANCH  19  20
HETATM   20  N14 UNL     1      23.914  31.334  31.817  1.00  0.00    -0.383 N 
ATOM     21 2H14 UNL     1      24.170  30.522  32.379  1.00  0.00     0.157 HD
ATOM     22 1H14 UNL     1      23.009  31.794  31.915  1.00  0.00     0.157 HD
ENDBRANCH  19  20
BRANCH  18  23
HETATM   23  C7  UNL     1      23.690  34.048  31.164  1.00  0.00     0.166 C 
BRANCH  23  24
HETATM   24  C8  UNL     1      24.082  34.653  32.473  1.00  0.00     0.163 C 
BRANCH  24  25
HETATM   25  O1  UNL     1      25.041  33.895  33.135  1.00  0.00    -0.392 OA
ATOM     26  H1  UNL     1      25.888  34.323  33.150  1.00  0.00     0.210 HD
ENDBRANCH  24  25
BRANCH  24  27
HETATM   27  C9  UNL     1      22.900  34.785  33.406  1.00  0.00     0.162 C 
BRANCH  27  28
HETATM   28  C10 UNL     1      21.658  34.114  32.885  1.00  0.00     0.194 C 
BRANCH  28  29
HETATM   29  O2  UNL     1      21.627  32.807  33.395  1.00  0.00    -0.399 OA
ATOM     30  H2  UNL     1      20.723  32.512  33.390  1.00  0.00     0.209 HD
ENDBRANCH  28  29
ENDBRANCH  27  28
BRANCH  27  31
HETATM   31  N8  UNL     1      22.588  36.175  33.677  1.00  0.00    -0.277 N 
HETATM   32  C11 UNL     1      21.834  37.017  32.942  1.00  0.00     0.202 A 
HETATM   33  N9  UNL     1      21.806  38.204  33.550  1.00  0.00    -0.332 N 
HETATM   34  C12 UNL     1      22.539  38.124  34.672  1.00  0.00     0.190 A 
ATOM     35  H9  UNL     1      21.311  39.032  33.219  1.00  0.00     0.168 HD
HETATM   36  N13 UNL     1      23.011  36.882  34.738  1.00  0.00    -0.277 N 
ATOM     37  H13 UNL     1      23.605  36.520  35.484  1.00  0.00     0.189 HD
BRANCH  34  38
HETATM   38  C13 UNL     1      22.751  39.227  35.617  1.00  0.00     0.293 C 
HETATM   39  O3  UNL     1      22.254  39.152  36.770  1.00  0.00    -0.264 OA
HETATM   40  N10 UNL     1      23.501  40.376  35.262  1.00  0.00    -0.295 N 
HETATM   41  C14 UNL     1      23.689  41.423  36.195  1.00  0.00     0.188 C 
ATOM     42  H10 UNL     1      23.908  40.448  34.330  1.00  0.00     0.171 HD
HETATM   43  N11 UNL     1      24.360  42.490  35.929  1.00  0.00    -0.373 N 
HETATM   44  N12 UNL     1      23.126  41.350  37.519  1.00  0.00    -0.064 NA
ATOM     45 2H11 UNL     1      24.759  42.542  34.991  1.00  0.00     0.158 HD
ATOM     46 1H11 UNL     1      24.496  43.244  36.601  1.00  0.00     0.158 HD
ENDBRANCH  34  38
ENDBRANCH  27  31
ENDBRANCH  24  27
ENDBRANCH  23  24
ENDBRANCH  18  23
TORSDOF 9
ENDMDL
MODEL 3
REMARK VINA RESULT: -8.465264109      3.055      9.418
REMARK  9 active torsions:
REMARK  status: ('A' for Active; 'I' for Inactive)
REMARK    1  A    between atoms: N7_18  and  C7_19 
REMARK    2  A    between atoms: C7_19  and  C8_20 
REMARK    3  A    between atoms: C8_20  and  O1_21 
REMARK    4  A    between atoms: C8_20  and  C9_23 
REMARK    5  A    between atoms: C9_23  and  C10_24 
REMARK    6  A    between atoms: C9_23  and  N8_27 
REMARK    7  A    between atoms: C10_24  and  O2_25 
REMARK    8  A    between atoms: C12_31  and  C13_32 
REMARK       I    between atoms: C13_32  and  N10_34 
REMARK       I    between atoms: N10_34  and  C14_36 
REMARK    9  A    between atoms: C15_43  and  N14_44 
ROOT
HETATM    1  N1  UNL     1      20.109  37.877  36.459  1.00  0.00    -0.190 NA
HETATM    2  C1  UNL     1      20.516  37.565  35.400  1.00  0.00     0.121 C 
HETATM    3  C2  UNL     1      21.021  37.163  34.117  1.00  0.00     0.158 A 
HETATM    4  N2  UNL     1      21.324  38.081  33.206  1.00  0.00    -0.339 N 
ATOM      5  H2  UNL     1      21.198  39.070  33.419  1.00  0.00     0.167 HD
HETATM    6  C3  UNL     1      21.799  37.708  32.003  1.00  0.00     0.120 A 
HETATM    7  C4  UNL     1      22.098  38.696  31.097  1.00  0.00     0.162 A 
HETATM    8  N3  UNL     1      21.921  40.077  31.397  1.00  0.00    -0.080 NA
HETATM    9  N4  UNL     1      22.579  38.319  29.877  1.00  0.00    -0.177 N 
ATOM     10  H4  UNL     1      22.811  39.028  29.181  1.00  0.00     0.185 HD
HETATM   11  C5  UNL     1      22.748  37.019  29.588  1.00  0.00     0.678 A 
HETATM   12  N5  UNL     1      23.202  36.678  28.435  1.00  0.00    -0.234 N 
ATOM     13  H51 UNL     1      23.331  35.690  28.215  1.00  0.00     0.174 HD
ATOM     14  H52 UNL     1      23.429  37.401  27.752  1.00  0.00     0.174 HD
HETATM   15  N6  UNL     1      22.445  36.053  30.501  1.00  0.00    -0.174 N 
ATOM     16  H6  UNL     1      22.582  35.073  30.256  1.00  0.00     0.186 HD
HETATM   17  C6  UNL     1      21.968  36.369  31.719  1.00  0.00     0.155 A 
HETATM   18  N7  UNL     1      21.663  35.405  32.639  1.00  0.00    -0.312 N 
HETATM   19  C15 UNL     1      21.202  35.795  33.805  1.00  0.00     0.141 A 
ENDROOT
BRANCH  19  20
HETATM   20  N14 UNL     1      20.909  34.994  34.737  1.00  0.00    -0.383 N 
ATOM     21 2H14 UNL     1      19.951  34.824  35.046  1.00  0.00     0.157 HD
ATOM     22 1H14 UNL     1      21.704  34.511  35.154  1.00  0.00     0.157 HD
ENDBRANCH  19  20
BRANCH  18  23
HETATM   23  C7  UNL     1      21.868  34.045  32.282  1.00  0.00     0.166 C 
BRANCH  23  24
HETATM   24  C8  UNL     1      22.997  33.365  32.987  1.00  0.00     0.163 C 
BRANCH  24  25
HETATM   25  O1  UNL     1      23.581  34.179  33.950  1.00  0.00    -0.392 OA
ATOM     26  H1  UNL     1      24.067  34.898  33.566  1.00  0.00     0.210 HD
ENDBRANCH  24  25
BRANCH  24  27
HETATM   27  C9  UNL     1      24.093  32.958  32.028  1.00  0.00     0.162 C 
BRANCH  27  28
HETATM   28  C10 UNL     1      23.712  33.145  30.584  1.00  0.00     0.194 C 
BRANCH  28  29
HETATM   29  O2  UNL     1      24.608  34.064  30.016  1.00  0.00    -0.399 OA
ATOM     30  H2  UNL     1      24.172  34.482  29.282  1.00  0.00     0.209 HD
ENDBRANCH  28  29
ENDBRANCH  27  28
BRANCH  27  31
HETATM   31  N8  UNL     1      24.484  31.575  32.222  1.00  0.00    -0.277 N 
HETATM   32  C11 UNL     1      24.637  30.910  33.385  1.00  0.00     0.202 A 
HETATM   33  N9  UNL     1      25.006  29.657  33.112  1.00  0.00    -0.332 N 
HETATM   34  C12 UNL     1      25.089  29.519  31.780  1.00  0.00     0.190 A 
ATOM     35  H9  UNL     1      25.194  28.928  33.800  1.00  0.00     0.168 HD
HETATM   36  N13 UNL     1      24.768  30.696  31.248  1.00  0.00    -0.277 N 
ATOM     37  H13 UNL     1      24.741  30.899  30.249  1.00  0.00     0.189 HD
BRANCH  34  38
HETATM   38  C13 UNL     1      25.467  28.282  31.085  1.00  0.00     0.293 C 
HETATM   39  O3  UNL     1      25.646  28.307  29.841  1.00  0.00    -0.264 OA
HETATM   40  N10 UNL     1      25.635  27.060  31.783  1.00  0.00    -0.295 N 
HETATM   41  C14 UNL     1      26.001  25.884  31.086  1.00  0.00     0.188 C 
ATOM     42  H10 UNL     1      25.491  27.028  32.792  1.00  0.00     0.171 HD
HETATM   43  N11 UNL     1      26.166  24.746  31.666  1.00  0.00    -0.373 N 
HETATM   44  N12 UNL     1      26.210  25.897  29.660  1.00  0.00    -0.064 NA
ATOM     45 2H11 UNL     1      26.018  24.736  32.675  1.00  0.00     0.158 HD
ATOM     46 1H11 UNL     1      26.430  23.898  31.164  1.00  0.00     0.158 HD
ENDBRANCH  34  38
ENDBRANCH  27  31
ENDBRANCH  24  27
ENDBRANCH  23  24
ENDBRANCH  18  23
TORSDOF 9
ENDMDL
MODEL 4
REMARK VINA RESULT: -8.430040202      3.176      9.127
REMARK  9 active torsions:
REMARK  status: ('A' for Active; 'I' for Inactive)
REMARK    1  A    between atoms: N7_18  and  C7_19 
REMARK    2  A    between atoms: C7_19  and  C8_20 
REMARK    3  A    between atoms: C8_20  and  O1_21 
REMARK    4  A    between atoms: C8_20  and  C9_23 
REMARK    5  A    between atoms: C9_23  and  C10_24 
REMARK    6  A    between atoms: C9_23  and  N8_27 
REMARK    7  A    between atoms: C10_24  and  O2_25 
REMARK    8  A    between atoms: C12_31  and  C13_32 
REMARK       I    between atoms: C13_32  and  N10_34 
REMARK       I    between atoms: N10_34  and  C14_36 
REMARK    9  A    between atoms: C15_43  and  N14_44 
ROOT
HETATM    1  N1  UNL     1      21.302  38.420  27.219  1.00  0.00    -0.190 NA
HETATM    2  C1  UNL     1      21.417  38.015  28.318  1.00  0.00     0.121 C 
HETATM    3  C2  UNL     1      21.563  37.497  29.649  1.00  0.00     0.158 A 
HETATM    4  N2  UNL     1      20.874  38.034  30.649  1.00  0.00    -0.339 N 
ATOM      5  H2  UNL     1      20.242  38.814  30.470  1.00  0.00     0.167 HD
HETATM    6  C3  UNL     1      21.008  37.550  31.898  1.00  0.00     0.120 A 
HETATM    7  C4  UNL     1      20.273  38.141  32.897  1.00  0.00     0.162 A 
HETATM    8  N3  UNL     1      19.390  39.230  32.645  1.00  0.00    -0.080 NA
HETATM    9  N4  UNL     1      20.408  37.652  34.164  1.00  0.00    -0.177 N 
ATOM     10  H4  UNL     1      19.876  38.068  34.928  1.00  0.00     0.185 HD
HETATM   11  C5  UNL     1      21.238  36.625  34.408  1.00  0.00     0.678 A 
HETATM   12  N5  UNL     1      21.355  36.174  35.606  1.00  0.00    -0.234 N 
ATOM     13  H51 UNL     1      21.986  35.394  35.792  1.00  0.00     0.174 HD
ATOM     14  H52 UNL     1      20.815  36.602  36.358  1.00  0.00     0.174 HD
HETATM   15  N6  UNL     1      21.959  36.053  33.403  1.00  0.00    -0.174 N 
ATOM     16  H6  UNL     1      22.583  35.275  33.615  1.00  0.00     0.186 HD
HETATM   17  C6  UNL     1      21.864  36.496  32.136  1.00  0.00     0.155 A 
HETATM   18  N7  UNL     1      22.585  35.925  31.123  1.00  0.00    -0.312 N 
HETATM   19  C15 UNL     1      22.435  36.415  29.914  1.00  0.00     0.141 A 
ENDROOT
BRANCH  19  20
HETATM   20  N14 UNL     1      23.033  35.953  28.902  1.00  0.00    -0.383 N 
ATOM     21 2H14 UNL     1      23.693  36.498  28.346  1.00  0.00     0.157 HD
ATOM     22 1H14 UNL     1      22.819  34.980  28.684  1.00  0.00     0.157 HD
ENDBRANCH  19  20
BRANCH  18  23
HETATM   23  C7  UNL     1      23.443  34.837  31.438  1.00  0.00     0.166 C 
BRANCH  23  24
HETATM   24  C8  UNL     1      22.838  33.480  31.270  1.00  0.00     0.163 C 
BRANCH  24  25
HETATM   25  O1  UNL     1      21.464  33.489  31.477  1.00  0.00    -0.392 OA
ATOM     26  H1  UNL     1      21.006  32.917  30.873  1.00  0.00     0.210 HD
ENDBRANCH  24  25
BRANCH  24  27
HETATM   27  C9  UNL     1      23.426  32.481  32.241  1.00  0.00     0.162 C 
BRANCH  27  28
HETATM   28  C10 UNL     1      24.203  33.127  33.355  1.00  0.00     0.194 C 
BRANCH  28  29
HETATM   29  O2  UNL     1      24.597  32.120  34.249  1.00  0.00    -0.399 OA
ATOM     30  H2  UNL     1      25.162  32.514  34.904  1.00  0.00     0.209 HD
ENDBRANCH  28  29
ENDBRANCH  27  28
BRANCH  27  31
HETATM   31  N8  UNL     1      24.293  31.533  31.569  1.00  0.00    -0.277 N 
HETATM   32  C11 UNL     1      25.201  31.777  30.602  1.00  0.00     0.202 A 
HETATM   33  N9  UNL     1      25.780  30.624  30.263  1.00  0.00    -0.332 N 
HETATM   34  C12 UNL     1      25.245  29.644  31.008  1.00  0.00     0.190 A 
ATOM     35  H9  UNL     1      26.506  30.507  29.556  1.00  0.00     0.168 HD
HETATM   36  N13 UNL     1      24.339  30.211  31.801  1.00  0.00    -0.277 N 
ATOM     37  H13 UNL     1      23.766  29.716  32.483  1.00  0.00     0.189 HD
BRANCH  34  38
HETATM   38  C13 UNL     1      25.622  28.227  30.928  1.00  0.00     0.293 C 
HETATM   39  O3  UNL     1      25.677  27.546  31.984  1.00  0.00    -0.264 OA
HETATM   40  N10 UNL     1      25.925  27.608  29.691  1.00  0.00    -0.295 N 
HETATM   41  C14 UNL     1      26.284  26.239  29.646  1.00  0.00     0.188 C 
ATOM     42  H10 UNL     1      25.885  28.150  28.829  1.00  0.00     0.171 HD
HETATM   43  N11 UNL     1      26.571  25.624  28.551  1.00  0.00    -0.373 N 
HETATM   44  N12 UNL     1      26.352  25.447  30.847  1.00  0.00    -0.064 NA
ATOM     45 2H11 UNL     1      26.524  26.185  27.701  1.00  0.00     0.158 HD
ATOM     46 1H11 UNL     1      26.830  24.638  28.518  1.00  0.00     0.158 HD
ENDBRANCH  34  38
ENDBRANCH  27  31
ENDBRANCH  24  27
ENDBRANCH  23  24
ENDBRANCH  18  23
TORSDOF 9
ENDMDL
MODEL 5
REMARK VINA RESULT: -8.255905807      1.945      2.445
REMARK  9 active torsions:
REMARK  status: ('A' for Active; 'I' for Inactive)
REMARK    1  A    between atoms: N7_18  and  C7_19 
REMARK    2  A    between atoms: C7_19  and  C8_20 
REMARK    3  A    between atoms: C8_20  and  O1_21 
REMARK    4  A    between atoms: C8_20  and  C9_23 
REMARK    5  A    between atoms: C9_23  and  C10_24 
REMARK    6  A    between atoms: C9_23  and  N8_27 
REMARK    7  A    between atoms: C10_24  and  O2_25 
REMARK    8  A    between atoms: C12_31  and  C13_32 
REMARK       I    between atoms: C13_32  and  N10_34 
REMARK       I    between atoms: N10_34  and  C14_36 
REMARK    9  A    between atoms: C15_43  and  N14_44 
ROOT
HETATM    1  N1  UNL     1      27.566  35.764  27.078  1.00  0.00    -0.190 NA
HETATM    2  C1  UNL     1      27.098  34.940  27.776  1.00  0.00     0.121 C 
HETATM    3  C2  UNL     1      26.519  33.953  28.645  1.00  0.00     0.158 A 
HETATM    4  N2  UNL     1      27.014  32.721  28.671  1.00  0.00    -0.339 N 
ATOM      5  H2  UNL     1      27.804  32.477  28.074  1.00  0.00     0.167 HD
HETATM    6  C3  UNL     1      26.474  31.793  29.484  1.00  0.00     0.120 A 
HETATM    7  C4  UNL     1      27.023  30.534  29.474  1.00  0.00     0.162 A 
HETATM    8  N3  UNL     1      28.127  30.196  28.640  1.00  0.00    -0.080 NA
HETATM    9  N4  UNL     1      26.477  29.593  30.298  1.00  0.00    -0.177 N 
ATOM     10  H4  UNL     1      26.861  28.648  30.315  1.00  0.00     0.185 HD
HETATM   11  C5  UNL     1      25.436  29.906  31.087  1.00  0.00     0.678 A 
HETATM   12  N5  UNL     1      24.932  29.010  31.858  1.00  0.00    -0.234 N 
ATOM     13  H51 UNL     1      24.141  29.248  32.458  1.00  0.00     0.174 HD
ATOM     14  H52 UNL     1      25.329  28.071  31.862  1.00  0.00     0.174 HD
HETATM   15  N6  UNL     1      24.906  31.162  31.082  1.00  0.00    -0.174 N 
ATOM     16  H6  UNL     1      24.115  31.373  31.690  1.00  0.00     0.186 HD
HETATM   17  C6  UNL     1      25.406  32.127  30.289  1.00  0.00     0.155 A 
HETATM   18  N7  UNL     1      24.878  33.389  30.280  1.00  0.00    -0.312 N 
HETATM   19  C15 UNL     1      25.423  34.275  29.479  1.00  0.00     0.141 A 
ENDROOT
BRANCH  19  20
HETATM   20  N14 UNL     1      25.032  35.474  29.404  1.00  0.00    -0.383 N 
ATOM     21 2H14 UNL     1      24.133  35.745  29.006  1.00  0.00     0.157 HD
ATOM     22 1H14 UNL     1      25.680  36.161  29.790  1.00  0.00     0.157 HD
ENDBRANCH  19  20
BRANCH  18  23
HETATM   23  C7  UNL     1      23.781  33.666  31.140  1.00  0.00     0.166 C 
BRANCH  23  24
HETATM   24  C8  UNL     1      24.140  34.301  32.445  1.00  0.00     0.163 C 
BRANCH  24  25
HETATM   25  O1  UNL     1      25.099  33.572  33.137  1.00  0.00    -0.392 OA
ATOM     26  H1  UNL     1      25.978  33.745  32.822  1.00  0.00     0.210 HD
ENDBRANCH  24  25
BRANCH  24  27
HETATM   27  C9  UNL     1      22.939  34.430  33.355  1.00  0.00     0.162 C 
BRANCH  27  28
HETATM   28  C10 UNL     1      21.745  33.653  32.870  1.00  0.00     0.194 C 
BRANCH  28  29
HETATM   29  O2  UNL     1      21.673  32.463  33.610  1.00  0.00    -0.399 OA
ATOM     30  H2  UNL     1      22.002  32.641  34.484  1.00  0.00     0.209 HD
ENDBRANCH  28  29
ENDBRANCH  27  28
BRANCH  27  31
HETATM   31  N8  UNL     1      22.545  35.815  33.524  1.00  0.00    -0.277 N 
HETATM   32  C11 UNL     1      22.540  36.546  34.657  1.00  0.00     0.202 A 
HETATM   33  N9  UNL     1      22.105  37.774  34.368  1.00  0.00    -0.332 N 
HETATM   34  C12 UNL     1      21.833  37.830  33.055  1.00  0.00     0.190 A 
ATOM     35  H9  UNL     1      21.998  38.540  35.033  1.00  0.00     0.168 HD
HETATM   36  N13 UNL     1      22.105  36.629  32.551  1.00  0.00    -0.277 N 
ATOM     37  H13 UNL     1      21.996  36.367  31.572  1.00  0.00     0.189 HD
BRANCH  34  38
HETATM   38  C13 UNL     1      21.330  39.018  32.352  1.00  0.00     0.293 C 
HETATM   39  O3  UNL     1      20.218  39.501  32.683  1.00  0.00    -0.264 OA
HETATM   40  N10 UNL     1      22.068  39.632  31.310  1.00  0.00    -0.295 N 
HETATM   41  C14 UNL     1      21.558  40.776  30.652  1.00  0.00     0.188 C 
ATOM     42  H10 UNL     1      22.971  39.248  31.033  1.00  0.00     0.171 HD
HETATM   43  N11 UNL     1      22.183  41.375  29.699  1.00  0.00    -0.373 N 
HETATM   44  N12 UNL     1      20.285  41.341  31.020  1.00  0.00    -0.064 NA
ATOM     45 2H11 UNL     1      23.084  40.976  29.437  1.00  0.00     0.158 HD
ATOM     46 1H11 UNL     1      21.815  42.200  29.224  1.00  0.00     0.158 HD
ENDBRANCH  34  38
ENDBRANCH  27  31
ENDBRANCH  24  27
ENDBRANCH  23  24
ENDBRANCH  18  23
TORSDOF 9
ENDMDL
