MODEL 1
REMARK VINA RESULT: -8.488138263      0.000      0.000
REMARK  6 active torsions:
REMARK  status: ('A' for Active; 'I' for Inactive)
REMARK    1  A    between atoms: O1_2  and  C2_3 
REMARK    2  A    between atoms: C2_3  and  C3_5 
REMARK    3  A    between atoms: C9_12  and  O4_13 
REMARK    4  A    between atoms: C11_15  and  O5_16 
REMARK    5  A    between atoms: C16_22  and  O6_23 
REMARK    6  A    between atoms: C19_27  and  O7_29 
ROOT
HETATM    1  C3  UNL     1      21.411   7.226  23.404  1.00  0.00     0.082 A 
HETATM    2  C4  UNL     1      21.816   6.048  23.900  1.00  0.00     0.067 A 
HETATM    3  C5  UNL     1      21.472   5.684  25.325  1.00  0.00     0.078 C 
HETATM    4  O3  UNL     1      22.560   5.150  23.190  1.00  0.00    -0.313 OA
HETATM    5  C6  UNL     1      22.962   5.393  21.906  1.00  0.00     0.090 A 
HETATM    6  C7  UNL     1      23.732   4.463  21.254  1.00  0.00     0.053 A 
HETATM    7  C8  UNL     1      24.170   4.681  19.980  1.00  0.00     0.016 A 
HETATM    8  C9  UNL     1      24.948   3.733  19.322  1.00  0.00     0.113 A 
HETATM    9  C11 UNL     1      25.386   3.958  18.040  1.00  0.00     0.105 A 
HETATM   10  C12 UNL     1      25.068   5.122  17.375  1.00  0.00    -0.025 A 
HETATM   11  C13 UNL     1      25.532   5.382  15.992  1.00  0.00     0.051 C 
HETATM   12  C14 UNL     1      24.276   6.090  18.043  1.00  0.00     0.025 A 
HETATM   13  C15 UNL     1      23.850   5.840  19.327  1.00  0.00     0.012 A 
HETATM   14  C16 UNL     1      23.053   6.804  19.994  1.00  0.00     0.090 A 
HETATM   15  C17 UNL     1      22.606   6.579  21.269  1.00  0.00     0.046 A 
HETATM   16  C18 UNL     1      21.769   7.577  22.012  1.00  0.00     0.027 A 
HETATM   17  C19 UNL     1      20.978   8.366  21.285  1.00  0.00     0.051 C 
HETATM   18  C20 UNL     1      19.644   8.958  21.707  1.00  0.00     0.077 C 
ENDROOT
BRANCH   1  19
HETATM   19  C2  UNL     1      20.690   8.079  24.303  1.00  0.00     0.296 C 
HETATM   20  O2  UNL     1      21.291   9.119  24.792  1.00  0.00    -0.259 OA
BRANCH  19  21
HETATM   21  O1  UNL     1      19.401   8.065  24.779  1.00  0.00    -0.322 OA
HETATM   22  C1  UNL     1      19.034   8.410  26.115  1.00  0.00     0.213 C 
ENDBRANCH  19  21
ENDBRANCH   1  19
BRANCH  17  23
HETATM   23  O7  UNL     1      21.242   8.792  20.019  1.00  0.00    -0.364 OA
ATOM     24  H7  UNL     1      20.975   9.629  19.655  1.00  0.00     0.217 HD
ENDBRANCH  17  23
BRANCH  14  25
HETATM   25  O6  UNL     1      22.793   7.939  19.300  1.00  0.00    -0.359 OA
ATOM     26  H6  UNL     1      22.842   8.748  19.795  1.00  0.00     0.217 HD
ENDBRANCH  14  25
BRANCH   8  27
HETATM   27  O4  UNL     1      25.279   2.559  19.968  1.00  0.00    -0.352 OA
HETATM   28  C10 UNL     1      24.542   1.366  19.813  1.00  0.00     0.210 C 
ENDBRANCH   8  27
BRANCH   9  29
HETATM   29  O5  UNL     1      26.161   3.011  17.388  1.00  0.00    -0.357 OA
ATOM     30  H5  UNL     1      27.061   3.206  17.153  1.00  0.00     0.217 HD
ENDBRANCH   9  29
TORSDOF 6
ENDMDL
MODEL 2
REMARK VINA RESULT: -8.329858832      1.140      1.488
REMARK  6 active torsions:
REMARK  status: ('A' for Active; 'I' for Inactive)
REMARK    1  A    between atoms: O1_2  and  C2_3 
REMARK    2  A    between atoms: C2_3  and  C3_5 
REMARK    3  A    between atoms: C9_12  and  O4_13 
REMARK    4  A    between atoms: C11_15  and  O5_16 
REMARK    5  A    between atoms: C16_22  and  O6_23 
REMARK    6  A    between atoms: C19_27  and  O7_29 
ROOT
HETATM    1  C3  UNL     1      21.509   7.330  22.673  1.00  0.00     0.082 A 
HETATM    2  C4  UNL     1      22.168   6.196  22.953  1.00  0.00     0.067 A 
HETATM    3  C5  UNL     1      22.081   5.610  24.342  1.00  0.00     0.078 C 
HETATM    4  O3  UNL     1      22.954   5.541  22.048  1.00  0.00    -0.313 OA
HETATM    5  C6  UNL     1      23.137   6.004  20.775  1.00  0.00     0.090 A 
HETATM    6  C7  UNL     1      23.960   5.315  19.920  1.00  0.00     0.053 A 
HETATM    7  C8  UNL     1      24.185   5.758  18.649  1.00  0.00     0.016 A 
HETATM    8  C9  UNL     1      25.018   5.054  17.785  1.00  0.00     0.113 A 
HETATM    9  C11 UNL     1      25.239   5.506  16.507  1.00  0.00     0.105 A 
HETATM   10  C12 UNL     1      24.645   6.662  16.049  1.00  0.00    -0.025 A 
HETATM   11  C13 UNL     1      24.872   7.164  14.673  1.00  0.00     0.051 C 
HETATM   12  C14 UNL     1      23.795   7.382  16.928  1.00  0.00     0.025 A 
HETATM   13  C15 UNL     1      23.590   6.908  18.202  1.00  0.00     0.012 A 
HETATM   14  C16 UNL     1      22.737   7.622  19.079  1.00  0.00     0.090 A 
HETATM   15  C17 UNL     1      22.505   7.170  20.351  1.00  0.00     0.046 A 
HETATM   16  C18 UNL     1      21.616   7.902  21.312  1.00  0.00     0.027 A 
HETATM   17  C19 UNL     1      20.615   8.611  20.792  1.00  0.00     0.051 C 
HETATM   18  C20 UNL     1      19.268   8.893  21.435  1.00  0.00     0.077 C 
ENDROOT
BRANCH   1  19
HETATM   19  C2  UNL     1      20.778   7.923  23.754  1.00  0.00     0.296 C 
HETATM   20  O2  UNL     1      21.238   9.008  24.295  1.00  0.00    -0.259 OA
BRANCH  19  21
HETATM   21  O1  UNL     1      19.597   7.599  24.378  1.00  0.00    -0.322 OA
HETATM   22  C1  UNL     1      19.239   8.026  25.692  1.00  0.00     0.213 C 
ENDBRANCH  19  21
ENDBRANCH   1  19
BRANCH  17  23
HETATM   23  O7  UNL     1      20.634   9.225  19.577  1.00  0.00    -0.364 OA
ATOM     24  H7  UNL     1      21.230   9.015  18.866  1.00  0.00     0.217 HD
ENDBRANCH  17  23
BRANCH  14  25
HETATM   25  O6  UNL     1      22.199   8.763  18.582  1.00  0.00    -0.359 OA
ATOM     26  H6  UNL     1      21.555   9.192  19.133  1.00  0.00     0.217 HD
ENDBRANCH  14  25
BRANCH   8  27
HETATM   27  O4  UNL     1      25.624   3.894  18.221  1.00  0.00    -0.352 OA
HETATM   28  C10 UNL     1      25.049   2.618  18.047  1.00  0.00     0.210 C 
ENDBRANCH   8  27
BRANCH   9  29
HETATM   29  O5  UNL     1      26.071   4.802  15.649  1.00  0.00    -0.357 OA
ATOM     30  H5  UNL     1      25.752   4.514  14.802  1.00  0.00     0.217 HD
ENDBRANCH   9  29
TORSDOF 6
ENDMDL
MODEL 3
REMARK VINA RESULT: -8.284401038      1.740      2.160
REMARK  6 active torsions:
REMARK  status: ('A' for Active; 'I' for Inactive)
REMARK    1  A    between atoms: O1_2  and  C2_3 
REMARK    2  A    between atoms: C2_3  and  C3_5 
REMARK    3  A    between atoms: C9_12  and  O4_13 
REMARK    4  A    between atoms: C11_15  and  O5_16 
REMARK    5  A    between atoms: C16_22  and  O6_23 
REMARK    6  A    between atoms: C19_27  and  O7_29 
ROOT
HETATM    1  C3  UNL     1      21.552   5.018  23.858  1.00  0.00     0.082 A 
HETATM    2  C4  UNL     1      21.950   3.773  23.561  1.00  0.00     0.067 A 
HETATM    3  C5  UNL     1      21.712   2.659  24.553  1.00  0.00     0.078 C 
HETATM    4  O3  UNL     1      22.599   3.449  22.403  1.00  0.00    -0.313 OA
HETATM    5  C6  UNL     1      22.902   4.384  21.454  1.00  0.00     0.090 A 
HETATM    6  C7  UNL     1      23.579   4.000  20.323  1.00  0.00     0.053 A 
HETATM    7  C8  UNL     1      23.918   4.908  19.363  1.00  0.00     0.016 A 
HETATM    8  C9  UNL     1      24.602   4.514  18.217  1.00  0.00     0.113 A 
HETATM    9  C11 UNL     1      24.941   5.434  17.255  1.00  0.00     0.105 A 
HETATM   10  C12 UNL     1      24.613   6.764  17.399  1.00  0.00    -0.025 A 
HETATM   11  C13 UNL     1      24.971   7.771  16.371  1.00  0.00     0.051 C 
HETATM   12  C14 UNL     1      23.917   7.170  18.565  1.00  0.00     0.025 A 
HETATM   13  C15 UNL     1      23.590   6.229  19.514  1.00  0.00     0.012 A 
HETATM   14  C16 UNL     1      22.888   6.631  20.678  1.00  0.00     0.090 A 
HETATM   15  C17 UNL     1      22.540   5.716  21.634  1.00  0.00     0.046 A 
HETATM   16  C18 UNL     1      21.806   6.103  22.884  1.00  0.00     0.027 A 
HETATM   17  C19 UNL     1      20.988   7.152  22.806  1.00  0.00     0.051 C 
HETATM   18  C20 UNL     1      19.718   7.379  23.608  1.00  0.00     0.077 C 
ENDROOT
BRANCH   1  19
HETATM   19  C2  UNL     1      20.940   5.199  25.143  1.00  0.00     0.296 C 
HETATM   20  O2  UNL     1      21.636   5.744  26.092  1.00  0.00    -0.259 OA
BRANCH  19  21
HETATM   21  O1  UNL     1      19.682   4.936  25.628  1.00  0.00    -0.322 OA
HETATM   22  C1  UNL     1      19.350   4.889  27.016  1.00  0.00     0.213 C 
ENDBRANCH  19  21
ENDBRANCH   1  19
BRANCH  17  23
HETATM   23  O7  UNL     1      21.162   8.226  21.987  1.00  0.00    -0.364 OA
ATOM     24  H7  UNL     1      20.485   8.621  21.450  1.00  0.00     0.217 HD
ENDBRANCH  17  23
BRANCH  14  25
HETATM   25  O6  UNL     1      22.615   7.956  20.775  1.00  0.00    -0.359 OA
ATOM     26  H6  UNL     1      22.181   8.232  21.574  1.00  0.00     0.217 HD
ENDBRANCH  14  25
BRANCH   8  27
HETATM   27  O4  UNL     1      24.940   3.186  18.051  1.00  0.00    -0.352 OA
HETATM   28  C10 UNL     1      26.213   2.673  18.376  1.00  0.00     0.210 C 
ENDBRANCH   8  27
BRANCH   9  29
HETATM   29  O5  UNL     1      25.622   5.036  16.115  1.00  0.00    -0.357 OA
ATOM     30  H5  UNL     1      25.195   5.064  15.267  1.00  0.00     0.217 HD
ENDBRANCH   9  29
TORSDOF 6
ENDMDL
MODEL 4
REMARK VINA RESULT: -8.270227203      1.410      7.710
REMARK  6 active torsions:
REMARK  status: ('A' for Active; 'I' for Inactive)
REMARK    1  A    between atoms: O1_2  and  C2_3 
REMARK    2  A    between atoms: C2_3  and  C3_5 
REMARK    3  A    between atoms: C9_12  and  O4_13 
REMARK    4  A    between atoms: C11_15  and  O5_16 
REMARK    5  A    between atoms: C16_22  and  O6_23 
REMARK    6  A    between atoms: C19_27  and  O7_29 
ROOT
HETATM    1  C3  UNL     1      24.783   3.757  19.206  1.00  0.00     0.082 A 
HETATM    2  C4  UNL     1      24.428   4.838  18.497  1.00  0.00     0.067 A 
HETATM    3  C5  UNL     1      24.913   4.987  17.075  1.00  0.00     0.078 C 
HETATM    4  O3  UNL     1      23.661   5.849  19.003  1.00  0.00    -0.313 OA
HETATM    5  C6  UNL     1      23.201   5.838  20.290  1.00  0.00     0.090 A 
HETATM    6  C7  UNL     1      22.458   6.896  20.748  1.00  0.00     0.053 A 
HETATM    7  C8  UNL     1      22.000   6.931  22.034  1.00  0.00     0.016 A 
HETATM    8  C9  UNL     1      21.244   8.006  22.493  1.00  0.00     0.113 A 
HETATM    9  C11 UNL     1      20.786   8.034  23.787  1.00  0.00     0.105 A 
HETATM   10  C12 UNL     1      21.062   7.005  24.661  1.00  0.00    -0.025 A 
HETATM   11  C13 UNL     1      20.576   7.019  26.061  1.00  0.00     0.051 C 
HETATM   12  C14 UNL     1      21.832   5.909  24.196  1.00  0.00     0.025 A 
HETATM   13  C15 UNL     1      22.279   5.905  22.895  1.00  0.00     0.012 A 
HETATM   14  C16 UNL     1      23.044   4.807  22.427  1.00  0.00     0.090 A 
HETATM   15  C17 UNL     1      23.494   4.770  21.135  1.00  0.00     0.046 A 
HETATM   16  C18 UNL     1      24.313   3.631  20.604  1.00  0.00     0.027 A 
HETATM   17  C19 UNL     1      24.109   2.432  21.147  1.00  0.00     0.051 C 
HETATM   18  C20 UNL     1      24.260   1.084  20.464  1.00  0.00     0.077 C 
ENDROOT
BRANCH   1  19
HETATM   19  C2  UNL     1      25.642   2.818  18.545  1.00  0.00     0.296 C 
HETATM   20  O2  UNL     1      26.918   2.879  18.767  1.00  0.00    -0.259 OA
BRANCH  19  21
HETATM   21  O1  UNL     1      25.404   1.770  17.688  1.00  0.00    -0.322 OA
HETATM   22  C1  UNL     1      26.316   0.696  17.461  1.00  0.00     0.213 C 
ENDBRANCH  19  21
ENDBRANCH   1  19
BRANCH  17  23
HETATM   23  O7  UNL     1      23.732   2.207  22.437  1.00  0.00    -0.364 OA
ATOM     24  H7  UNL     1      22.851   2.312  22.777  1.00  0.00     0.217 HD
ENDBRANCH  17  23
BRANCH  14  25
HETATM   25  O6  UNL     1      23.303   3.837  23.338  1.00  0.00    -0.359 OA
ATOM     26  H6  UNL     1      23.522   2.983  22.983  1.00  0.00     0.217 HD
ENDBRANCH  14  25
BRANCH   8  27
HETATM   27  O4  UNL     1      20.955   9.048  21.635  1.00  0.00    -0.352 OA
HETATM   28  C10 UNL     1      19.861   9.026  20.745  1.00  0.00     0.210 C 
ENDBRANCH   8  27
BRANCH   9  29
HETATM   29  O5  UNL     1      20.033   9.107  24.240  1.00  0.00    -0.357 OA
ATOM     30  H5  UNL     1      19.811   9.183  25.161  1.00  0.00     0.217 HD
ENDBRANCH   9  29
TORSDOF 6
ENDMDL
MODEL 5
REMARK VINA RESULT: -8.110349084      3.138      6.089
REMARK  6 active torsions:
REMARK  status: ('A' for Active; 'I' for Inactive)
REMARK    1  A    between atoms: O1_2  and  C2_3 
REMARK    2  A    between atoms: C2_3  and  C3_5 
REMARK    3  A    between atoms: C9_12  and  O4_13 
REMARK    4  A    between atoms: C11_15  and  O5_16 
REMARK    5  A    between atoms: C16_22  and  O6_23 
REMARK    6  A    between atoms: C19_27  and  O7_29 
ROOT
HETATM    1  C3  UNL     1      21.569   0.957  22.356  1.00  0.00     0.082 A 
HETATM    2  C4  UNL     1      21.110   2.092  22.901  1.00  0.00     0.067 A 
HETATM    3  C5  UNL     1      20.186   2.024  24.094  1.00  0.00     0.078 C 
HETATM    4  O3  UNL     1      21.410   3.333  22.415  1.00  0.00    -0.313 OA
HETATM    5  C6  UNL     1      22.203   3.511  21.316  1.00  0.00     0.090 A 
HETATM    6  C7  UNL     1      22.446   4.782  20.861  1.00  0.00     0.053 A 
HETATM    7  C8  UNL     1      23.215   4.999  19.754  1.00  0.00     0.016 A 
HETATM    8  C9  UNL     1      23.460   6.291  19.297  1.00  0.00     0.113 A 
HETATM    9  C11 UNL     1      24.235   6.501  18.183  1.00  0.00     0.105 A 
HETATM   10  C12 UNL     1      24.786   5.444  17.491  1.00  0.00    -0.025 A 
HETATM   11  C13 UNL     1      25.624   5.653  16.287  1.00  0.00     0.051 C 
HETATM   12  C14 UNL     1      24.537   4.127  17.954  1.00  0.00     0.025 A 
HETATM   13  C15 UNL     1      23.758   3.944  19.072  1.00  0.00     0.012 A 
HETATM   14  C16 UNL     1      23.513   2.628  19.539  1.00  0.00     0.090 A 
HETATM   15  C17 UNL     1      22.750   2.414  20.656  1.00  0.00     0.046 A 
HETATM   16  C18 UNL     1      22.460   1.038  21.177  1.00  0.00     0.027 A 
HETATM   17  C19 UNL     1      23.379   0.099  20.954  1.00  0.00     0.051 C 
HETATM   18  C20 UNL     1      23.687  -1.102  21.831  1.00  0.00     0.077 C 
ENDROOT
BRANCH   1  19
HETATM   19  C2  UNL     1      21.109  -0.264  22.950  1.00  0.00     0.296 C 
HETATM   20  O2  UNL     1      20.229  -0.974  22.314  1.00  0.00    -0.259 OA
BRANCH  19  21
HETATM   21  O1  UNL     1      21.430  -0.921  24.113  1.00  0.00    -0.322 OA
HETATM   22  C1  UNL     1      20.923  -2.204  24.478  1.00  0.00     0.213 C 
ENDBRANCH  19  21
ENDBRANCH   1  19
BRANCH  17  23
HETATM   23  O7  UNL     1      24.208   0.051  19.874  1.00  0.00    -0.364 OA
ATOM     24  H7  UNL     1      25.145  -0.106  19.908  1.00  0.00     0.217 HD
ENDBRANCH  17  23
BRANCH  14  25
HETATM   25  O6  UNL     1      24.061   1.628  18.806  1.00  0.00    -0.359 OA
ATOM     26  H6  UNL     1      24.483   0.935  19.299  1.00  0.00     0.217 HD
ENDBRANCH  14  25
BRANCH   8  27
HETATM   27  O4  UNL     1      22.919   7.365  19.974  1.00  0.00    -0.352 OA
HETATM   28  C10 UNL     1      21.745   8.023  19.552  1.00  0.00     0.210 C 
ENDBRANCH   8  27
BRANCH   9  29
HETATM   29  O5  UNL     1      24.477   7.790  17.731  1.00  0.00    -0.357 OA
ATOM     30  H5  UNL     1      24.029   8.121  16.962  1.00  0.00     0.217 HD
ENDBRANCH   9  29
TORSDOF 6
ENDMDL
