MODEL 1
REMARK VINA RESULT: -9.642320431      0.000      0.000
REMARK  9 active torsions:
REMARK  status: ('A' for Active; 'I' for Inactive)
REMARK    1  A    between atoms: N1_1  and  C1_4 
REMARK    2  A    between atoms: C4_12  and  N4_13 
REMARK    3  A    between atoms: N4_13  and  O2_15 
REMARK    4  A    between atoms: N5_17  and  C5_18 
REMARK    5  A    between atoms: C5_18  and  C6_19 
REMARK       I    between atoms: C6_19  and  N6_21 
REMARK    6  A    between atoms: N6_21  and  N7_23 
REMARK    7  A    between atoms: C7_25  and  C8_26 
REMARK    8  A    between atoms: C12_30  and  N8_31 
REMARK    9  A    between atoms: C13_34  and  N9_35 
ROOT
HETATM    1  C1  UNL     1       1.168  20.483  24.605  1.00  0.00     0.680 A 
HETATM    2  N2  UNL     1       0.701  21.137  23.529  1.00  0.00    -0.154 N 
ATOM      3  H2  UNL     1       0.371  22.098  23.611  1.00  0.00     0.187 HD
HETATM    4  C2  UNL     1       0.675  20.506  22.344  1.00  0.00     0.290 A 
HETATM    5  O1  UNL     1       0.247  21.071  21.298  1.00  0.00    -0.265 OA
HETATM    6  C3  UNL     1       1.114  19.198  22.179  1.00  0.00     0.163 A 
HETATM    7  N3  UNL     1       1.203  18.340  21.147  1.00  0.00    -0.180 N 
ATOM      8  H3  UNL     1       0.927  18.531  20.184  1.00  0.00     0.184 HD
HETATM    9  C4  UNL     1       1.715  17.195  21.606  1.00  0.00     0.707 A 
HETATM   10  N5  UNL     1       1.950  17.321  22.921  1.00  0.00    -0.155 N 
HETATM   11  C14 UNL     1       1.587  18.565  23.321  1.00  0.00     0.172 A 
HETATM   12  N10 UNL     1       1.603  19.215  24.497  1.00  0.00    -0.174 N 
ATOM     13  H10 UNL     1       1.953  18.736  25.327  1.00  0.00     0.186 HD
ENDROOT
BRANCH  10  14
HETATM   14  C5  UNL     1       2.498  16.290  23.746  1.00  0.00     0.254 C 
BRANCH  14  15
HETATM   15  C6  UNL     1       3.948  16.329  23.890  1.00  0.00     0.255 C 
HETATM   16  O3  UNL     1       4.714  16.069  22.923  1.00  0.00    -0.270 OA
HETATM   17  N6  UNL     1       4.537  16.661  25.138  1.00  0.00    -0.269 N 
ATOM     18  H6  UNL     1       3.908  16.870  25.913  1.00  0.00     0.190 HD
BRANCH  17  19
HETATM   19  N7  UNL     1       5.887  16.724  25.385  1.00  0.00    -0.308 N 
HETATM   20  C7  UNL     1       6.524  17.694  25.952  1.00  0.00     0.121 C 
ATOM     21  H7  UNL     1       6.444  15.922  25.090  1.00  0.00     0.186 HD
BRANCH  20  22
HETATM   22  C8  UNL     1       7.961  17.570  26.124  1.00  0.00     0.016 A 
HETATM   23  C9  UNL     1       8.661  16.626  25.372  1.00  0.00     0.015 A 
HETATM   24  C10 UNL     1      10.017  16.511  25.538  1.00  0.00     0.003 A 
HETATM   25  C11 UNL     1      10.662  17.321  26.434  1.00  0.00     0.039 A 
HETATM   26  C12 UNL     1       9.958  18.270  27.190  1.00  0.00     0.136 A 
HETATM   27  C13 UNL     1       8.599  18.401  27.040  1.00  0.00     0.147 A 
BRANCH  26  28
HETATM   28  N8  UNL     1      10.668  19.105  28.091  1.00  0.00    -0.113 N 
HETATM   29  O4  UNL     1      10.949  20.257  27.803  1.00  0.00    -0.532 OA
HETATM   30  O5  UNL     1      11.012  18.533  29.312  1.00  0.00    -0.532 OA
ENDBRANCH  26  28
BRANCH  27  31
HETATM   31  N9  UNL     1       7.798  19.318  27.770  1.00  0.00    -0.112 N 
HETATM   32  O6  UNL     1       7.597  19.185  28.996  1.00  0.00    -0.532 OA
HETATM   33  O7  UNL     1       7.206  20.394  27.168  1.00  0.00    -0.532 OA
ENDBRANCH  27  31
ENDBRANCH  20  22
ENDBRANCH  17  19
ENDBRANCH  14  15
ENDBRANCH  10  14
BRANCH   9  34
HETATM   34  N4  UNL     1       1.935  16.149  20.864  1.00  0.00    -0.098 N 
ATOM     35  H4  UNL     1       1.155  15.520  20.675  1.00  0.00     0.213 HD
BRANCH  34  36
HETATM   36  O2  UNL     1       3.140  15.852  20.330  1.00  0.00    -0.276 OA
ATOM     37  H2  UNL     1       3.854  15.467  20.826  1.00  0.00     0.245 HD
ENDBRANCH  34  36
ENDBRANCH   9  34
BRANCH   1  38
HETATM   38  N1  UNL     1       1.199  21.081  25.769  1.00  0.00    -0.234 N 
ATOM     39  H12 UNL     1       1.443  22.070  25.821  1.00  0.00     0.174 HD
ATOM     40  H11 UNL     1       0.982  20.556  26.617  1.00  0.00     0.174 HD
ENDBRANCH   1  38
TORSDOF 9
ENDMDL
MODEL 2
REMARK VINA RESULT: -9.636395953      2.090      3.291
REMARK  9 active torsions:
REMARK  status: ('A' for Active; 'I' for Inactive)
REMARK    1  A    between atoms: N1_1  and  C1_4 
REMARK    2  A    between atoms: C4_12  and  N4_13 
REMARK    3  A    between atoms: N4_13  and  O2_15 
REMARK    4  A    between atoms: N5_17  and  C5_18 
REMARK    5  A    between atoms: C5_18  and  C6_19 
REMARK       I    between atoms: C6_19  and  N6_21 
REMARK    6  A    between atoms: N6_21  and  N7_23 
REMARK    7  A    between atoms: C7_25  and  C8_26 
REMARK    8  A    between atoms: C12_30  and  N8_31 
REMARK    9  A    between atoms: C13_34  and  N9_35 
ROOT
HETATM    1  C1  UNL     1       1.077  18.816  21.672  1.00  0.00     0.680 A 
HETATM    2  N2  UNL     1       0.586  17.655  21.208  1.00  0.00    -0.154 N 
ATOM      3  H2  UNL     1      -0.202  17.649  20.560  1.00  0.00     0.187 HD
HETATM    4  C2  UNL     1       1.148  16.504  21.609  1.00  0.00     0.290 A 
HETATM    5  O1  UNL     1       0.729  15.381  21.204  1.00  0.00    -0.265 OA
HETATM    6  C3  UNL     1       2.223  16.457  22.488  1.00  0.00     0.163 A 
HETATM    7  N3  UNL     1       2.964  15.484  23.046  1.00  0.00    -0.180 N 
ATOM      8  H3  UNL     1       2.847  14.482  22.897  1.00  0.00     0.184 HD
HETATM    9  C4  UNL     1       3.880  16.060  23.829  1.00  0.00     0.707 A 
HETATM   10  N5  UNL     1       3.724  17.392  23.772  1.00  0.00    -0.155 N 
HETATM   11  C14 UNL     1       2.693  17.684  22.940  1.00  0.00     0.172 A 
HETATM   12  N10 UNL     1       2.115  18.825  22.526  1.00  0.00    -0.174 N 
ATOM     13  H10 UNL     1       2.471  19.717  22.868  1.00  0.00     0.186 HD
ENDROOT
BRANCH  10  14
HETATM   14  C5  UNL     1       4.530  18.332  24.487  1.00  0.00     0.254 C 
BRANCH  14  15
HETATM   15  C6  UNL     1       5.376  17.749  25.521  1.00  0.00     0.255 C 
HETATM   16  O3  UNL     1       4.888  17.272  26.581  1.00  0.00    -0.270 OA
HETATM   17  N6  UNL     1       6.784  17.707  25.356  1.00  0.00    -0.269 N 
ATOM     18  H6  UNL     1       7.168  18.094  24.495  1.00  0.00     0.190 HD
BRANCH  17  19
HETATM   19  N7  UNL     1       7.673  17.185  26.265  1.00  0.00    -0.308 N 
HETATM   20  C7  UNL     1       8.956  17.115  26.137  1.00  0.00     0.121 C 
ATOM     21  H7  UNL     1       7.278  16.815  27.130  1.00  0.00     0.186 HD
BRANCH  20  22
HETATM   22  C8  UNL     1       9.727  16.524  27.218  1.00  0.00     0.016 A 
HETATM   23  C9  UNL     1      10.069  15.173  27.155  1.00  0.00     0.015 A 
HETATM   24  C10 UNL     1      10.795  14.618  28.178  1.00  0.00     0.003 A 
HETATM   25  C11 UNL     1      11.172  15.395  29.241  1.00  0.00     0.039 A 
HETATM   26  C12 UNL     1      10.827  16.753  29.304  1.00  0.00     0.136 A 
HETATM   27  C13 UNL     1      10.100  17.328  28.291  1.00  0.00     0.147 A 
BRANCH  26  28
HETATM   28  N8  UNL     1      11.257  17.527  30.413  1.00  0.00    -0.113 N 
HETATM   29  O4  UNL     1      12.343  18.083  30.417  1.00  0.00    -0.532 OA
HETATM   30  O5  UNL     1      10.367  17.615  31.479  1.00  0.00    -0.532 OA
ENDBRANCH  26  28
BRANCH  27  31
HETATM   31  N9  UNL     1       9.689  18.687  28.273  1.00  0.00    -0.112 N 
HETATM   32  O6  UNL     1       8.594  19.050  28.754  1.00  0.00    -0.532 OA
HETATM   33  O7  UNL     1      10.471  19.668  27.727  1.00  0.00    -0.532 OA
ENDBRANCH  27  31
ENDBRANCH  20  22
ENDBRANCH  17  19
ENDBRANCH  14  15
ENDBRANCH  10  14
BRANCH   9  34
HETATM   34  N4  UNL     1       4.763  15.401  24.519  1.00  0.00    -0.098 N 
ATOM     35  H4  UNL     1       5.744  15.668  24.429  1.00  0.00     0.213 HD
BRANCH  34  36
HETATM   36  O2  UNL     1       4.453  14.380  25.349  1.00  0.00    -0.276 OA
ATOM     37  H2  UNL     1       5.009  13.621  25.479  1.00  0.00     0.245 HD
ENDBRANCH  34  36
ENDBRANCH   9  34
BRANCH   1  38
HETATM   38  N1  UNL     1       0.540  19.948  21.294  1.00  0.00    -0.234 N 
ATOM     39  H12 UNL     1       0.127  20.568  21.991  1.00  0.00     0.174 HD
ATOM     40  H11 UNL     1       0.537  20.204  20.306  1.00  0.00     0.174 HD
ENDBRANCH   1  38
TORSDOF 9
ENDMDL
MODEL 3
REMARK VINA RESULT: -9.566594214      2.496      3.964
REMARK  9 active torsions:
REMARK  status: ('A' for Active; 'I' for Inactive)
REMARK    1  A    between atoms: N1_1  and  C1_4 
REMARK    2  A    between atoms: C4_12  and  N4_13 
REMARK    3  A    between atoms: N4_13  and  O2_15 
REMARK    4  A    between atoms: N5_17  and  C5_18 
REMARK    5  A    between atoms: C5_18  and  C6_19 
REMARK       I    between atoms: C6_19  and  N6_21 
REMARK    6  A    between atoms: N6_21  and  N7_23 
REMARK    7  A    between atoms: C7_25  and  C8_26 
REMARK    8  A    between atoms: C12_30  and  N8_31 
REMARK    9  A    between atoms: C13_34  and  N9_35 
ROOT
HETATM    1  C1  UNL     1       3.987  15.703  20.702  1.00  0.00     0.680 A 
HETATM    2  N2  UNL     1       2.869  14.972  20.568  1.00  0.00    -0.154 N 
ATOM      3  H2  UNL     1       2.754  14.344  19.772  1.00  0.00     0.187 HD
HETATM    4  C2  UNL     1       1.905  15.078  21.496  1.00  0.00     0.290 A 
HETATM    5  O1  UNL     1       0.832  14.414  21.422  1.00  0.00    -0.265 OA
HETATM    6  C3  UNL     1       2.013  15.917  22.599  1.00  0.00     0.163 A 
HETATM    7  N3  UNL     1       1.234  16.219  23.652  1.00  0.00    -0.180 N 
ATOM      8  H3  UNL     1       0.311  15.831  23.847  1.00  0.00     0.184 HD
HETATM    9  C4  UNL     1       1.883  17.116  24.400  1.00  0.00     0.707 A 
HETATM   10  N5  UNL     1       3.065  17.386  23.826  1.00  0.00    -0.155 N 
HETATM   11  C14 UNL     1       3.187  16.653  22.692  1.00  0.00     0.172 A 
HETATM   12  N10 UNL     1       4.139  16.531  21.750  1.00  0.00    -0.174 N 
ATOM     13  H10 UNL     1       4.995  17.078  21.833  1.00  0.00     0.186 HD
ENDROOT
BRANCH  10  14
HETATM   14  C5  UNL     1       4.027  18.306  24.350  1.00  0.00     0.254 C 
BRANCH  14  15
HETATM   15  C6  UNL     1       4.942  17.739  25.333  1.00  0.00     0.255 C 
HETATM   16  O3  UNL     1       4.524  17.245  26.415  1.00  0.00    -0.270 OA
HETATM   17  N6  UNL     1       6.340  17.733  25.092  1.00  0.00    -0.269 N 
ATOM     18  H6  UNL     1       6.667  18.134  24.214  1.00  0.00     0.190 HD
BRANCH  17  19
HETATM   19  N7  UNL     1       7.289  17.229  25.949  1.00  0.00    -0.308 N 
HETATM   20  C7  UNL     1       8.571  17.323  25.821  1.00  0.00     0.121 C 
ATOM     21  H7  UNL     1       6.946  16.731  26.770  1.00  0.00     0.186 HD
BRANCH  20  22
HETATM   22  C8  UNL     1       9.412  16.720  26.841  1.00  0.00     0.016 A 
HETATM   23  C9  UNL     1       9.843  15.403  26.681  1.00  0.00     0.015 A 
HETATM   24  C10 UNL     1      10.636  14.836  27.646  1.00  0.00     0.003 A 
HETATM   25  C11 UNL     1      10.991  15.568  28.748  1.00  0.00     0.039 A 
HETATM   26  C12 UNL     1      10.557  16.893  28.908  1.00  0.00     0.136 A 
HETATM   27  C13 UNL     1       9.762  17.479  27.954  1.00  0.00     0.147 A 
BRANCH  26  28
HETATM   28  N8  UNL     1      10.967  17.623  30.053  1.00  0.00    -0.113 N 
HETATM   29  O4  UNL     1      12.034  18.214  30.082  1.00  0.00    -0.532 OA
HETATM   30  O5  UNL     1      10.080  17.627  31.126  1.00  0.00    -0.532 OA
ENDBRANCH  26  28
BRANCH  27  31
HETATM   31  N9  UNL     1       9.260  18.804  28.035  1.00  0.00    -0.112 N 
HETATM   32  O6  UNL     1       9.944  19.790  27.685  1.00  0.00    -0.532 OA
HETATM   33  O7  UNL     1       8.001  19.069  28.499  1.00  0.00    -0.532 OA
ENDBRANCH  27  31
ENDBRANCH  20  22
ENDBRANCH  17  19
ENDBRANCH  14  15
ENDBRANCH  10  14
BRANCH   9  34
HETATM   34  N4  UNL     1       1.408  17.623  25.500  1.00  0.00    -0.098 N 
ATOM     35  H4  UNL     1       0.805  18.442  25.433  1.00  0.00     0.213 HD
BRANCH  34  36
HETATM   36  O2  UNL     1       1.672  17.123  26.728  1.00  0.00    -0.276 OA
ATOM     37  H2  UNL     1       1.025  16.685  27.267  1.00  0.00     0.245 HD
ENDBRANCH  34  36
ENDBRANCH   9  34
BRANCH   1  38
HETATM   38  N1  UNL     1       4.937  15.614  19.805  1.00  0.00    -0.234 N 
ATOM     39  H12 UNL     1       4.794  15.038  18.976  1.00  0.00     0.174 HD
ATOM     40  H11 UNL     1       5.814  16.118  19.942  1.00  0.00     0.174 HD
ENDBRANCH   1  38
TORSDOF 9
ENDMDL
MODEL 4
REMARK VINA RESULT: -9.544124383      2.614      3.920
REMARK  9 active torsions:
REMARK  status: ('A' for Active; 'I' for Inactive)
REMARK    1  A    between atoms: N1_1  and  C1_4 
REMARK    2  A    between atoms: C4_12  and  N4_13 
REMARK    3  A    between atoms: N4_13  and  O2_15 
REMARK    4  A    between atoms: N5_17  and  C5_18 
REMARK    5  A    between atoms: C5_18  and  C6_19 
REMARK       I    between atoms: C6_19  and  N6_21 
REMARK    6  A    between atoms: N6_21  and  N7_23 
REMARK    7  A    between atoms: C7_25  and  C8_26 
REMARK    8  A    between atoms: C12_30  and  N8_31 
REMARK    9  A    between atoms: C13_34  and  N9_35 
ROOT
HETATM    1  C1  UNL     1       4.029  16.185  20.456  1.00  0.00     0.680 A 
HETATM    2  N2  UNL     1       2.896  16.685  19.938  1.00  0.00    -0.154 N 
ATOM      3  H2  UNL     1       2.820  16.864  18.936  1.00  0.00     0.187 HD
HETATM    4  C2  UNL     1       1.865  16.945  20.757  1.00  0.00     0.290 A 
HETATM    5  O1  UNL     1       0.773  17.415  20.326  1.00  0.00    -0.265 OA
HETATM    6  C3  UNL     1       1.916  16.717  22.127  1.00  0.00     0.163 A 
HETATM    7  N3  UNL     1       1.068  16.878  23.158  1.00  0.00    -0.180 N 
ATOM      8  H3  UNL     1       0.117  17.241  23.101  1.00  0.00     0.184 HD
HETATM    9  C4  UNL     1       1.691  16.478  24.270  1.00  0.00     0.707 A 
HETATM   10  N5  UNL     1       2.928  16.067  23.951  1.00  0.00    -0.155 N 
HETATM   11  C14 UNL     1       3.111  16.200  22.614  1.00  0.00     0.172 A 
HETATM   12  N10 UNL     1       4.130  15.948  21.775  1.00  0.00    -0.174 N 
ATOM     13  H10 UNL     1       5.000  15.569  22.148  1.00  0.00     0.186 HD
ENDROOT
BRANCH  10  14
HETATM   14  C5  UNL     1       3.883  15.571  24.892  1.00  0.00     0.254 C 
BRANCH  14  15
HETATM   15  C6  UNL     1       4.622  16.601  25.613  1.00  0.00     0.255 C 
HETATM   16  O3  UNL     1       4.073  17.305  26.504  1.00  0.00    -0.270 OA
HETATM   17  N6  UNL     1       5.990  16.838  25.323  1.00  0.00    -0.269 N 
ATOM     18  H6  UNL     1       6.424  16.263  24.601  1.00  0.00     0.190 HD
BRANCH  17  19
HETATM   19  N7  UNL     1       6.778  17.782  25.937  1.00  0.00    -0.308 N 
HETATM   20  C7  UNL     1       7.718  17.562  26.795  1.00  0.00     0.121 C 
ATOM     21  H7  UNL     1       6.602  18.755  25.690  1.00  0.00     0.186 HD
BRANCH  20  22
HETATM   22  C8  UNL     1       8.442  18.701  27.334  1.00  0.00     0.016 A 
HETATM   23  C9  UNL     1       7.776  19.915  27.507  1.00  0.00     0.015 A 
HETATM   24  C10 UNL     1       8.462  20.988  28.014  1.00  0.00     0.003 A 
HETATM   25  C11 UNL     1       9.785  20.854  28.342  1.00  0.00     0.039 A 
HETATM   26  C12 UNL     1      10.454  19.633  28.167  1.00  0.00     0.136 A 
HETATM   27  C13 UNL     1       9.785  18.546  27.660  1.00  0.00     0.147 A 
BRANCH  26  28
HETATM   28  N8  UNL     1      11.819  19.531  28.540  1.00  0.00    -0.113 N 
HETATM   29  O4  UNL     1      12.707  19.976  27.831  1.00  0.00    -0.532 OA
HETATM   30  O5  UNL     1      12.076  18.903  29.756  1.00  0.00    -0.532 OA
ENDBRANCH  26  28
BRANCH  27  31
HETATM   31  N9  UNL     1      10.379  17.277  27.432  1.00  0.00    -0.112 N 
HETATM   32  O6  UNL     1      10.740  16.915  26.291  1.00  0.00    -0.532 OA
HETATM   33  O7  UNL     1      10.586  16.386  28.448  1.00  0.00    -0.532 OA
ENDBRANCH  27  31
ENDBRANCH  20  22
ENDBRANCH  17  19
ENDBRANCH  14  15
ENDBRANCH  10  14
BRANCH   9  34
HETATM   34  N4  UNL     1       1.150  16.500  25.453  1.00  0.00    -0.098 N 
ATOM     35  H4  UNL     1       1.681  16.917  26.218  1.00  0.00     0.213 HD
BRANCH  34  36
HETATM   36  O2  UNL     1      -0.076  16.002  25.723  1.00  0.00    -0.276 OA
ATOM     37  H2  UNL     1      -0.623  16.308  26.438  1.00  0.00     0.245 HD
ENDBRANCH  34  36
ENDBRANCH   9  34
BRANCH   1  38
HETATM   38  N1  UNL     1       5.046  15.927  19.672  1.00  0.00    -0.234 N 
ATOM     39  H12 UNL     1       5.252  14.961  19.416  1.00  0.00     0.174 HD
ATOM     40  H11 UNL     1       5.627  16.690  19.324  1.00  0.00     0.174 HD
ENDBRANCH   1  38
TORSDOF 9
ENDMDL
MODEL 5
REMARK VINA RESULT: -9.508030719      2.132      3.877
REMARK  9 active torsions:
REMARK  status: ('A' for Active; 'I' for Inactive)
REMARK    1  A    between atoms: N1_1  and  C1_4 
REMARK    2  A    between atoms: C4_12  and  N4_13 
REMARK    3  A    between atoms: N4_13  and  O2_15 
REMARK    4  A    between atoms: N5_17  and  C5_18 
REMARK    5  A    between atoms: C5_18  and  C6_19 
REMARK       I    between atoms: C6_19  and  N6_21 
REMARK    6  A    between atoms: N6_21  and  N7_23 
REMARK    7  A    between atoms: C7_25  and  C8_26 
REMARK    8  A    between atoms: C12_30  and  N8_31 
REMARK    9  A    between atoms: C13_34  and  N9_35 
ROOT
HETATM    1  C1  UNL     1       4.894  14.617  20.260  1.00  0.00     0.680 A 
HETATM    2  N2  UNL     1       4.841  15.509  19.257  1.00  0.00    -0.154 N 
ATOM      3  H2  UNL     1       5.224  15.279  18.339  1.00  0.00     0.187 HD
HETATM    4  C2  UNL     1       4.279  16.707  19.480  1.00  0.00     0.290 A 
HETATM    5  O1  UNL     1       4.201  17.585  18.574  1.00  0.00    -0.265 OA
HETATM    6  C3  UNL     1       3.743  17.070  20.710  1.00  0.00     0.163 A 
HETATM    7  N3  UNL     1       3.138  18.162  21.207  1.00  0.00    -0.180 N 
ATOM      8  H3  UNL     1       2.943  19.024  20.697  1.00  0.00     0.184 HD
HETATM    9  C4  UNL     1       2.837  17.920  22.486  1.00  0.00     0.707 A 
HETATM   10  N5  UNL     1       3.248  16.683  22.802  1.00  0.00    -0.155 N 
HETATM   11  C14 UNL     1       3.823  16.113  21.714  1.00  0.00     0.172 A 
HETATM   12  N10 UNL     1       4.391  14.920  21.469  1.00  0.00    -0.174 N 
ATOM     13  H10 UNL     1       4.442  14.229  22.217  1.00  0.00     0.186 HD
ENDROOT
BRANCH  10  14
HETATM   14  C5  UNL     1       3.092  16.085  24.091  1.00  0.00     0.254 C 
BRANCH  14  15
HETATM   15  C6  UNL     1       4.341  15.767  24.773  1.00  0.00     0.255 C 
HETATM   16  O3  UNL     1       4.582  14.607  25.201  1.00  0.00    -0.270 OA
HETATM   17  N6  UNL     1       5.324  16.770  24.972  1.00  0.00    -0.269 N 
ATOM     18  H6  UNL     1       5.119  17.705  24.621  1.00  0.00     0.190 HD
BRANCH  17  19
HETATM   19  N7  UNL     1       6.531  16.582  25.602  1.00  0.00    -0.308 N 
HETATM   20  C7  UNL     1       7.339  17.503  26.011  1.00  0.00     0.121 C 
ATOM     21  H7  UNL     1       6.817  15.617  25.763  1.00  0.00     0.186 HD
BRANCH  20  22
HETATM   22  C8  UNL     1       8.576  17.098  26.659  1.00  0.00     0.016 A 
HETATM   23  C9  UNL     1       9.219  15.935  26.238  1.00  0.00     0.015 A 
HETATM   24  C10 UNL     1      10.385  15.555  26.852  1.00  0.00     0.003 A 
HETATM   25  C11 UNL     1      10.898  16.321  27.866  1.00  0.00     0.039 A 
HETATM   26  C12 UNL     1      10.250  17.490  28.288  1.00  0.00     0.136 A 
HETATM   27  C13 UNL     1       9.081  17.888  27.687  1.00  0.00     0.147 A 
BRANCH  26  28
HETATM   28  N8  UNL     1      10.826  18.266  29.327  1.00  0.00    -0.113 N 
HETATM   29  O4  UNL     1      10.563  18.053  30.500  1.00  0.00    -0.532 OA
HETATM   30  O5  UNL     1      11.705  19.268  28.927  1.00  0.00    -0.532 OA
ENDBRANCH  26  28
BRANCH  27  31
HETATM   31  N9  UNL     1       8.344  19.045  28.056  1.00  0.00    -0.112 N 
HETATM   32  O6  UNL     1       7.544  19.037  29.016  1.00  0.00    -0.532 OA
HETATM   33  O7  UNL     1       8.473  20.226  27.378  1.00  0.00    -0.532 OA
ENDBRANCH  27  31
ENDBRANCH  20  22
ENDBRANCH  17  19
ENDBRANCH  14  15
ENDBRANCH  10  14
BRANCH   9  34
HETATM   34  N4  UNL     1       2.240  18.775  23.265  1.00  0.00    -0.098 N 
ATOM     35  H4  UNL     1       1.221  18.775  23.290  1.00  0.00     0.213 HD
BRANCH  34  36
HETATM   36  O2  UNL     1       2.899  19.662  24.043  1.00  0.00    -0.276 OA
ATOM     37  H2  UNL     1       2.767  20.602  23.996  1.00  0.00     0.245 HD
ENDBRANCH  34  36
ENDBRANCH   9  34
BRANCH   1  38
HETATM   38  N1  UNL     1       5.441  13.445  20.061  1.00  0.00    -0.234 N 
ATOM     39  H12 UNL     1       4.928  12.731  19.544  1.00  0.00     0.174 HD
ATOM     40  H11 UNL     1       6.375  13.251  20.425  1.00  0.00     0.174 HD
ENDBRANCH   1  38
TORSDOF 9
ENDMDL
