MODEL 1
REMARK VINA RESULT: -5.709537936      0.000      0.000
REMARK  5 active torsions:
REMARK  status: ('A' for Active; 'I' for Inactive)
REMARK    1  A    between atoms: N1_2  and  C2_3 
REMARK    2  A    between atoms: N1_2  and  C4_7 
REMARK    3  A    between atoms: C2_3  and  C3_4 
REMARK    4  A    between atoms: C3_4  and  O1_5 
REMARK    5  A    between atoms: C8_11  and  O2_12 
ROOT
HETATM    1  C4  UNL     1     -30.833  -6.952  41.794  1.00  0.00     0.116 C 
HETATM    2  C5  UNL     1     -31.943  -6.210  42.546  1.00  0.00     0.066 C 
HETATM    3  C6  UNL     1     -31.216  -4.965  42.878  1.00  0.00     0.261 A 
HETATM    4  C7  UNL     1     -30.728  -4.696  41.427  1.00  0.00     0.286 A 
HETATM    5  C8  UNL     1     -29.821  -5.869  41.407  1.00  0.00     0.176 C 
HETATM    6  N2  UNL     1     -31.126  -3.748  42.297  1.00  0.00     0.100 N 
HETATM    7  C9  UNL     1     -30.398  -2.700  42.909  1.00  0.00     0.311 C 
ENDROOT
BRANCH   1   8
HETATM    8  N1  UNL     1     -31.210  -7.730  40.713  1.00  0.00    -0.388 N 
HETATM    9  C1  UNL     1     -30.259  -8.604  40.118  1.00  0.00     0.149 C 
BRANCH   8  10
HETATM   10  C2  UNL     1     -32.537  -8.182  40.597  1.00  0.00     0.084 C 
BRANCH  10  11
HETATM   11  C3  UNL     1     -32.766  -9.597  41.096  1.00  0.00     0.208 C 
BRANCH  11  12
HETATM   12  O1  UNL     1     -33.239  -9.609  42.419  1.00  0.00    -0.396 OA
ATOM     13  H1  UNL     1     -34.101  -9.216  42.487  1.00  0.00     0.209 HD
ENDBRANCH  11  12
ENDBRANCH  10  11
ENDBRANCH   8  10
ENDBRANCH   1   8
BRANCH   5  14
HETATM   14  O2  UNL     1     -28.756  -5.794  42.265  1.00  0.00    -0.391 OA
ATOM     15  H2  UNL     1     -28.848  -5.111  42.918  1.00  0.00     0.210 HD
ENDBRANCH   5  14
TORSDOF 5
ENDMDL
MODEL 2
REMARK VINA RESULT: -5.334236347      1.005      1.005
REMARK  5 active torsions:
REMARK  status: ('A' for Active; 'I' for Inactive)
REMARK    1  A    between atoms: N1_2  and  C2_3 
REMARK    2  A    between atoms: N1_2  and  C4_7 
REMARK    3  A    between atoms: C2_3  and  C3_4 
REMARK    4  A    between atoms: C3_4  and  O1_5 
REMARK    5  A    between atoms: C8_11  and  O2_12 
ROOT
HETATM    1  C4  UNL     1     -30.808  -6.848  42.047  1.00  0.00     0.116 C 
HETATM    2  C5  UNL     1     -31.866  -6.011  42.773  1.00  0.00     0.066 C 
HETATM    3  C6  UNL     1     -31.105  -4.754  42.939  1.00  0.00     0.261 A 
HETATM    4  C7  UNL     1     -30.688  -4.644  41.445  1.00  0.00     0.286 A 
HETATM    5  C8  UNL     1     -29.801  -5.831  41.501  1.00  0.00     0.176 C 
HETATM    6  N2  UNL     1     -31.027  -3.604  42.232  1.00  0.00     0.100 N 
HETATM    7  C9  UNL     1     -30.253  -2.514  42.695  1.00  0.00     0.311 C 
ENDROOT
BRANCH   1   8
HETATM    8  N1  UNL     1     -31.252  -7.725  41.073  1.00  0.00    -0.388 N 
HETATM    9  C1  UNL     1     -30.308  -8.331  40.199  1.00  0.00     0.149 C 
BRANCH   8  10
HETATM   10  C2  UNL     1     -32.394  -8.513  41.300  1.00  0.00     0.084 C 
BRANCH  10  11
HETATM   11  C3  UNL     1     -32.697  -9.514  40.199  1.00  0.00     0.208 C 
BRANCH  11  12
HETATM   12  O1  UNL     1     -33.459  -8.935  39.169  1.00  0.00    -0.396 OA
ATOM     13  H1  UNL     1     -33.094  -9.127  38.313  1.00  0.00     0.209 HD
ENDBRANCH  11  12
ENDBRANCH  10  11
ENDBRANCH   8  10
ENDBRANCH   1   8
BRANCH   5  14
HETATM   14  O2  UNL     1     -28.692  -5.691  42.292  1.00  0.00    -0.391 OA
ATOM     15  H2  UNL     1     -28.733  -4.932  42.862  1.00  0.00     0.210 HD
ENDBRANCH   5  14
TORSDOF 5
ENDMDL
MODEL 3
REMARK VINA RESULT: -5.268114686      1.400      1.836
REMARK  5 active torsions:
REMARK  status: ('A' for Active; 'I' for Inactive)
REMARK    1  A    between atoms: N1_2  and  C2_3 
REMARK    2  A    between atoms: N1_2  and  C4_7 
REMARK    3  A    between atoms: C2_3  and  C3_4 
REMARK    4  A    between atoms: C3_4  and  O1_5 
REMARK    5  A    between atoms: C8_11  and  O2_12 
ROOT
HETATM    1  C4  UNL     1     -30.907  -6.856  42.093  1.00  0.00     0.116 C 
HETATM    2  C5  UNL     1     -31.972  -6.012  42.801  1.00  0.00     0.066 C 
HETATM    3  C6  UNL     1     -31.190  -4.776  43.022  1.00  0.00     0.261 A 
HETATM    4  C7  UNL     1     -30.718  -4.643  41.546  1.00  0.00     0.286 A 
HETATM    5  C8  UNL     1     -29.860  -5.850  41.606  1.00  0.00     0.176 C 
HETATM    6  N2  UNL     1     -31.062  -3.613  42.344  1.00  0.00     0.100 N 
HETATM    7  C9  UNL     1     -30.281  -2.551  42.860  1.00  0.00     0.311 C 
ENDROOT
BRANCH   1   8
HETATM    8  N1  UNL     1     -31.335  -7.701  41.084  1.00  0.00    -0.388 N 
HETATM    9  C1  UNL     1     -32.729  -7.920  40.905  1.00  0.00     0.149 C 
BRANCH   8  10
HETATM   10  C2  UNL     1     -30.590  -7.817  39.896  1.00  0.00     0.084 C 
BRANCH  10  11
HETATM   11  C3  UNL     1     -29.882  -9.149  39.726  1.00  0.00     0.208 C 
BRANCH  11  12
HETATM   12  O1  UNL     1     -30.491  -9.935  38.733  1.00  0.00    -0.396 OA
ATOM     13  H1  UNL     1     -30.156 -10.825  38.736  1.00  0.00     0.209 HD
ENDBRANCH  11  12
ENDBRANCH  10  11
ENDBRANCH   8  10
ENDBRANCH   1   8
BRANCH   5  14
HETATM   14  O2  UNL     1     -28.777  -5.752  42.438  1.00  0.00    -0.391 OA
ATOM     15  H2  UNL     1     -28.277  -4.954  42.311  1.00  0.00     0.210 HD
ENDBRANCH   5  14
TORSDOF 5
ENDMDL
MODEL 4
REMARK VINA RESULT: -5.120944877      1.712      4.948
REMARK  5 active torsions:
REMARK  status: ('A' for Active; 'I' for Inactive)
REMARK    1  A    between atoms: N1_2  and  C2_3 
REMARK    2  A    between atoms: N1_2  and  C4_7 
REMARK    3  A    between atoms: C2_3  and  C3_4 
REMARK    4  A    between atoms: C3_4  and  O1_5 
REMARK    5  A    between atoms: C8_11  and  O2_12 
ROOT
HETATM    1  C4  UNL     1     -30.620  -6.363  42.148  1.00  0.00     0.116 C 
HETATM    2  C5  UNL     1     -30.129  -7.139  40.922  1.00  0.00     0.066 C 
HETATM    3  C6  UNL     1     -31.073  -8.277  40.965  1.00  0.00     0.261 A 
HETATM    4  C7  UNL     1     -32.351  -7.396  41.065  1.00  0.00     0.286 A 
HETATM    5  C8  UNL     1     -32.026  -6.904  42.425  1.00  0.00     0.176 C 
HETATM    6  N2  UNL     1     -32.253  -8.540  40.360  1.00  0.00     0.100 N 
HETATM    7  C9  UNL     1     -32.902  -9.785  40.538  1.00  0.00     0.311 C 
ENDROOT
BRANCH   1   8
HETATM    8  N1  UNL     1     -30.592  -4.981  42.076  1.00  0.00    -0.388 N 
HETATM    9  C1  UNL     1     -30.668  -4.348  40.805  1.00  0.00     0.149 C 
BRANCH   8  10
HETATM   10  C2  UNL     1     -31.130  -4.208  43.122  1.00  0.00     0.084 C 
BRANCH  10  11
HETATM   11  C3  UNL     1     -30.615  -2.781  43.178  1.00  0.00     0.208 C 
BRANCH  11  12
HETATM   12  O1  UNL     1     -30.960  -2.154  44.387  1.00  0.00    -0.396 OA
ATOM     13  H1  UNL     1     -31.902  -2.121  44.508  1.00  0.00     0.209 HD
ENDBRANCH  11  12
ENDBRANCH  10  11
ENDBRANCH   8  10
ENDBRANCH   1   8
BRANCH   5  14
HETATM   14  O2  UNL     1     -32.054  -7.855  43.410  1.00  0.00    -0.391 OA
ATOM     15  H2  UNL     1     -32.325  -8.710  43.096  1.00  0.00     0.210 HD
ENDBRANCH   5  14
TORSDOF 5
ENDMDL
MODEL 5
REMARK VINA RESULT: -4.652143030      1.565      5.152
REMARK  5 active torsions:
REMARK  status: ('A' for Active; 'I' for Inactive)
REMARK    1  A    between atoms: N1_2  and  C2_3 
REMARK    2  A    between atoms: N1_2  and  C4_7 
REMARK    3  A    between atoms: C2_3  and  C3_4 
REMARK    4  A    between atoms: C3_4  and  O1_5 
REMARK    5  A    between atoms: C8_11  and  O2_12 
ROOT
HETATM    1  C4  UNL     1     -31.117  -6.468  42.418  1.00  0.00     0.116 C 
HETATM    2  C5  UNL     1     -30.623  -6.809  41.008  1.00  0.00     0.066 C 
HETATM    3  C6  UNL     1     -31.246  -8.142  40.852  1.00  0.00     0.261 A 
HETATM    4  C7  UNL     1     -32.674  -7.677  41.257  1.00  0.00     0.286 A 
HETATM    5  C8  UNL     1     -32.297  -7.413  42.666  1.00  0.00     0.176 C 
HETATM    6  N2  UNL     1     -32.397  -8.579  40.295  1.00  0.00     0.100 N 
HETATM    7  C9  UNL     1     -32.692  -9.962  40.220  1.00  0.00     0.311 C 
ENDROOT
BRANCH   1   8
HETATM    8  N1  UNL     1     -31.437  -5.147  42.676  1.00  0.00    -0.388 N 
HETATM    9  C1  UNL     1     -32.028  -4.804  43.923  1.00  0.00     0.149 C 
BRANCH   8  10
HETATM   10  C2  UNL     1     -30.667  -4.112  42.116  1.00  0.00     0.084 C 
BRANCH  10  11
HETATM   11  C3  UNL     1     -30.619  -2.842  42.947  1.00  0.00     0.208 C 
BRANCH  11  12
HETATM   12  O1  UNL     1     -29.490  -2.064  42.638  1.00  0.00    -0.396 OA
ATOM     13  H1  UNL     1     -28.779  -2.596  42.302  1.00  0.00     0.209 HD
ENDBRANCH  11  12
ENDBRANCH  10  11
ENDBRANCH   8  10
ENDBRANCH   1   8
BRANCH   5  14
HETATM   14  O2  UNL     1     -31.957  -8.522  43.395  1.00  0.00    -0.391 OA
ATOM     15  H2  UNL     1     -32.698  -9.083  43.590  1.00  0.00     0.210 HD
ENDBRANCH   5  14
TORSDOF 5
ENDMDL
