MODEL 1
REMARK VINA RESULT: -8.591103561      0.000      0.000
REMARK  15 active torsions:
REMARK  status: ('A' for Active; 'I' for Inactive)
REMARK    1  A    between atoms: C2_2  and  C3_3 
REMARK    2  A    between atoms: C3_3  and  C4_4 
REMARK    3  A    between atoms: C3_3  and  C7_11 
REMARK    4  A    between atoms: C4_4  and  C5_5 
REMARK    5  A    between atoms: C5_5  and  O1_6 
REMARK    6  A    between atoms: C5_5  and  C6_8 
REMARK    7  A    between atoms: C7_11  and  C8_12 
REMARK    8  A    between atoms: C7_11  and  N2_16 
REMARK    9  A    between atoms: C8_12  and  C9_13 
REMARK   10  A    between atoms: C15_20  and  C16_21 
REMARK       I    between atoms: C16_21  and  N3_23 
REMARK   11  A    between atoms: N3_23  and  C17_25 
REMARK   12  A    between atoms: C17_25  and  C18_29 
REMARK   13  A    between atoms: C21_32  and  C22_33 
REMARK   14  A    between atoms: C22_33  and  N5_34 
REMARK   15  A    between atoms: N5_34  and  C23_37 
ROOT
HETATM    1  C16 UNL     1      46.847  49.315  41.564  1.00  0.00     0.245 C 
HETATM    2  O3  UNL     1      47.936  49.572  41.076  1.00  0.00    -0.271 OA
HETATM    3  N3  UNL     1      46.004  48.290  41.140  1.00  0.00    -0.315 N 
ATOM      4  H3  UNL     1      45.129  48.211  41.656  1.00  0.00     0.170 HD
ENDROOT
BRANCH   1   5
HETATM    5  C15 UNL     1      46.400  50.187  42.708  1.00  0.00     0.172 C 
HETATM    6  N2  UNL     1      45.430  51.140  42.334  1.00  0.00    -0.395 N 
HETATM    7  C12 UNL     1      44.166  50.560  42.245  1.00  0.00     0.118 C 
HETATM    8  C13 UNL     1      44.210  49.426  43.280  1.00  0.00     0.022 C 
HETATM    9  C14 UNL     1      45.660  49.283  43.671  1.00  0.00     0.036 C 
BRANCH   6  10
HETATM   10  C7  UNL     1      45.676  52.493  42.399  1.00  0.00     0.084 C 
BRANCH  10  11
HETATM   11  C3  UNL     1      46.975  53.070  41.908  1.00  0.00     0.010 C 
BRANCH  11  12
HETATM   12  C2  UNL     1      47.449  54.206  42.734  1.00  0.00     0.002 C 
HETATM   13  C1  UNL     1      48.792  54.157  43.370  1.00  0.00     0.005 C 
ENDBRANCH  11  12
BRANCH  11  14
HETATM   14  C4  UNL     1      47.127  53.209  40.466  1.00  0.00     0.047 C 
BRANCH  14  15
HETATM   15  C5  UNL     1      45.904  53.336  39.607  1.00  0.00     0.207 C 
BRANCH  15  16
HETATM   16  O1  UNL     1      45.984  54.411  38.692  1.00  0.00    -0.387 OA
ATOM     17  H1  UNL     1      45.364  55.106  38.883  1.00  0.00     0.210 HD
ENDBRANCH  15  16
BRANCH  15  18
HETATM   18  C6  UNL     1      45.826  52.111  38.695  1.00  0.00     0.259 C 
HETATM   19  N1  UNL     1      46.583  52.000  37.508  1.00  0.00    -0.060 NA
HETATM   20  O2  UNL     1      45.061  51.156  39.004  1.00  0.00    -0.274 OA
ENDBRANCH  15  18
ENDBRANCH  14  15
ENDBRANCH  11  14
ENDBRANCH  10  11
BRANCH  10  21
HETATM   21  C8  UNL     1      45.423  52.961  43.822  1.00  0.00     0.029 C 
BRANCH  21  22
HETATM   22  C9  UNL     1      44.064  53.566  44.031  1.00  0.00    -0.021 C 
HETATM   23  C10 UNL     1      44.110  54.922  43.304  1.00  0.00     0.009 C 
HETATM   24  C11 UNL     1      43.851  53.895  45.506  1.00  0.00     0.009 C 
ENDBRANCH  21  22
ENDBRANCH  10  21
ENDBRANCH   6  10
ENDBRANCH   1   5
BRANCH   3  25
HETATM   25  C17 UNL     1      46.173  47.341  40.105  1.00  0.00     0.081 C 
HETATM   26  N4  UNL     1      47.287  46.642  40.232  1.00  0.00    -0.389 N 
ATOM     27  H42 UNL     1      47.888  46.838  41.031  1.00  0.00     0.157 HD
ATOM     28  H41 UNL     1      47.409  45.957  39.486  1.00  0.00     0.157 HD
BRANCH  25  29
HETATM   29  C18 UNL     1      45.309  47.059  38.955  1.00  0.00     0.053 C 
HETATM   30  C19 UNL     1      45.673  47.673  37.652  1.00  0.00     0.013 C 
HETATM   31  C20 UNL     1      44.401  48.292  37.036  1.00  0.00     0.007 C 
HETATM   32  C21 UNL     1      43.273  47.700  37.865  1.00  0.00     0.012 C 
HETATM   33  C27 UNL     1      43.935  47.710  39.234  1.00  0.00     0.018 C 
BRANCH  32  34
HETATM   34  C22 UNL     1      42.067  48.599  37.797  1.00  0.00     0.237 C 
BRANCH  34  35
HETATM   35  N5  UNL     1      41.939  49.169  36.474  1.00  0.00    -0.067 N 
ATOM     36  H52 UNL     1      42.742  48.926  35.894  1.00  0.00     0.278 HD
ATOM     37  H51 UNL     1      41.203  48.700  35.945  1.00  0.00     0.278 HD
BRANCH  35  38
HETATM   38  C23 UNL     1      41.731  50.585  36.492  1.00  0.00     0.115 C 
HETATM   39  C24 UNL     1      42.855  51.401  35.943  1.00  0.00     0.045 C 
HETATM   40  C25 UNL     1      41.587  51.005  37.962  1.00  0.00     0.045 C 
HETATM   41  C26 UNL     1      40.427  50.988  35.826  1.00  0.00     0.045 C 
ENDBRANCH  35  38
ENDBRANCH  34  35
ENDBRANCH  32  34
ENDBRANCH  25  29
ENDBRANCH   3  25
TORSDOF 15
ENDMDL
MODEL 2
REMARK VINA RESULT: -8.379098623      5.622      9.866
REMARK  15 active torsions:
REMARK  status: ('A' for Active; 'I' for Inactive)
REMARK    1  A    between atoms: C2_2  and  C3_3 
REMARK    2  A    between atoms: C3_3  and  C4_4 
REMARK    3  A    between atoms: C3_3  and  C7_11 
REMARK    4  A    between atoms: C4_4  and  C5_5 
REMARK    5  A    between atoms: C5_5  and  O1_6 
REMARK    6  A    between atoms: C5_5  and  C6_8 
REMARK    7  A    between atoms: C7_11  and  C8_12 
REMARK    8  A    between atoms: C7_11  and  N2_16 
REMARK    9  A    between atoms: C8_12  and  C9_13 
REMARK   10  A    between atoms: C15_20  and  C16_21 
REMARK       I    between atoms: C16_21  and  N3_23 
REMARK   11  A    between atoms: N3_23  and  C17_25 
REMARK   12  A    between atoms: C17_25  and  C18_29 
REMARK   13  A    between atoms: C21_32  and  C22_33 
REMARK   14  A    between atoms: C22_33  and  N5_34 
REMARK   15  A    between atoms: N5_34  and  C23_37 
ROOT
HETATM    1  C16 UNL     1      45.708  46.773  44.956  1.00  0.00     0.245 C 
HETATM    2  O3  UNL     1      45.027  45.784  44.736  1.00  0.00    -0.271 OA
HETATM    3  N3  UNL     1      46.389  47.024  46.145  1.00  0.00    -0.315 N 
ATOM      4  H3  UNL     1      46.913  47.899  46.164  1.00  0.00     0.170 HD
ENDROOT
BRANCH   1   5
HETATM    5  C15 UNL     1      45.802  47.785  43.845  1.00  0.00     0.172 C 
HETATM    6  N2  UNL     1      44.781  47.649  42.881  1.00  0.00    -0.395 N 
HETATM    7  C12 UNL     1      43.589  48.213  43.333  1.00  0.00     0.118 C 
HETATM    8  C13 UNL     1      44.049  49.354  44.252  1.00  0.00     0.022 C 
HETATM    9  C14 UNL     1      45.525  49.135  44.471  1.00  0.00     0.036 C 
BRANCH   6  10
HETATM   10  C7  UNL     1      45.053  47.317  41.574  1.00  0.00     0.084 C 
BRANCH  10  11
HETATM   11  C3  UNL     1      45.886  48.216  40.701  1.00  0.00     0.010 C 
BRANCH  11  12
HETATM   12  C2  UNL     1      47.342  48.020  40.895  1.00  0.00     0.002 C 
HETATM   13  C1  UNL     1      47.879  46.669  41.203  1.00  0.00     0.005 C 
ENDBRANCH  11  12
BRANCH  11  14
HETATM   14  C4  UNL     1      45.430  49.592  40.556  1.00  0.00     0.047 C 
BRANCH  14  15
HETATM   15  C5  UNL     1      45.010  50.089  39.205  1.00  0.00     0.207 C 
BRANCH  15  16
HETATM   16  O1  UNL     1      43.612  50.273  39.097  1.00  0.00    -0.387 OA
ATOM     17  H1  UNL     1      43.252  50.796  39.803  1.00  0.00     0.210 HD
ENDBRANCH  15  16
BRANCH  15  18
HETATM   18  C6  UNL     1      45.560  51.503  39.018  1.00  0.00     0.259 C 
HETATM   19  N1  UNL     1      46.266  51.894  37.859  1.00  0.00    -0.060 NA
HETATM   20  O2  UNL     1      45.385  52.362  39.926  1.00  0.00    -0.274 OA
ENDBRANCH  15  18
ENDBRANCH  14  15
ENDBRANCH  11  14
ENDBRANCH  10  11
BRANCH  10  21
HETATM   21  C8  UNL     1      43.741  47.010  40.872  1.00  0.00     0.029 C 
BRANCH  21  22
HETATM   22  C9  UNL     1      43.909  46.327  39.544  1.00  0.00    -0.021 C 
HETATM   23  C10 UNL     1      42.632  46.662  38.753  1.00  0.00     0.009 C 
HETATM   24  C11 UNL     1      43.898  44.811  39.722  1.00  0.00     0.009 C 
ENDBRANCH  21  22
ENDBRANCH  10  21
ENDBRANCH   6  10
ENDBRANCH   1   5
BRANCH   3  25
HETATM   25  C17 UNL     1      46.469  46.257  47.330  1.00  0.00     0.081 C 
HETATM   26  N4  UNL     1      45.285  46.022  47.867  1.00  0.00    -0.389 N 
ATOM     27  H42 UNL     1      44.462  46.393  47.393  1.00  0.00     0.157 HD
ATOM     28  H41 UNL     1      45.342  45.468  48.721  1.00  0.00     0.157 HD
BRANCH  25  29
HETATM   29  C18 UNL     1      47.653  45.723  48.012  1.00  0.00     0.053 C 
HETATM   30  C19 UNL     1      47.663  44.276  48.345  1.00  0.00     0.013 C 
HETATM   31  C20 UNL     1      48.130  44.117  49.807  1.00  0.00     0.007 C 
HETATM   32  C21 UNL     1      48.705  45.482  50.151  1.00  0.00     0.012 C 
HETATM   33  C27 UNL     1      47.710  46.367  49.416  1.00  0.00     0.018 C 
BRANCH  32  34
HETATM   34  C22 UNL     1      48.669  45.685  51.643  1.00  0.00     0.237 C 
BRANCH  34  35
HETATM   35  N5  UNL     1      49.466  46.834  52.013  1.00  0.00    -0.067 N 
ATOM     36  H52 UNL     1      50.404  46.551  52.293  1.00  0.00     0.278 HD
ATOM     37  H51 UNL     1      49.698  47.395  51.193  1.00  0.00     0.278 HD
BRANCH  35  38
HETATM   38  C23 UNL     1      48.851  47.640  53.025  1.00  0.00     0.115 C 
HETATM   39  C24 UNL     1      48.341  48.964  52.562  1.00  0.00     0.045 C 
HETATM   40  C25 UNL     1      49.927  47.948  54.076  1.00  0.00     0.045 C 
HETATM   41  C26 UNL     1      47.757  46.896  53.771  1.00  0.00     0.045 C 
ENDBRANCH  35  38
ENDBRANCH  34  35
ENDBRANCH  32  34
ENDBRANCH  25  29
ENDBRANCH   3  25
TORSDOF 15
ENDMDL
MODEL 3
REMARK VINA RESULT: -8.373135774      5.487      9.671
REMARK  15 active torsions:
REMARK  status: ('A' for Active; 'I' for Inactive)
REMARK    1  A    between atoms: C2_2  and  C3_3 
REMARK    2  A    between atoms: C3_3  and  C4_4 
REMARK    3  A    between atoms: C3_3  and  C7_11 
REMARK    4  A    between atoms: C4_4  and  C5_5 
REMARK    5  A    between atoms: C5_5  and  O1_6 
REMARK    6  A    between atoms: C5_5  and  C6_8 
REMARK    7  A    between atoms: C7_11  and  C8_12 
REMARK    8  A    between atoms: C7_11  and  N2_16 
REMARK    9  A    between atoms: C8_12  and  C9_13 
REMARK   10  A    between atoms: C15_20  and  C16_21 
REMARK       I    between atoms: C16_21  and  N3_23 
REMARK   11  A    between atoms: N3_23  and  C17_25 
REMARK   12  A    between atoms: C17_25  and  C18_29 
REMARK   13  A    between atoms: C21_32  and  C22_33 
REMARK   14  A    between atoms: C22_33  and  N5_34 
REMARK   15  A    between atoms: N5_34  and  C23_37 
ROOT
HETATM    1  C16 UNL     1      45.424  46.742  45.036  1.00  0.00     0.245 C 
HETATM    2  O3  UNL     1      45.090  45.705  44.485  1.00  0.00    -0.271 OA
HETATM    3  N3  UNL     1      45.570  46.903  46.412  1.00  0.00    -0.315 N 
ATOM      4  H3  UNL     1      45.858  47.835  46.708  1.00  0.00     0.170 HD
ENDROOT
BRANCH   1   5
HETATM    5  C15 UNL     1      45.693  47.923  44.141  1.00  0.00     0.172 C 
HETATM    6  N2  UNL     1      44.915  47.917  42.965  1.00  0.00    -0.395 N 
HETATM    7  C12 UNL     1      43.620  48.367  43.218  1.00  0.00     0.118 C 
HETATM    8  C13 UNL     1      43.798  49.356  44.380  1.00  0.00     0.022 C 
HETATM    9  C14 UNL     1      45.203  49.145  44.887  1.00  0.00     0.036 C 
BRANCH   6  10
HETATM   10  C7  UNL     1      45.484  47.809  41.716  1.00  0.00     0.084 C 
BRANCH  10  11
HETATM   11  C3  UNL     1      46.541  48.776  41.258  1.00  0.00     0.010 C 
BRANCH  11  12
HETATM   12  C2  UNL     1      47.911  48.220  41.354  1.00  0.00     0.002 C 
HETATM   13  C1  UNL     1      48.114  46.758  41.523  1.00  0.00     0.005 C 
ENDBRANCH  11  12
BRANCH  11  14
HETATM   14  C4  UNL     1      46.375  50.166  41.660  1.00  0.00     0.047 C 
BRANCH  14  15
HETATM   15  C5  UNL     1      46.102  51.208  40.616  1.00  0.00     0.207 C 
BRANCH  15  16
HETATM   16  O1  UNL     1      45.265  52.247  41.081  1.00  0.00    -0.387 OA
ATOM     17  H1  UNL     1      45.706  52.837  41.682  1.00  0.00     0.210 HD
ENDBRANCH  15  16
BRANCH  15  18
HETATM   18  C6  UNL     1      47.413  51.931  40.302  1.00  0.00     0.259 C 
HETATM   19  N1  UNL     1      48.575  51.768  41.087  1.00  0.00    -0.060 NA
HETATM   20  O2  UNL     1      47.470  52.706  39.307  1.00  0.00    -0.274 OA
ENDBRANCH  15  18
ENDBRANCH  14  15
ENDBRANCH  11  14
ENDBRANCH  10  11
BRANCH  10  21
HETATM   21  C8  UNL     1      44.371  47.754  40.683  1.00  0.00     0.029 C 
BRANCH  21  22
HETATM   22  C9  UNL     1      44.079  46.369  40.178  1.00  0.00    -0.021 C 
HETATM   23  C10 UNL     1      45.250  46.024  39.243  1.00  0.00     0.009 C 
HETATM   24  C11 UNL     1      42.834  46.379  39.295  1.00  0.00     0.009 C 
ENDBRANCH  21  22
ENDBRANCH  10  21
ENDBRANCH   6  10
ENDBRANCH   1   5
BRANCH   3  25
HETATM   25  C17 UNL     1      45.383  45.976  47.463  1.00  0.00     0.081 C 
HETATM   26  N4  UNL     1      44.121  45.884  47.845  1.00  0.00    -0.389 N 
ATOM     27  H42 UNL     1      43.431  46.459  47.361  1.00  0.00     0.157 HD
ATOM     28  H41 UNL     1      43.986  45.215  48.602  1.00  0.00     0.157 HD
BRANCH  25  29
HETATM   29  C18 UNL     1      46.375  45.150  48.159  1.00  0.00     0.053 C 
HETATM   30  C19 UNL     1      45.924  44.392  49.356  1.00  0.00     0.013 C 
HETATM   31  C20 UNL     1      46.957  44.604  50.482  1.00  0.00     0.007 C 
HETATM   32  C21 UNL     1      48.154  45.208  49.764  1.00  0.00     0.012 C 
HETATM   33  C27 UNL     1      47.427  46.102  48.772  1.00  0.00     0.018 C 
BRANCH  32  34
HETATM   34  C22 UNL     1      48.992  45.989  50.743  1.00  0.00     0.237 C 
BRANCH  34  35
HETATM   35  N5  UNL     1      48.248  47.121  51.248  1.00  0.00    -0.067 N 
ATOM     36  H52 UNL     1      48.329  47.919  50.619  1.00  0.00     0.278 HD
ATOM     37  H51 UNL     1      47.243  46.956  51.181  1.00  0.00     0.278 HD
BRANCH  35  38
HETATM   38  C23 UNL     1      48.618  47.483  52.584  1.00  0.00     0.115 C 
HETATM   39  C24 UNL     1      47.790  46.866  53.663  1.00  0.00     0.045 C 
HETATM   40  C25 UNL     1      48.418  48.999  52.716  1.00  0.00     0.045 C 
HETATM   41  C26 UNL     1      50.091  47.242  52.861  1.00  0.00     0.045 C 
ENDBRANCH  35  38
ENDBRANCH  34  35
ENDBRANCH  32  34
ENDBRANCH  25  29
ENDBRANCH   3  25
TORSDOF 15
ENDMDL
MODEL 4
REMARK VINA RESULT: -8.348564443      1.739      4.971
REMARK  15 active torsions:
REMARK  status: ('A' for Active; 'I' for Inactive)
REMARK    1  A    between atoms: C2_2  and  C3_3 
REMARK    2  A    between atoms: C3_3  and  C4_4 
REMARK    3  A    between atoms: C3_3  and  C7_11 
REMARK    4  A    between atoms: C4_4  and  C5_5 
REMARK    5  A    between atoms: C5_5  and  O1_6 
REMARK    6  A    between atoms: C5_5  and  C6_8 
REMARK    7  A    between atoms: C7_11  and  C8_12 
REMARK    8  A    between atoms: C7_11  and  N2_16 
REMARK    9  A    between atoms: C8_12  and  C9_13 
REMARK   10  A    between atoms: C15_20  and  C16_21 
REMARK       I    between atoms: C16_21  and  N3_23 
REMARK   11  A    between atoms: N3_23  and  C17_25 
REMARK   12  A    between atoms: C17_25  and  C18_29 
REMARK   13  A    between atoms: C21_32  and  C22_33 
REMARK   14  A    between atoms: C22_33  and  N5_34 
REMARK   15  A    between atoms: N5_34  and  C23_37 
ROOT
HETATM    1  C16 UNL     1      44.754  51.869  38.591  1.00  0.00     0.245 C 
HETATM    2  O3  UNL     1      45.717  51.153  38.363  1.00  0.00    -0.271 OA
HETATM    3  N3  UNL     1      43.647  52.005  37.757  1.00  0.00    -0.315 N 
ATOM      4  H3  UNL     1      42.929  52.645  38.096  1.00  0.00     0.170 HD
ENDROOT
BRANCH   1   5
HETATM    5  C15 UNL     1      44.789  52.655  39.875  1.00  0.00     0.172 C 
HETATM    6  N2  UNL     1      45.824  52.251  40.745  1.00  0.00    -0.395 N 
HETATM    7  C12 UNL     1      47.048  52.788  40.350  1.00  0.00     0.118 C 
HETATM    8  C13 UNL     1      46.666  54.118  39.684  1.00  0.00     0.022 C 
HETATM    9  C14 UNL     1      45.170  54.070  39.501  1.00  0.00     0.036 C 
BRANCH   6  10
HETATM   10  C7  UNL     1      45.564  51.700  41.979  1.00  0.00     0.084 C 
BRANCH  10  11
HETATM   11  C3  UNL     1      45.173  50.253  42.117  1.00  0.00     0.010 C 
BRANCH  11  12
HETATM   12  C2  UNL     1      44.781  49.892  43.499  1.00  0.00     0.002 C 
HETATM   13  C1  UNL     1      43.589  49.037  43.738  1.00  0.00     0.005 C 
ENDBRANCH  11  12
BRANCH  11  14
HETATM   14  C4  UNL     1      45.990  49.284  41.400  1.00  0.00     0.047 C 
BRANCH  14  15
HETATM   15  C5  UNL     1      46.797  48.285  42.174  1.00  0.00     0.207 C 
BRANCH  15  16
HETATM   16  O1  UNL     1      46.066  47.118  42.497  1.00  0.00    -0.387 OA
ATOM     17  H1  UNL     1      46.593  46.461  42.936  1.00  0.00     0.210 HD
ENDBRANCH  15  16
BRANCH  15  18
HETATM   18  C6  UNL     1      47.910  47.757  41.268  1.00  0.00     0.259 C 
HETATM   19  N1  UNL     1      47.854  46.483  40.662  1.00  0.00    -0.060 NA
HETATM   20  O2  UNL     1      48.923  48.479  41.046  1.00  0.00    -0.274 OA
ENDBRANCH  15  18
ENDBRANCH  14  15
ENDBRANCH  11  14
ENDBRANCH  10  11
BRANCH  10  21
HETATM   21  C8  UNL     1      44.537  52.567  42.688  1.00  0.00     0.029 C 
BRANCH  21  22
HETATM   22  C9  UNL     1      45.139  53.602  43.596  1.00  0.00    -0.021 C 
HETATM   23  C10 UNL     1      44.344  53.499  44.909  1.00  0.00     0.009 C 
HETATM   24  C11 UNL     1      44.865  55.003  43.057  1.00  0.00     0.009 C 
ENDBRANCH  21  22
ENDBRANCH  10  21
ENDBRANCH   6  10
ENDBRANCH   1   5
BRANCH   3  25
HETATM   25  C17 UNL     1      43.362  51.396  36.513  1.00  0.00     0.081 C 
HETATM   26  N4  UNL     1      43.398  52.252  35.506  1.00  0.00    -0.389 N 
ATOM     27  H42 UNL     1      43.627  53.224  35.711  1.00  0.00     0.157 HD
ATOM     28  H41 UNL     1      43.193  51.812  34.609  1.00  0.00     0.157 HD
BRANCH  25  29
HETATM   29  C18 UNL     1      43.033  49.998  36.218  1.00  0.00     0.053 C 
HETATM   30  C19 UNL     1      41.689  49.710  35.655  1.00  0.00     0.013 C 
HETATM   31  C20 UNL     1      41.083  48.521  36.429  1.00  0.00     0.007 C 
HETATM   32  C21 UNL     1      42.266  47.947  37.192  1.00  0.00     0.012 C 
HETATM   33  C27 UNL     1      42.976  49.240  37.564  1.00  0.00     0.018 C 
BRANCH  32  34
HETATM   34  C22 UNL     1      41.773  47.189  38.397  1.00  0.00     0.237 C 
BRANCH  34  35
HETATM   35  N5  UNL     1      42.522  45.963  38.560  1.00  0.00    -0.067 N 
ATOM     36  H52 UNL     1      41.903  45.187  38.792  1.00  0.00     0.278 HD
ATOM     37  H51 UNL     1      42.877  45.631  37.664  1.00  0.00     0.278 HD
BRANCH  35  38
HETATM   38  C23 UNL     1      43.580  46.077  39.518  1.00  0.00     0.115 C 
HETATM   39  C24 UNL     1      43.945  44.810  40.218  1.00  0.00     0.045 C 
HETATM   40  C25 UNL     1      43.099  47.038  40.615  1.00  0.00     0.045 C 
HETATM   41  C26 UNL     1      44.824  46.721  38.933  1.00  0.00     0.045 C 
ENDBRANCH  35  38
ENDBRANCH  34  35
ENDBRANCH  32  34
ENDBRANCH  25  29
ENDBRANCH   3  25
TORSDOF 15
ENDMDL
MODEL 5
REMARK VINA RESULT: -8.346343019      5.350      9.529
REMARK  15 active torsions:
REMARK  status: ('A' for Active; 'I' for Inactive)
REMARK    1  A    between atoms: C2_2  and  C3_3 
REMARK    2  A    between atoms: C3_3  and  C4_4 
REMARK    3  A    between atoms: C3_3  and  C7_11 
REMARK    4  A    between atoms: C4_4  and  C5_5 
REMARK    5  A    between atoms: C5_5  and  O1_6 
REMARK    6  A    between atoms: C5_5  and  C6_8 
REMARK    7  A    between atoms: C7_11  and  C8_12 
REMARK    8  A    between atoms: C7_11  and  N2_16 
REMARK    9  A    between atoms: C8_12  and  C9_13 
REMARK   10  A    between atoms: C15_20  and  C16_21 
REMARK       I    between atoms: C16_21  and  N3_23 
REMARK   11  A    between atoms: N3_23  and  C17_25 
REMARK   12  A    between atoms: C17_25  and  C18_29 
REMARK   13  A    between atoms: C21_32  and  C22_33 
REMARK   14  A    between atoms: C22_33  and  N5_34 
REMARK   15  A    between atoms: N5_34  and  C23_37 
ROOT
HETATM    1  C16 UNL     1      45.416  47.081  44.442  1.00  0.00     0.245 C 
HETATM    2  O3  UNL     1      45.197  46.045  43.834  1.00  0.00    -0.271 OA
HETATM    3  N3  UNL     1      45.517  47.187  45.828  1.00  0.00    -0.315 N 
ATOM      4  H3  UNL     1      45.704  48.128  46.175  1.00  0.00     0.170 HD
ENDROOT
BRANCH   1   5
HETATM    5  C15 UNL     1      45.586  48.326  43.611  1.00  0.00     0.172 C 
HETATM    6  N2  UNL     1      44.727  48.369  42.493  1.00  0.00    -0.395 N 
HETATM    7  C12 UNL     1      43.441  48.758  42.865  1.00  0.00     0.118 C 
HETATM    8  C13 UNL     1      43.672  49.675  44.074  1.00  0.00     0.022 C 
HETATM    9  C14 UNL     1      45.115  49.480  44.468  1.00  0.00     0.036 C 
BRANCH   6  10
HETATM   10  C7  UNL     1      45.209  48.360  41.204  1.00  0.00     0.084 C 
BRANCH  10  11
HETATM   11  C3  UNL     1      45.859  47.132  40.626  1.00  0.00     0.010 C 
BRANCH  11  12
HETATM   12  C2  UNL     1      47.335  47.241  40.554  1.00  0.00     0.002 C 
HETATM   13  C1  UNL     1      48.179  46.662  41.631  1.00  0.00     0.005 C 
ENDBRANCH  11  12
BRANCH  11  14
HETATM   14  C4  UNL     1      45.197  46.519  39.482  1.00  0.00     0.047 C 
BRANCH  14  15
HETATM   15  C5  UNL     1      43.988  45.660  39.704  1.00  0.00     0.207 C 
BRANCH  15  16
HETATM   16  O1  UNL     1      43.802  45.312  41.062  1.00  0.00    -0.387 OA
ATOM     17  H1  UNL     1      43.827  44.374  41.210  1.00  0.00     0.210 HD
ENDBRANCH  15  16
BRANCH  15  18
HETATM   18  C6  UNL     1      42.743  46.488  39.385  1.00  0.00     0.259 C 
HETATM   19  N1  UNL     1      42.480  46.994  38.093  1.00  0.00    -0.060 NA
HETATM   20  O2  UNL     1      41.911  46.736  40.302  1.00  0.00    -0.274 OA
ENDBRANCH  15  18
ENDBRANCH  14  15
ENDBRANCH  11  14
ENDBRANCH  10  11
BRANCH  10  21
HETATM   21  C8  UNL     1      46.137  49.550  41.029  1.00  0.00     0.029 C 
BRANCH  21  22
HETATM   22  C9  UNL     1      45.547  50.665  40.213  1.00  0.00    -0.021 C 
HETATM   23  C10 UNL     1      45.115  51.730  41.237  1.00  0.00     0.009 C 
HETATM   24  C11 UNL     1      44.262  50.202  39.532  1.00  0.00     0.009 C 
ENDBRANCH  21  22
ENDBRANCH  10  21
ENDBRANCH   6  10
ENDBRANCH   1   5
BRANCH   3  25
HETATM   25  C17 UNL     1      45.400  46.196  46.829  1.00  0.00     0.081 C 
HETATM   26  N4  UNL     1      44.167  46.081  47.292  1.00  0.00    -0.389 N 
ATOM     27  H42 UNL     1      43.448  46.684  46.894  1.00  0.00     0.157 HD
ATOM     28  H41 UNL     1      44.082  45.365  48.013  1.00  0.00     0.157 HD
BRANCH  25  29
HETATM   29  C18 UNL     1      46.434  45.327  47.400  1.00  0.00     0.053 C 
HETATM   30  C19 UNL     1      46.013  44.331  48.419  1.00  0.00     0.013 C 
HETATM   31  C20 UNL     1      46.998  44.403  49.604  1.00  0.00     0.007 C 
HETATM   32  C21 UNL     1      48.162  45.213  49.056  1.00  0.00     0.012 C 
HETATM   33  C27 UNL     1      47.394  46.222  48.217  1.00  0.00     0.018 C 
BRANCH  32  34
HETATM   34  C22 UNL     1      48.913  45.856  50.193  1.00  0.00     0.237 C 
BRANCH  34  35
HETATM   35  N5  UNL     1      48.083  46.843  50.847  1.00  0.00    -0.067 N 
ATOM     36  H52 UNL     1      48.061  47.711  50.312  1.00  0.00     0.278 HD
ATOM     37  H51 UNL     1      47.097  46.586  50.790  1.00  0.00     0.278 HD
BRANCH  35  38
HETATM   38  C23 UNL     1      48.469  47.088  52.204  1.00  0.00     0.115 C 
HETATM   39  C24 UNL     1      48.428  48.519  52.629  1.00  0.00     0.045 C 
HETATM   40  C25 UNL     1      49.934  46.650  52.346  1.00  0.00     0.045 C 
HETATM   41  C26 UNL     1      47.693  46.234  53.190  1.00  0.00     0.045 C 
ENDBRANCH  35  38
ENDBRANCH  34  35
ENDBRANCH  32  34
ENDBRANCH  25  29
ENDBRANCH   3  25
TORSDOF 15
ENDMDL
