MODEL 1
REMARK VINA RESULT: -6.488374771      0.000      0.000
REMARK  4 active torsions:
REMARK  status: ('A' for Active; 'I' for Inactive)
REMARK    1  A    between atoms: C2_2  and  O1_3 
REMARK    2  A    between atoms: O1_3  and  C3_4 
REMARK    3  A    between atoms: C7_11  and  C8_12 
REMARK    4  A    between atoms: C8_12  and  O5_13 
ROOT
HETATM    1  C3  UNL     1      -3.867   2.055  10.825  1.00  0.00     0.449 C 
HETATM    2  O2  UNL     1      -5.243   1.883  10.871  1.00  0.00    -0.176 OA
HETATM    3  O3  UNL     1      -5.589   1.869  12.133  1.00  0.00    -0.193 OA
HETATM    4  C4  UNL     1      -4.643   2.601  12.834  1.00  0.00     0.224 C 
HETATM    5  C5  UNL     1      -5.234   3.952  13.172  1.00  0.00     0.239 C 
HETATM    6  O4  UNL     1      -6.193   3.864  14.131  1.00  0.00    -0.385 OA
HETATM    7  C6  UNL     1      -5.832   3.330  15.323  1.00  0.00     0.174 C 
HETATM    8  C7  UNL     1      -4.628   2.475  15.349  1.00  0.00     0.038 C 
HETATM    9  C9  UNL     1      -4.253   1.826  14.065  1.00  0.00     0.082 C 
HETATM   10  O6  UNL     1      -3.588   2.816  11.964  1.00  0.00    -0.295 OA
ENDROOT
BRANCH   8  11
HETATM   11  C8  UNL     1      -4.843   1.361  16.383  1.00  0.00     0.170 C 
BRANCH  11  12
HETATM   12  O5  UNL     1      -3.764   0.509  16.448  1.00  0.00    -0.400 OA
ATOM     13  H5  UNL     1      -3.603   0.209  17.335  1.00  0.00     0.209 HD
ENDBRANCH  11  12
ENDBRANCH   8  11
BRANCH   1  14
HETATM   14  O1  UNL     1      -3.159   0.889  10.898  1.00  0.00    -0.338 OA
BRANCH  14  15
HETATM   15  C2  UNL     1      -3.820  -0.236  10.484  1.00  0.00     0.169 C 
HETATM   16  C1  UNL     1      -3.779  -1.260  11.593  1.00  0.00     0.033 C 
ENDBRANCH  14  15
ENDBRANCH   1  14
TORSDOF 4
ENDMDL
MODEL 2
REMARK VINA RESULT: -6.362852422      1.369      1.638
REMARK  4 active torsions:
REMARK  status: ('A' for Active; 'I' for Inactive)
REMARK    1  A    between atoms: C2_2  and  O1_3 
REMARK    2  A    between atoms: O1_3  and  C3_4 
REMARK    3  A    between atoms: C7_11  and  C8_12 
REMARK    4  A    between atoms: C8_12  and  O5_13 
ROOT
HETATM    1  C3  UNL     1      -3.608   2.845  10.830  1.00  0.00     0.449 C 
HETATM    2  O2  UNL     1      -4.966   2.574  10.737  1.00  0.00    -0.176 OA
HETATM    3  O3  UNL     1      -5.393   2.319  11.947  1.00  0.00    -0.193 OA
HETATM    4  C4  UNL     1      -4.560   2.984  12.832  1.00  0.00     0.224 C 
HETATM    5  C5  UNL     1      -5.280   4.213  13.342  1.00  0.00     0.239 C 
HETATM    6  O4  UNL     1      -6.291   3.896  14.194  1.00  0.00    -0.385 OA
HETATM    7  C6  UNL     1      -5.969   3.190  15.305  1.00  0.00     0.174 C 
HETATM    8  C7  UNL     1      -4.704   2.429  15.285  1.00  0.00     0.038 C 
HETATM    9  C9  UNL     1      -4.192   2.037  13.945  1.00  0.00     0.082 C 
HETATM   10  O6  UNL     1      -3.470   3.416  12.098  1.00  0.00    -0.295 OA
ENDROOT
BRANCH   8  11
HETATM   11  C8  UNL     1      -4.896   1.141  16.099  1.00  0.00     0.170 C 
BRANCH  11  12
HETATM   12  O5  UNL     1      -3.702   0.494  16.321  1.00  0.00    -0.400 OA
ATOM     13  H5  UNL     1      -3.251   0.837  17.084  1.00  0.00     0.209 HD
ENDBRANCH  11  12
ENDBRANCH   8  11
BRANCH   1  14
HETATM   14  O1  UNL     1      -2.815   1.736  10.764  1.00  0.00    -0.338 OA
BRANCH  14  15
HETATM   15  C2  UNL     1      -1.533   1.892  11.220  1.00  0.00     0.169 C 
HETATM   16  C1  UNL     1      -0.745   2.676  10.198  1.00  0.00     0.033 C 
ENDBRANCH  14  15
ENDBRANCH   1  14
TORSDOF 4
ENDMDL
MODEL 3
REMARK VINA RESULT: -6.329640951      1.658      4.758
REMARK  4 active torsions:
REMARK  status: ('A' for Active; 'I' for Inactive)
REMARK    1  A    between atoms: C2_2  and  O1_3 
REMARK    2  A    between atoms: O1_3  and  C3_4 
REMARK    3  A    between atoms: C7_11  and  C8_12 
REMARK    4  A    between atoms: C8_12  and  O5_13 
ROOT
HETATM    1  C3  UNL     1      -4.406   2.297  14.332  1.00  0.00     0.449 C 
HETATM    2  O2  UNL     1      -3.439   2.809  13.480  1.00  0.00    -0.176 OA
HETATM    3  O3  UNL     1      -3.111   1.855  12.647  1.00  0.00    -0.193 OA
HETATM    4  C4  UNL     1      -4.201   1.007  12.534  1.00  0.00     0.224 C 
HETATM    5  C5  UNL     1      -4.891   1.280  11.216  1.00  0.00     0.239 C 
HETATM    6  O4  UNL     1      -4.163   0.837  10.157  1.00  0.00    -0.385 OA
HETATM    7  C6  UNL     1      -3.853  -0.482  10.126  1.00  0.00     0.174 C 
HETATM    8  C7  UNL     1      -3.895  -1.222  11.402  1.00  0.00     0.038 C 
HETATM    9  C9  UNL     1      -3.714  -0.416  12.638  1.00  0.00     0.082 C 
HETATM   10  O6  UNL     1      -5.081   1.360  13.544  1.00  0.00    -0.295 OA
ENDROOT
BRANCH   8  11
HETATM   11  C8  UNL     1      -2.791  -2.290  11.385  1.00  0.00     0.170 C 
BRANCH  11  12
HETATM   12  O5  UNL     1      -3.295  -3.550  11.617  1.00  0.00    -0.400 OA
ATOM     13  H5  UNL     1      -2.778  -4.221  11.188  1.00  0.00     0.209 HD
ENDBRANCH  11  12
ENDBRANCH   8  11
BRANCH   1  14
HETATM   14  O1  UNL     1      -3.899   1.657  15.427  1.00  0.00    -0.338 OA
BRANCH  14  15
HETATM   15  C2  UNL     1      -4.723   0.734  16.013  1.00  0.00     0.169 C 
HETATM   16  C1  UNL     1      -5.490   1.405  17.128  1.00  0.00     0.033 C 
ENDBRANCH  14  15
ENDBRANCH   1  14
TORSDOF 4
ENDMDL
MODEL 4
REMARK VINA RESULT: -6.217883349      1.444      2.333
REMARK  4 active torsions:
REMARK  status: ('A' for Active; 'I' for Inactive)
REMARK    1  A    between atoms: C2_2  and  O1_3 
REMARK    2  A    between atoms: O1_3  and  C3_4 
REMARK    3  A    between atoms: C7_11  and  C8_12 
REMARK    4  A    between atoms: C8_12  and  O5_13 
ROOT
HETATM    1  C3  UNL     1      -3.633  -0.454  10.371  1.00  0.00     0.449 C 
HETATM    2  O2  UNL     1      -4.890   0.044  10.060  1.00  0.00    -0.176 OA
HETATM    3  O3  UNL     1      -5.195   0.928  10.976  1.00  0.00    -0.193 OA
HETATM    4  C4  UNL     1      -4.007   1.439  11.474  1.00  0.00     0.224 C 
HETATM    5  C5  UNL     1      -3.790   2.815  10.886  1.00  0.00     0.239 C 
HETATM    6  O4  UNL     1      -4.652   3.732  11.401  1.00  0.00    -0.385 OA
HETATM    7  C6  UNL     1      -4.634   3.915  12.743  1.00  0.00     0.174 C 
HETATM    8  C7  UNL     1      -4.069   2.832  13.572  1.00  0.00     0.038 C 
HETATM    9  C9  UNL     1      -4.092   1.468  12.978  1.00  0.00     0.082 C 
HETATM   10  O6  UNL     1      -2.996   0.621  10.999  1.00  0.00    -0.295 OA
ENDROOT
BRANCH   8  11
HETATM   11  C8  UNL     1      -4.846   2.772  14.894  1.00  0.00     0.170 C 
BRANCH  11  12
HETATM   12  O5  UNL     1      -4.113   2.170  15.891  1.00  0.00    -0.400 OA
ATOM     13  H5  UNL     1      -3.243   1.931  15.594  1.00  0.00     0.209 HD
ENDBRANCH  11  12
ENDBRANCH   8  11
BRANCH   1  14
HETATM   14  O1  UNL     1      -3.653  -1.511  11.235  1.00  0.00    -0.338 OA
BRANCH  14  15
HETATM   15  C2  UNL     1      -2.585  -2.364  11.159  1.00  0.00     0.169 C 
HETATM   16  C1  UNL     1      -3.094  -3.786  11.199  1.00  0.00     0.033 C 
ENDBRANCH  14  15
ENDBRANCH   1  14
TORSDOF 4
ENDMDL
MODEL 5
REMARK VINA RESULT: -6.208623738      2.815      4.636
REMARK  4 active torsions:
REMARK  status: ('A' for Active; 'I' for Inactive)
REMARK    1  A    between atoms: C2_2  and  O1_3 
REMARK    2  A    between atoms: O1_3  and  C3_4 
REMARK    3  A    between atoms: C7_11  and  C8_12 
REMARK    4  A    between atoms: C8_12  and  O5_13 
ROOT
HETATM    1  C3  UNL     1      -4.212   0.842  15.708  1.00  0.00     0.449 C 
HETATM    2  O2  UNL     1      -3.896   0.814  14.358  1.00  0.00    -0.176 OA
HETATM    3  O3  UNL     1      -4.302   1.945  13.840  1.00  0.00    -0.193 OA
HETATM    4  C4  UNL     1      -4.301   2.891  14.853  1.00  0.00     0.224 C 
HETATM    5  C5  UNL     1      -3.093   3.785  14.676  1.00  0.00     0.239 C 
HETATM    6  O4  UNL     1      -3.224   4.614  13.606  1.00  0.00    -0.385 OA
HETATM    7  C6  UNL     1      -4.288   5.453  13.598  1.00  0.00     0.174 C 
HETATM    8  C7  UNL     1      -5.440   5.102  14.451  1.00  0.00     0.038 C 
HETATM    9  C9  UNL     1      -5.594   3.662  14.790  1.00  0.00     0.082 C 
HETATM   10  O6  UNL     1      -4.134   2.198  16.039  1.00  0.00    -0.295 OA
ENDROOT
BRANCH   8  11
HETATM   11  C8  UNL     1      -6.727   5.549  13.744  1.00  0.00     0.170 C 
BRANCH  11  12
HETATM   12  O5  UNL     1      -6.467   6.101  12.511  1.00  0.00    -0.400 OA
ATOM     13  H5  UNL     1      -7.066   5.780  11.847  1.00  0.00     0.209 HD
ENDBRANCH  11  12
ENDBRANCH   8  11
BRANCH   1  14
HETATM   14  O1  UNL     1      -5.472   0.399  15.992  1.00  0.00    -0.338 OA
BRANCH  14  15
HETATM   15  C2  UNL     1      -5.904   0.610  17.274  1.00  0.00     0.169 C 
HETATM   16  C1  UNL     1      -7.243   1.305  17.229  1.00  0.00     0.033 C 
ENDBRANCH  14  15
ENDBRANCH   1  14
TORSDOF 4
ENDMDL
