MODEL 1
REMARK VINA RESULT: -8.485685932      0.000      0.000
REMARK  6 active torsions:
REMARK  status: ('A' for Active; 'I' for Inactive)
REMARK    1  A    between atoms: C2_2  and  C4_4 
REMARK       I    between atoms: C4_4  and  N1_6 
REMARK    2  A    between atoms: N2_9  and  C7_10 
REMARK    3  A    between atoms: C7_10  and  O2_11 
REMARK    4  A    between atoms: C7_10  and  C8_13 
REMARK    5  A    between atoms: N3_15  and  C10_16 
REMARK    6  A    between atoms: C16_23  and  N4_24 
ROOT
HETATM    1  C8  UNL     1      -4.549   2.159  13.012  1.00  0.00     0.116 A 
HETATM    2  C9  UNL     1      -4.921   2.961  14.091  1.00  0.00     0.144 A 
HETATM    3  N3  UNL     1      -4.823   2.198  15.187  1.00  0.00    -0.184 N 
HETATM    4  C16 UNL     1      -4.414   0.991  14.831  1.00  0.00     0.679 A 
HETATM    5  N5  UNL     1      -4.235   0.940  13.478  1.00  0.00    -0.186 N 
ATOM      6  H5  UNL     1      -3.925   0.137  12.930  1.00  0.00     0.184 HD
ENDROOT
BRANCH   1   7
HETATM    7  C7  UNL     1      -4.532   2.639  11.640  1.00  0.00     0.167 C 
BRANCH   7   8
HETATM    8  N2  UNL     1      -3.621   3.513  11.038  1.00  0.00    -0.357 N 
HETATM    9  C6  UNL     1      -4.114   4.284   9.878  1.00  0.00     0.145 C 
HETATM   10  C5  UNL     1      -3.119   3.961   8.752  1.00  0.00     0.145 C 
HETATM   11  N1  UNL     1      -1.891   4.597   9.162  1.00  0.00    -0.349 N 
HETATM   12  C4  UNL     1      -0.955   5.024   8.207  1.00  0.00     0.223 C 
HETATM   13  C18 UNL     1      -1.597   4.805  10.566  1.00  0.00     0.145 C 
HETATM   14  O1  UNL     1       0.115   5.579   8.652  1.00  0.00    -0.273 OA
HETATM   15  C17 UNL     1      -2.286   3.733  11.419  1.00  0.00     0.145 C 
BRANCH  12  16
HETATM   16  C2  UNL     1      -1.104   4.886   6.732  1.00  0.00     0.070 C 
HETATM   17  C1  UNL     1      -1.583   6.150   6.089  1.00  0.00     0.019 C 
HETATM   18  C3  UNL     1       0.109   4.366   6.040  1.00  0.00     0.019 C 
ENDBRANCH  12  16
ENDBRANCH   7   8
BRANCH   7  19
HETATM   19  O2  UNL     1      -5.506   2.176  10.896  1.00  0.00    -0.344 OA
ATOM     20  H2  UNL     1      -6.198   1.692  11.331  1.00  0.00     0.219 HD
ENDBRANCH   7  19
ENDBRANCH   1   7
BRANCH   3  21
HETATM   21  C10 UNL     1      -5.123   2.645  16.549  1.00  0.00     0.141 C 
HETATM   22  C11 UNL     1      -5.695   4.024  16.525  1.00  0.00     0.029 C 
HETATM   23  C12 UNL     1      -6.756   4.252  17.568  1.00  0.00     0.002 C 
HETATM   24  C13 UNL     1      -6.388   3.437  18.796  1.00  0.00     0.003 C 
HETATM   25  C14 UNL     1      -6.620   1.990  18.457  1.00  0.00     0.039 C 
HETATM   26  C15 UNL     1      -6.107   1.614  17.104  1.00  0.00     0.194 C 
HETATM   27  F1  UNL     1      -7.099   1.355  16.201  1.00  0.00    -0.247 F 
ENDBRANCH   3  21
BRANCH   4  28
HETATM   28  N4  UNL     1      -4.202  -0.028  15.624  1.00  0.00    -0.234 N 
ATOM     29  H42 UNL     1      -4.267   0.029  16.641  1.00  0.00     0.174 HD
ATOM     30  H41 UNL     1      -3.951  -0.977  15.345  1.00  0.00     0.174 HD
ENDBRANCH   4  28
TORSDOF 6
ENDMDL
MODEL 2
REMARK VINA RESULT: -8.200852509      1.713      2.641
REMARK  6 active torsions:
REMARK  status: ('A' for Active; 'I' for Inactive)
REMARK    1  A    between atoms: C2_2  and  C4_4 
REMARK       I    between atoms: C4_4  and  N1_6 
REMARK    2  A    between atoms: N2_9  and  C7_10 
REMARK    3  A    between atoms: C7_10  and  O2_11 
REMARK    4  A    between atoms: C7_10  and  C8_13 
REMARK    5  A    between atoms: N3_15  and  C10_16 
REMARK    6  A    between atoms: C16_23  and  N4_24 
ROOT
HETATM    1  C8  UNL     1      -4.610   2.000  12.961  1.00  0.00     0.116 A 
HETATM    2  C9  UNL     1      -4.972   2.834  14.020  1.00  0.00     0.144 A 
HETATM    3  N3  UNL     1      -4.832   2.113  15.139  1.00  0.00    -0.184 N 
HETATM    4  C16 UNL     1      -4.410   0.902  14.817  1.00  0.00     0.679 A 
HETATM    5  N5  UNL     1      -4.262   0.804  13.462  1.00  0.00    -0.186 N 
ATOM      6  H5  UNL     1      -3.951  -0.012  12.937  1.00  0.00     0.184 HD
ENDROOT
BRANCH   1   7
HETATM    7  C7  UNL     1      -4.635   2.429  11.573  1.00  0.00     0.167 C 
BRANCH   7   8
HETATM    8  N2  UNL     1      -3.892   3.447  10.966  1.00  0.00    -0.357 N 
HETATM    9  C6  UNL     1      -2.536   3.685  11.505  1.00  0.00     0.145 C 
HETATM   10  C5  UNL     1      -2.527   5.176  11.874  1.00  0.00     0.145 C 
HETATM   11  N1  UNL     1      -2.579   5.863  10.607  1.00  0.00    -0.349 N 
HETATM   12  C4  UNL     1      -2.029   7.146  10.465  1.00  0.00     0.223 C 
HETATM   13  C18 UNL     1      -3.203   5.244   9.454  1.00  0.00     0.145 C 
HETATM   14  O1  UNL     1      -2.118   7.692   9.306  1.00  0.00    -0.273 OA
HETATM   15  C17 UNL     1      -4.300   4.268   9.902  1.00  0.00     0.145 C 
BRANCH  12  16
HETATM   16  C2  UNL     1      -1.355   7.918  11.546  1.00  0.00     0.070 C 
HETATM   17  C1  UNL     1       0.086   8.185  11.240  1.00  0.00     0.019 C 
HETATM   18  C3  UNL     1      -2.057   9.176  11.929  1.00  0.00     0.019 C 
ENDBRANCH  12  16
ENDBRANCH   7   8
BRANCH   7  19
HETATM   19  O2  UNL     1      -5.470   1.759  10.817  1.00  0.00    -0.344 OA
ATOM     20  H2  UNL     1      -6.372   2.059  10.787  1.00  0.00     0.219 HD
ENDBRANCH   7  19
ENDBRANCH   1   7
BRANCH   3  21
HETATM   21  C10 UNL     1      -5.108   2.604  16.491  1.00  0.00     0.141 C 
HETATM   22  C11 UNL     1      -5.702   3.972  16.433  1.00  0.00     0.029 C 
HETATM   23  C12 UNL     1      -6.742   4.222  17.491  1.00  0.00     0.002 C 
HETATM   24  C13 UNL     1      -6.333   3.456  18.739  1.00  0.00     0.003 C 
HETATM   25  C14 UNL     1      -6.550   1.995  18.456  1.00  0.00     0.039 C 
HETATM   26  C15 UNL     1      -6.063   1.579  17.106  1.00  0.00     0.194 C 
HETATM   27  F1  UNL     1      -7.071   1.273  16.236  1.00  0.00    -0.247 F 
ENDBRANCH   3  21
BRANCH   4  28
HETATM   28  N4  UNL     1      -4.159  -0.085  15.641  1.00  0.00    -0.234 N 
ATOM     29  H42 UNL     1      -3.619  -0.910  15.379  1.00  0.00     0.174 HD
ATOM     30  H41 UNL     1      -4.456  -0.159  16.613  1.00  0.00     0.174 HD
ENDBRANCH   4  28
TORSDOF 6
ENDMDL
MODEL 3
REMARK VINA RESULT: -8.118394873      2.270      3.100
REMARK  6 active torsions:
REMARK  status: ('A' for Active; 'I' for Inactive)
REMARK    1  A    between atoms: C2_2  and  C4_4 
REMARK       I    between atoms: C4_4  and  N1_6 
REMARK    2  A    between atoms: N2_9  and  C7_10 
REMARK    3  A    between atoms: C7_10  and  O2_11 
REMARK    4  A    between atoms: C7_10  and  C8_13 
REMARK    5  A    between atoms: N3_15  and  C10_16 
REMARK    6  A    between atoms: C16_23  and  N4_24 
ROOT
HETATM    1  C8  UNL     1      -4.584   2.019  12.909  1.00  0.00     0.116 A 
HETATM    2  C9  UNL     1      -4.949   2.854  13.964  1.00  0.00     0.144 A 
HETATM    3  N3  UNL     1      -4.816   2.135  15.085  1.00  0.00    -0.184 N 
HETATM    4  C16 UNL     1      -4.394   0.922  14.767  1.00  0.00     0.679 A 
HETATM    5  N5  UNL     1      -4.240   0.823  13.412  1.00  0.00    -0.186 N 
ATOM      6  H5  UNL     1      -3.928   0.006  12.889  1.00  0.00     0.184 HD
ENDROOT
BRANCH   1   7
HETATM    7  C7  UNL     1      -4.603   2.447  11.520  1.00  0.00     0.167 C 
BRANCH   7   8
HETATM    8  N2  UNL     1      -4.144   3.653  10.977  1.00  0.00    -0.357 N 
HETATM    9  C6  UNL     1      -3.584   4.634  11.930  1.00  0.00     0.145 C 
HETATM   10  C5  UNL     1      -4.399   5.913  11.685  1.00  0.00     0.145 C 
HETATM   11  N1  UNL     1      -3.994   6.354  10.373  1.00  0.00    -0.349 N 
HETATM   12  C4  UNL     1      -4.048   7.714  10.027  1.00  0.00     0.223 C 
HETATM   13  C18 UNL     1      -3.527   5.404   9.384  1.00  0.00     0.145 C 
HETATM   14  O1  UNL     1      -3.673   8.025   8.839  1.00  0.00    -0.273 OA
HETATM   15  C17 UNL     1      -4.163   4.028   9.624  1.00  0.00     0.145 C 
BRANCH  12  16
HETATM   16  C2  UNL     1      -4.501   8.813  10.924  1.00  0.00     0.070 C 
HETATM   17  C1  UNL     1      -3.674  10.051  10.768  1.00  0.00     0.019 C 
HETATM   18  C3  UNL     1      -5.954   9.130  10.818  1.00  0.00     0.019 C 
ENDBRANCH  12  16
ENDBRANCH   7   8
BRANCH   7  19
HETATM   19  O2  UNL     1      -5.120   1.572  10.693  1.00  0.00    -0.344 OA
ATOM     20  H2  UNL     1      -4.967   0.652  10.877  1.00  0.00     0.219 HD
ENDBRANCH   7  19
ENDBRANCH   1   7
BRANCH   3  21
HETATM   21  C10 UNL     1      -5.096   2.628  16.436  1.00  0.00     0.141 C 
HETATM   22  C11 UNL     1      -5.683   3.999  16.373  1.00  0.00     0.029 C 
HETATM   23  C12 UNL     1      -6.728   4.254  17.426  1.00  0.00     0.002 C 
HETATM   24  C13 UNL     1      -6.330   3.487  18.676  1.00  0.00     0.003 C 
HETATM   25  C14 UNL     1      -6.553   2.026  18.393  1.00  0.00     0.039 C 
HETATM   26  C15 UNL     1      -6.060   1.607  17.045  1.00  0.00     0.194 C 
HETATM   27  F1  UNL     1      -7.065   1.307  16.169  1.00  0.00    -0.247 F 
ENDBRANCH   3  21
BRANCH   4  28
HETATM   28  N4  UNL     1      -4.148  -0.063  15.592  1.00  0.00    -0.234 N 
ATOM     29  H42 UNL     1      -4.810  -0.379  16.301  1.00  0.00     0.174 HD
ATOM     30  H41 UNL     1      -3.297  -0.624  15.637  1.00  0.00     0.174 HD
ENDBRANCH   4  28
TORSDOF 6
ENDMDL
MODEL 4
REMARK VINA RESULT: -7.849330149      2.678      3.744
REMARK  6 active torsions:
REMARK  status: ('A' for Active; 'I' for Inactive)
REMARK    1  A    between atoms: C2_2  and  C4_4 
REMARK       I    between atoms: C4_4  and  N1_6 
REMARK    2  A    between atoms: N2_9  and  C7_10 
REMARK    3  A    between atoms: C7_10  and  O2_11 
REMARK    4  A    between atoms: C7_10  and  C8_13 
REMARK    5  A    between atoms: N3_15  and  C10_16 
REMARK    6  A    between atoms: C16_23  and  N4_24 
ROOT
HETATM    1  C8  UNL     1      -4.459   2.735  13.013  1.00  0.00     0.116 A 
HETATM    2  C9  UNL     1      -4.827   3.284  14.241  1.00  0.00     0.144 A 
HETATM    3  N3  UNL     1      -4.804   2.282  15.129  1.00  0.00    -0.184 N 
HETATM    4  C16 UNL     1      -4.444   1.170  14.510  1.00  0.00     0.679 A 
HETATM    5  N5  UNL     1      -4.222   1.425  13.186  1.00  0.00    -0.186 N 
ATOM      6  H5  UNL     1      -3.935   0.756  12.473  1.00  0.00     0.184 HD
ENDROOT
BRANCH   1   7
HETATM    7  C7  UNL     1      -4.371   3.520  11.792  1.00  0.00     0.167 C 
BRANCH   7   8
HETATM    8  N2  UNL     1      -3.769   4.768  11.605  1.00  0.00    -0.357 N 
HETATM    9  C6  UNL     1      -2.308   4.836  11.819  1.00  0.00     0.145 C 
HETATM   10  C5  UNL     1      -2.126   5.946  12.865  1.00  0.00     0.145 C 
HETATM   11  N1  UNL     1      -2.484   7.159  12.171  1.00  0.00    -0.349 N 
HETATM   12  C4  UNL     1      -1.929   8.391  12.551  1.00  0.00     0.223 C 
HETATM   13  C18 UNL     1      -3.426   7.131  11.070  1.00  0.00     0.145 C 
HETATM   14  O1  UNL     1      -2.301   9.425  11.886  1.00  0.00    -0.273 OA
HETATM   15  C17 UNL     1      -4.408   5.964  11.238  1.00  0.00     0.145 C 
BRANCH  12  16
HETATM   16  C2  UNL     1      -0.951   8.591  13.656  1.00  0.00     0.070 C 
HETATM   17  C1  UNL     1       0.073   9.632  13.327  1.00  0.00     0.019 C 
HETATM   18  C3  UNL     1      -1.574   8.861  14.983  1.00  0.00     0.019 C 
ENDBRANCH  12  16
ENDBRANCH   7   8
BRANCH   7  19
HETATM   19  O2  UNL     1      -4.936   2.959  10.751  1.00  0.00    -0.344 OA
ATOM     20  H2  UNL     1      -4.512   2.194  10.381  1.00  0.00     0.219 HD
ENDBRANCH   7  19
ENDBRANCH   1   7
BRANCH   3  21
HETATM   21  C10 UNL     1      -5.127   2.416  16.552  1.00  0.00     0.141 C 
HETATM   22  C11 UNL     1      -5.495   3.829  16.867  1.00  0.00     0.029 C 
HETATM   23  C12 UNL     1      -6.580   3.951  17.903  1.00  0.00     0.002 C 
HETATM   24  C13 UNL     1      -6.414   2.808  18.890  1.00  0.00     0.003 C 
HETATM   25  C14 UNL     1      -6.827   1.545  18.185  1.00  0.00     0.039 C 
HETATM   26  C15 UNL     1      -6.283   1.444  16.796  1.00  0.00     0.194 C 
HETATM   27  F1  UNL     1      -7.240   1.575  15.828  1.00  0.00    -0.247 F 
ENDBRANCH   3  21
BRANCH   4  28
HETATM   28  N4  UNL     1      -4.310  -0.016  15.046  1.00  0.00    -0.234 N 
ATOM     29  H42 UNL     1      -4.814  -0.840  14.717  1.00  0.00     0.174 HD
ATOM     30  H41 UNL     1      -3.710  -0.267  15.832  1.00  0.00     0.174 HD
ENDBRANCH   4  28
TORSDOF 6
ENDMDL
MODEL 5
REMARK VINA RESULT: -7.675590480      1.850      2.229
REMARK  6 active torsions:
REMARK  status: ('A' for Active; 'I' for Inactive)
REMARK    1  A    between atoms: C2_2  and  C4_4 
REMARK       I    between atoms: C4_4  and  N1_6 
REMARK    2  A    between atoms: N2_9  and  C7_10 
REMARK    3  A    between atoms: C7_10  and  O2_11 
REMARK    4  A    between atoms: C7_10  and  C8_13 
REMARK    5  A    between atoms: N3_15  and  C10_16 
REMARK    6  A    between atoms: C16_23  and  N4_24 
ROOT
HETATM    1  C8  UNL     1      -4.603   2.373  12.994  1.00  0.00     0.116 A 
HETATM    2  C9  UNL     1      -4.972   3.105  14.123  1.00  0.00     0.144 A 
HETATM    3  N3  UNL     1      -4.846   2.282  15.171  1.00  0.00    -0.184 N 
HETATM    4  C16 UNL     1      -4.423   1.105  14.741  1.00  0.00     0.679 A 
HETATM    5  N5  UNL     1      -4.263   1.135  13.384  1.00  0.00    -0.186 N 
ATOM      6  H5  UNL     1      -3.949   0.370  12.787  1.00  0.00     0.184 HD
ENDROOT
BRANCH   1   7
HETATM    7  C7  UNL     1      -4.613   2.932  11.652  1.00  0.00     0.167 C 
BRANCH   7   8
HETATM    8  N2  UNL     1      -3.925   4.052  11.173  1.00  0.00    -0.357 N 
HETATM    9  C6  UNL     1      -2.849   3.796  10.193  1.00  0.00     0.145 C 
HETATM   10  C5  UNL     1      -1.606   4.457  10.808  1.00  0.00     0.145 C 
HETATM   11  N1  UNL     1      -1.879   5.873  10.742  1.00  0.00    -0.349 N 
HETATM   12  C4  UNL     1      -0.829   6.800  10.658  1.00  0.00     0.223 C 
HETATM   13  C18 UNL     1      -3.242   6.366  10.763  1.00  0.00     0.145 C 
HETATM   14  O1  UNL     1      -1.155   8.041  10.606  1.00  0.00    -0.273 OA
HETATM   15  C17 UNL     1      -4.149   5.393  11.529  1.00  0.00     0.145 C 
BRANCH  12  16
HETATM   16  C2  UNL     1       0.620   6.460  10.626  1.00  0.00     0.070 C 
HETATM   17  C1  UNL     1       1.349   7.182   9.535  1.00  0.00     0.019 C 
HETATM   18  C3  UNL     1       1.319   6.629  11.932  1.00  0.00     0.019 C 
ENDBRANCH  12  16
ENDBRANCH   7   8
BRANCH   7  19
HETATM   19  O2  UNL     1      -5.372   2.281  10.804  1.00  0.00    -0.344 OA
ATOM     20  H2  UNL     1      -6.086   1.765  11.162  1.00  0.00     0.219 HD
ENDBRANCH   7  19
ENDBRANCH   1   7
BRANCH   3  21
HETATM   21  C10 UNL     1      -5.133   2.645  16.560  1.00  0.00     0.141 C 
HETATM   22  C11 UNL     1      -5.683   4.032  16.629  1.00  0.00     0.029 C 
HETATM   23  C12 UNL     1      -6.736   4.209  17.689  1.00  0.00     0.002 C 
HETATM   24  C13 UNL     1      -6.376   3.310  18.861  1.00  0.00     0.003 C 
HETATM   25  C14 UNL     1      -6.634   1.892  18.430  1.00  0.00     0.039 C 
HETATM   26  C15 UNL     1      -6.132   1.596  17.053  1.00  0.00     0.194 C 
HETATM   27  F1  UNL     1      -7.131   1.412  16.139  1.00  0.00    -0.247 F 
ENDBRANCH   3  21
BRANCH   4  28
HETATM   28  N4  UNL     1      -4.183   0.045  15.470  1.00  0.00    -0.234 N 
ATOM     29  H42 UNL     1      -4.914  -0.585  15.801  1.00  0.00     0.174 HD
ATOM     30  H41 UNL     1      -3.272  -0.280  15.793  1.00  0.00     0.174 HD
ENDBRANCH   4  28
TORSDOF 6
ENDMDL
