MODEL 1
REMARK VINA RESULT: -6.739590974      0.000      0.000
REMARK  7 active torsions:
REMARK  status: ('A' for Active; 'I' for Inactive)
REMARK    1  A    between atoms: C2_2  and  O1_3 
REMARK    2  A    between atoms: O1_3  and  C3_4 
REMARK    3  A    between atoms: C3_4  and  C4_6 
REMARK    4  A    between atoms: C5_7  and  C6_8 
REMARK    5  A    between atoms: C6_8  and  C7_10 
REMARK    6  A    between atoms: C12_18  and  C13_19 
REMARK    7  A    between atoms: N2_20  and  N3_22 
REMARK       I    between atoms: N3_22  and  C14_23 
ROOT
HETATM    1  C4  UNL     1       6.109   0.579  20.083  1.00  0.00     0.092 A 
HETATM    2  C5  UNL     1       6.050   1.646  20.923  1.00  0.00     0.098 A 
HETATM    3  N1  UNL     1       5.392   1.448  22.104  1.00  0.00    -0.343 N 
ATOM      4  H1  UNL     1       5.320   2.217  22.771  1.00  0.00     0.167 HD
HETATM    5  C11 UNL     1       4.832   0.247  22.409  1.00  0.00     0.114 A 
HETATM    6  S1  UNL     1       4.061   0.092  23.861  1.00  0.00    -0.059 SA
HETATM    7  C12 UNL     1       4.869  -0.843  21.593  1.00  0.00     0.043 A 
HETATM    8  C16 UNL     1       5.543  -0.651  20.378  1.00  0.00     0.067 A 
HETATM    9 CL1  UNL     1       5.646  -1.988  19.257  1.00  0.00    -0.082 Cl
ENDROOT
BRANCH   7  10
HETATM   10  C13 UNL     1       4.278  -2.136  21.853  1.00  0.00     0.137 C 
HETATM   11  N2  UNL     1       4.851  -3.059  22.524  1.00  0.00    -0.243 N 
ATOM     12  H2  UNL     1       5.781  -2.872  22.896  1.00  0.00     0.201 HD
BRANCH  11  13
HETATM   13  N3  UNL     1       4.300  -4.268  22.769  1.00  0.00    -0.288 NA
HETATM   14  C14 UNL     1       3.762  -5.450  23.009  1.00  0.00     0.308 C 
HETATM   15  C15 UNL     1       4.703  -6.660  23.126  1.00  0.00     0.137 C 
HETATM   16  O4  UNL     1       2.527  -5.790  23.172  1.00  0.00    -0.256 OA
ENDBRANCH  11  13
ENDBRANCH   7  10
BRANCH   1  17
HETATM   17  C3  UNL     1       6.830   0.637  18.802  1.00  0.00     0.297 C 
HETATM   18  O2  UNL     1       8.012   0.342  18.626  1.00  0.00    -0.259 OA
BRANCH  17  19
HETATM   19  O1  UNL     1       6.079   1.076  17.730  1.00  0.00    -0.318 OA
BRANCH  19  20
HETATM   20  C2  UNL     1       6.366   2.058  16.808  1.00  0.00     0.174 C 
HETATM   21  C1  UNL     1       5.474   3.242  16.813  1.00  0.00     0.034 C 
ENDBRANCH  19  20
ENDBRANCH  17  19
ENDBRANCH   1  17
BRANCH   2  22
HETATM   22  C6  UNL     1       6.594   2.927  20.595  1.00  0.00     0.184 C 
HETATM   23  O3  UNL     1       5.786   3.804  20.155  1.00  0.00    -0.290 OA
BRANCH  22  24
HETATM   24  C7  UNL     1       7.995   3.376  20.699  1.00  0.00     0.016 C 
HETATM   25  C8  UNL     1       8.010   4.736  21.442  1.00  0.00     0.023 C 
HETATM   26  C9  UNL     1       8.870   2.461  21.535  1.00  0.00     0.023 C 
HETATM   27  C10 UNL     1       8.629   3.707  19.359  1.00  0.00     0.023 C 
ENDBRANCH  22  24
ENDBRANCH   2  22
TORSDOF 7
ENDMDL
MODEL 2
REMARK VINA RESULT: -6.566642656      0.954      1.546
REMARK  7 active torsions:
REMARK  status: ('A' for Active; 'I' for Inactive)
REMARK    1  A    between atoms: C2_2  and  O1_3 
REMARK    2  A    between atoms: O1_3  and  C3_4 
REMARK    3  A    between atoms: C3_4  and  C4_6 
REMARK    4  A    between atoms: C5_7  and  C6_8 
REMARK    5  A    between atoms: C6_8  and  C7_10 
REMARK    6  A    between atoms: C12_18  and  C13_19 
REMARK    7  A    between atoms: N2_20  and  N3_22 
REMARK       I    between atoms: N3_22  and  C14_23 
ROOT
HETATM    1  C4  UNL     1       6.307   0.572  20.050  1.00  0.00     0.092 A 
HETATM    2  C5  UNL     1       6.171   1.667  20.844  1.00  0.00     0.098 A 
HETATM    3  N1  UNL     1       5.433   1.499  21.982  1.00  0.00    -0.343 N 
ATOM      4  H1  UNL     1       5.300   2.290  22.612  1.00  0.00     0.167 HD
HETATM    5  C11 UNL     1       4.873   0.300  22.290  1.00  0.00     0.114 A 
HETATM    6  S1  UNL     1       4.002   0.181  23.689  1.00  0.00    -0.059 SA
HETATM    7  C12 UNL     1       4.986  -0.819  21.520  1.00  0.00     0.043 A 
HETATM    8  C16 UNL     1       5.742  -0.657  20.350  1.00  0.00     0.067 A 
HETATM    9 CL1  UNL     1       5.947  -2.031  19.290  1.00  0.00    -0.082 Cl
ENDROOT
BRANCH   7  10
HETATM   10  C13 UNL     1       4.399  -2.113  21.786  1.00  0.00     0.137 C 
HETATM   11  N2  UNL     1       4.926  -2.991  22.547  1.00  0.00    -0.243 N 
ATOM     12  H2  UNL     1       5.815  -2.765  22.993  1.00  0.00     0.201 HD
BRANCH  11  13
HETATM   13  N3  UNL     1       4.379  -4.201  22.798  1.00  0.00    -0.288 NA
HETATM   14  C14 UNL     1       3.844  -5.383  23.042  1.00  0.00     0.308 C 
HETATM   15  C15 UNL     1       4.795  -6.565  23.293  1.00  0.00     0.137 C 
HETATM   16  O4  UNL     1       2.606  -5.743  23.114  1.00  0.00    -0.256 OA
ENDBRANCH  11  13
ENDBRANCH   7  10
BRANCH   1  17
HETATM   17  C3  UNL     1       7.118   0.597  18.823  1.00  0.00     0.297 C 
HETATM   18  O2  UNL     1       6.723   0.923  17.703  1.00  0.00    -0.259 OA
BRANCH  17  19
HETATM   19  O1  UNL     1       8.431   0.202  18.985  1.00  0.00    -0.318 OA
BRANCH  19  20
HETATM   20  C2  UNL     1       9.391  -0.046  18.029  1.00  0.00     0.174 C 
HETATM   21  C1  UNL     1      10.575   0.846  18.044  1.00  0.00     0.034 C 
ENDBRANCH  19  20
ENDBRANCH  17  19
ENDBRANCH   1  17
BRANCH   2  22
HETATM   22  C6  UNL     1       6.716   2.946  20.508  1.00  0.00     0.184 C 
HETATM   23  O3  UNL     1       5.937   3.777  19.946  1.00  0.00    -0.290 OA
BRANCH  22  24
HETATM   24  C7  UNL     1       8.088   3.438  20.729  1.00  0.00     0.016 C 
HETATM   25  C8  UNL     1       7.998   4.800  21.464  1.00  0.00     0.023 C 
HETATM   26  C9  UNL     1       8.916   2.553  21.643  1.00  0.00     0.023 C 
HETATM   27  C10 UNL     1       8.825   3.784  19.447  1.00  0.00     0.023 C 
ENDBRANCH  22  24
ENDBRANCH   2  22
TORSDOF 7
ENDMDL
MODEL 3
REMARK VINA RESULT: -6.501534103      3.479      5.168
REMARK  7 active torsions:
REMARK  status: ('A' for Active; 'I' for Inactive)
REMARK    1  A    between atoms: C2_2  and  O1_3 
REMARK    2  A    between atoms: O1_3  and  C3_4 
REMARK    3  A    between atoms: C3_4  and  C4_6 
REMARK    4  A    between atoms: C5_7  and  C6_8 
REMARK    5  A    between atoms: C6_8  and  C7_10 
REMARK    6  A    between atoms: C12_18  and  C13_19 
REMARK    7  A    between atoms: N2_20  and  N3_22 
REMARK       I    between atoms: N3_22  and  C14_23 
ROOT
HETATM    1  C4  UNL     1       9.033   2.328  18.850  1.00  0.00     0.092 A 
HETATM    2  C5  UNL     1       8.797   2.069  17.537  1.00  0.00     0.098 A 
HETATM    3  N1  UNL     1       7.850   1.122  17.269  1.00  0.00    -0.343 N 
ATOM      4  H1  UNL     1       7.635   0.891  16.299  1.00  0.00     0.167 HD
HETATM    5  C11 UNL     1       7.189   0.481  18.268  1.00  0.00     0.114 A 
HETATM    6  S1  UNL     1       6.054  -0.646  17.857  1.00  0.00    -0.059 SA
HETATM    7  C12 UNL     1       7.398   0.711  19.595  1.00  0.00     0.043 A 
HETATM    8  C16 UNL     1       8.368   1.683  19.881  1.00  0.00     0.067 A 
HETATM    9 CL1  UNL     1       8.714   2.052  21.554  1.00  0.00    -0.082 Cl
ENDROOT
BRANCH   7  10
HETATM   10  C13 UNL     1       6.741   0.050  20.700  1.00  0.00     0.137 C 
HETATM   11  N2  UNL     1       5.645   0.448  21.218  1.00  0.00    -0.243 N 
ATOM     12  H2  UNL     1       5.208   1.283  20.829  1.00  0.00     0.201 HD
BRANCH  11  13
HETATM   13  N3  UNL     1       5.028  -0.169  22.250  1.00  0.00    -0.288 NA
HETATM   14  C14 UNL     1       4.427  -0.771  23.259  1.00  0.00     0.308 C 
HETATM   15  C15 UNL     1       3.834   0.107  24.373  1.00  0.00     0.137 C 
HETATM   16  O4  UNL     1       4.235  -2.027  23.490  1.00  0.00    -0.256 OA
ENDBRANCH  11  13
ENDBRANCH   7  10
BRANCH   1  17
HETATM   17  C3  UNL     1       9.988   3.360  19.281  1.00  0.00     0.297 C 
HETATM   18  O2  UNL     1      11.193   3.195  19.470  1.00  0.00    -0.259 OA
BRANCH  17  19
HETATM   19  O1  UNL     1       9.439   4.610  19.490  1.00  0.00    -0.318 OA
BRANCH  19  20
HETATM   20  C2  UNL     1       9.719   5.532  20.474  1.00  0.00     0.174 C 
HETATM   21  C1  UNL     1       8.653   5.766  21.476  1.00  0.00     0.034 C 
ENDBRANCH  19  20
ENDBRANCH  17  19
ENDBRANCH   1  17
BRANCH   2  22
HETATM   22  C6  UNL     1       9.518   2.703  16.477  1.00  0.00     0.184 C 
HETATM   23  O3  UNL     1       8.999   3.745  15.966  1.00  0.00    -0.290 OA
BRANCH  22  24
HETATM   24  C7  UNL     1      10.807   2.302  15.883  1.00  0.00     0.016 C 
HETATM   25  C8  UNL     1      10.570   1.992  14.383  1.00  0.00     0.023 C 
HETATM   26  C9  UNL     1      11.855   3.399  15.897  1.00  0.00     0.023 C 
HETATM   27  C10 UNL     1      11.345   0.991  16.428  1.00  0.00     0.023 C 
ENDBRANCH  22  24
ENDBRANCH   2  22
TORSDOF 7
ENDMDL
MODEL 4
REMARK VINA RESULT: -6.483728753      4.665      8.195
REMARK  7 active torsions:
REMARK  status: ('A' for Active; 'I' for Inactive)
REMARK    1  A    between atoms: C2_2  and  O1_3 
REMARK    2  A    between atoms: O1_3  and  C3_4 
REMARK    3  A    between atoms: C3_4  and  C4_6 
REMARK    4  A    between atoms: C5_7  and  C6_8 
REMARK    5  A    between atoms: C6_8  and  C7_10 
REMARK    6  A    between atoms: C12_18  and  C13_19 
REMARK    7  A    between atoms: N2_20  and  N3_22 
REMARK       I    between atoms: N3_22  and  C14_23 
ROOT
HETATM    1  C4  UNL     1       8.679   0.973  20.009  1.00  0.00     0.092 A 
HETATM    2  C5  UNL     1       7.968  -0.115  19.610  1.00  0.00     0.098 A 
HETATM    3  N1  UNL     1       8.264  -0.607  18.370  1.00  0.00    -0.343 N 
ATOM      4  H1  UNL     1       7.760  -1.423  18.023  1.00  0.00     0.167 HD
HETATM    5  C11 UNL     1       9.217  -0.032  17.590  1.00  0.00     0.114 A 
HETATM    6  S1  UNL     1       9.517  -0.694  16.108  1.00  0.00    -0.059 SA
HETATM    7  C12 UNL     1       9.948   1.059  17.955  1.00  0.00     0.043 A 
HETATM    8  C16 UNL     1       9.653   1.571  19.227  1.00  0.00     0.067 A 
HETATM    9 CL1  UNL     1      10.534   2.972  19.789  1.00  0.00    -0.082 Cl
ENDROOT
BRANCH   7  10
HETATM   10  C13 UNL     1      10.959   1.725  17.164  1.00  0.00     0.137 C 
HETATM   11  N2  UNL     1      10.743   2.774  16.471  1.00  0.00    -0.243 N 
ATOM     12  H2  UNL     1       9.801   3.165  16.476  1.00  0.00     0.201 HD
BRANCH  11  13
HETATM   13  N3  UNL     1      11.685   3.399  15.731  1.00  0.00    -0.288 NA
HETATM   14  C14 UNL     1      12.606   4.011  15.009  1.00  0.00     0.308 C 
HETATM   15  C15 UNL     1      13.909   3.252  14.711  1.00  0.00     0.137 C 
HETATM   16  O4  UNL     1      12.610   5.189  14.480  1.00  0.00    -0.256 OA
ENDBRANCH  11  13
ENDBRANCH   7  10
BRANCH   1  17
HETATM   17  C3  UNL     1       8.500   1.573  21.340  1.00  0.00     0.297 C 
HETATM   18  O2  UNL     1       9.175   1.328  22.340  1.00  0.00    -0.259 OA
BRANCH  17  19
HETATM   19  O1  UNL     1       7.462   2.480  21.435  1.00  0.00    -0.318 OA
BRANCH  19  20
HETATM   20  C2  UNL     1       7.315   3.704  20.822  1.00  0.00     0.174 C 
HETATM   21  C1  UNL     1       8.069   4.831  21.421  1.00  0.00     0.034 C 
ENDBRANCH  19  20
ENDBRANCH  17  19
ENDBRANCH   1  17
BRANCH   2  22
HETATM   22  C6  UNL     1       6.932  -0.702  20.402  1.00  0.00     0.184 C 
HETATM   23  O3  UNL     1       7.265  -1.646  21.184  1.00  0.00    -0.290 OA
BRANCH  22  24
HETATM   24  C7  UNL     1       5.500  -0.353  20.432  1.00  0.00     0.016 C 
HETATM   25  C8  UNL     1       4.688  -1.623  20.068  1.00  0.00     0.023 C 
HETATM   26  C9  UNL     1       4.998   0.055  21.804  1.00  0.00     0.023 C 
HETATM   27  C10 UNL     1       5.092   0.638  19.356  1.00  0.00     0.023 C 
ENDBRANCH  22  24
ENDBRANCH   2  22
TORSDOF 7
ENDMDL
MODEL 5
REMARK VINA RESULT: -6.479924446      3.917      5.609
REMARK  7 active torsions:
REMARK  status: ('A' for Active; 'I' for Inactive)
REMARK    1  A    between atoms: C2_2  and  O1_3 
REMARK    2  A    between atoms: O1_3  and  C3_4 
REMARK    3  A    between atoms: C3_4  and  C4_6 
REMARK    4  A    between atoms: C5_7  and  C6_8 
REMARK    5  A    between atoms: C6_8  and  C7_10 
REMARK    6  A    between atoms: C12_18  and  C13_19 
REMARK    7  A    between atoms: N2_20  and  N3_22 
REMARK       I    between atoms: N3_22  and  C14_23 
ROOT
HETATM    1  C4  UNL     1       6.415  -0.138  19.132  1.00  0.00     0.092 A 
HETATM    2  C5  UNL     1       6.225  -0.184  17.787  1.00  0.00     0.098 A 
HETATM    3  N1  UNL     1       4.997   0.212  17.338  1.00  0.00    -0.343 N 
ATOM      4  H1  UNL     1       4.802   0.197  16.337  1.00  0.00     0.167 HD
HETATM    5  C11 UNL     1       4.029   0.626  18.198  1.00  0.00     0.114 A 
HETATM    6  S1  UNL     1       2.575   1.095  17.571  1.00  0.00    -0.059 SA
HETATM    7  C12 UNL     1       4.182   0.685  19.551  1.00  0.00     0.043 A 
HETATM    8  C16 UNL     1       5.440   0.282  20.023  1.00  0.00     0.067 A 
HETATM    9 CL1  UNL     1       5.739   0.316  21.744  1.00  0.00    -0.082 Cl
ENDROOT
BRANCH   7  10
HETATM   10  C13 UNL     1       3.187   1.097  20.515  1.00  0.00     0.137 C 
HETATM   11  N2  UNL     1       3.162   2.248  21.065  1.00  0.00    -0.243 N 
ATOM     12  H2  UNL     1       3.889   2.916  20.809  1.00  0.00     0.201 HD
BRANCH  11  13
HETATM   13  N3  UNL     1       2.233   2.637  21.966  1.00  0.00    -0.288 NA
HETATM   14  C14 UNL     1       1.324   3.016  22.845  1.00  0.00     0.308 C 
HETATM   15  C15 UNL     1       1.573   2.685  24.326  1.00  0.00     0.137 C 
HETATM   16  O4  UNL     1       0.210   3.647  22.679  1.00  0.00    -0.256 OA
ENDBRANCH  11  13
ENDBRANCH   7  10
BRANCH   1  17
HETATM   17  C3  UNL     1       7.705  -0.486  19.747  1.00  0.00     0.297 C 
HETATM   18  O2  UNL     1       7.992  -1.567  20.261  1.00  0.00    -0.259 OA
BRANCH  17  19
HETATM   19  O1  UNL     1       8.647   0.525  19.735  1.00  0.00    -0.318 OA
BRANCH  19  20
HETATM   20  C2  UNL     1       8.996   1.403  20.736  1.00  0.00     0.174 C 
HETATM   21  C1  UNL     1       8.278   2.700  20.749  1.00  0.00     0.034 C 
ENDBRANCH  19  20
ENDBRANCH  17  19
ENDBRANCH   1  17
BRANCH   2  22
HETATM   22  C6  UNL     1       7.218  -0.661  16.875  1.00  0.00     0.184 C 
HETATM   23  O3  UNL     1       7.344  -1.920  16.763  1.00  0.00    -0.290 OA
BRANCH  22  24
HETATM   24  C7  UNL     1       8.135   0.128  16.032  1.00  0.00     0.016 C 
HETATM   25  C8  UNL     1       9.585  -0.312  16.356  1.00  0.00     0.023 C 
HETATM   26  C9  UNL     1       7.970  -0.126  14.546  1.00  0.00     0.023 C 
HETATM   27  C10 UNL     1       8.141   1.610  16.361  1.00  0.00     0.023 C 
ENDBRANCH  22  24
ENDBRANCH   2  22
TORSDOF 7
ENDMDL
