MODEL 1
REMARK VINA RESULT: -6.556465185      0.000      0.000
REMARK  13 active torsions:
REMARK  status: ('A' for Active; 'I' for Inactive)
REMARK    1  A    between atoms: N1_2  and  C2_4 
REMARK    2  A    between atoms: C3_5  and  C4_6 
REMARK    3  A    between atoms: C11_20  and  N5_21 
REMARK    4  A    between atoms: N5_21  and  C12_23 
REMARK    5  A    between atoms: C12_23  and  C13_24 
REMARK    6  A    between atoms: C13_24  and  O4_25 
REMARK    7  A    between atoms: C15_28  and  N6_29 
REMARK    8  A    between atoms: N6_29  and  C16_30 
REMARK    9  A    between atoms: N6_29  and  C18_34 
REMARK   10  A    between atoms: C16_30  and  C17_31 
REMARK   11  A    between atoms: C17_31  and  O5_32 
REMARK   12  A    between atoms: C18_34  and  C19_35 
REMARK   13  A    between atoms: C19_35  and  O6_36 
ROOT
HETATM    1  C2  UNL     1      29.723  -6.857   5.580  1.00  0.00     0.078 A 
HETATM    2  C3  UNL     1      31.067  -6.756   5.418  1.00  0.00     0.126 A 
HETATM    3  C5  UNL     1      31.583  -5.917   4.454  1.00  0.00     0.265 A 
HETATM    4  O2  UNL     1      32.851  -5.845   4.327  1.00  0.00    -0.267 OA
HETATM    5  N3  UNL     1      30.832  -5.151   3.616  1.00  0.00    -0.314 N 
HETATM    6  C6  UNL     1      31.444  -4.308   2.630  1.00  0.00     0.160 C 
HETATM    7  C7  UNL     1      29.489  -5.254   3.780  1.00  0.00     0.094 A 
HETATM    8  C8  UNL     1      28.924  -6.080   4.732  1.00  0.00     0.092 A 
HETATM    9  N4  UNL     1      27.592  -6.158   4.851  1.00  0.00    -0.319 N 
ATOM     10  H4  UNL     1      27.207  -6.778   5.564  1.00  0.00     0.169 HD
HETATM   11  C9  UNL     1      26.731  -5.458   4.079  1.00  0.00     0.260 A 
HETATM   12  O3  UNL     1      25.498  -5.605   4.276  1.00  0.00    -0.267 OA
HETATM   13  C10 UNL     1      27.247  -4.624   3.118  1.00  0.00     0.087 A 
HETATM   14  C11 UNL     1      26.409  -3.902   2.303  1.00  0.00     0.050 A 
HETATM   15  C14 UNL     1      27.029  -3.085   1.347  1.00  0.00     0.078 A 
HETATM   16  C15 UNL     1      28.392  -3.016   1.240  1.00  0.00     0.105 A 
HETATM   17  N7  UNL     1      29.138  -3.742   2.063  1.00  0.00    -0.340 N 
ATOM     18  H7  UNL     1      30.152  -3.683   1.975  1.00  0.00     0.167 HD
HETATM   19  C20 UNL     1      28.640  -4.528   2.978  1.00  0.00     0.081 A 
ENDROOT
BRANCH  16  20
HETATM   20  N6  UNL     1      28.953  -2.172   0.212  1.00  0.00    -0.363 N 
BRANCH  20  21
HETATM   21  C16 UNL     1      29.096  -2.699  -1.107  1.00  0.00     0.150 C 
BRANCH  21  22
HETATM   22  C17 UNL     1      30.196  -3.743  -1.196  1.00  0.00     0.183 C 
BRANCH  22  23
HETATM   23  O5  UNL     1      29.954  -4.479  -2.354  1.00  0.00    -0.399 OA
ATOM     24  H5  UNL     1      30.794  -4.596  -2.781  1.00  0.00     0.209 HD
ENDBRANCH  22  23
ENDBRANCH  21  22
ENDBRANCH  20  21
BRANCH  20  25
HETATM   25  C18 UNL     1      29.358  -0.795   0.459  1.00  0.00     0.150 C 
BRANCH  25  26
HETATM   26  C19 UNL     1      30.856  -0.715   0.706  1.00  0.00     0.183 C 
BRANCH  26  27
HETATM   27  O6  UNL     1      31.165   0.489   1.330  1.00  0.00    -0.399 OA
ATOM     28  H6  UNL     1      30.869   0.468   2.232  1.00  0.00     0.209 HD
ENDBRANCH  26  27
ENDBRANCH  25  26
ENDBRANCH  20  25
ENDBRANCH  16  20
BRANCH  14  29
HETATM   29  N5  UNL     1      24.991  -3.924   2.373  1.00  0.00    -0.387 N 
ATOM     30  H5  UNL     1      24.472  -4.736   2.039  1.00  0.00     0.159 HD
BRANCH  29  31
HETATM   31  C12 UNL     1      24.278  -2.764   2.932  1.00  0.00     0.146 C 
BRANCH  31  32
HETATM   32  C13 UNL     1      22.784  -3.019   2.822  1.00  0.00     0.183 C 
BRANCH  32  33
HETATM   33  O4  UNL     1      22.338  -2.798   1.520  1.00  0.00    -0.399 OA
ATOM     34  H4  UNL     1      21.423  -2.539   1.515  1.00  0.00     0.209 HD
ENDBRANCH  32  33
ENDBRANCH  31  32
ENDBRANCH  29  31
ENDBRANCH  14  29
BRANCH   1  35
HETATM   35  N1  UNL     1      29.077  -7.678   6.526  1.00  0.00    -0.391 N 
HETATM   36  C1  UNL     1      28.788  -9.080   6.386  1.00  0.00     0.146 C 
ATOM     37  H1  UNL     1      28.787  -7.233   7.397  1.00  0.00     0.159 HD
ENDBRANCH   1  35
BRANCH   2  38
HETATM   38  C4  UNL     1      31.960  -7.522   6.244  1.00  0.00     0.272 C 
HETATM   39  N2  UNL     1      32.266  -7.100   7.553  1.00  0.00    -0.057 NA
HETATM   40  O1  UNL     1      32.478  -8.573   5.819  1.00  0.00    -0.271 OA
ENDBRANCH   2  38
TORSDOF 13
ENDMDL
MODEL 2
REMARK VINA RESULT: -6.516064534      2.662      5.473
REMARK  13 active torsions:
REMARK  status: ('A' for Active; 'I' for Inactive)
REMARK    1  A    between atoms: N1_2  and  C2_4 
REMARK    2  A    between atoms: C3_5  and  C4_6 
REMARK    3  A    between atoms: C11_20  and  N5_21 
REMARK    4  A    between atoms: N5_21  and  C12_23 
REMARK    5  A    between atoms: C12_23  and  C13_24 
REMARK    6  A    between atoms: C13_24  and  O4_25 
REMARK    7  A    between atoms: C15_28  and  N6_29 
REMARK    8  A    between atoms: N6_29  and  C16_30 
REMARK    9  A    between atoms: N6_29  and  C18_34 
REMARK   10  A    between atoms: C16_30  and  C17_31 
REMARK   11  A    between atoms: C17_31  and  O5_32 
REMARK   12  A    between atoms: C18_34  and  C19_35 
REMARK   13  A    between atoms: C19_35  and  O6_36 
ROOT
HETATM    1  C2  UNL     1      30.455  -8.304   4.337  1.00  0.00     0.078 A 
HETATM    2  C3  UNL     1      29.333  -7.968   5.025  1.00  0.00     0.126 A 
HETATM    3  C5  UNL     1      28.660  -6.806   4.718  1.00  0.00     0.265 A 
HETATM    4  O2  UNL     1      27.609  -6.519   5.385  1.00  0.00    -0.267 OA
HETATM    5  N3  UNL     1      29.036  -5.930   3.747  1.00  0.00    -0.314 N 
HETATM    6  C6  UNL     1      28.286  -4.734   3.492  1.00  0.00     0.160 C 
HETATM    7  C7  UNL     1      30.157  -6.268   3.060  1.00  0.00     0.094 A 
HETATM    8  C8  UNL     1      30.867  -7.422   3.330  1.00  0.00     0.092 A 
HETATM    9  N4  UNL     1      31.973  -7.710   2.634  1.00  0.00    -0.319 N 
ATOM     10  H4  UNL     1      32.475  -8.569   2.858  1.00  0.00     0.169 HD
HETATM   11  C9  UNL     1      32.462  -6.923   1.649  1.00  0.00     0.260 A 
HETATM   12  O3  UNL     1      33.510  -7.289   1.058  1.00  0.00    -0.267 OA
HETATM   13  C10 UNL     1      31.790  -5.765   1.345  1.00  0.00     0.087 A 
HETATM   14  C11 UNL     1      32.257  -4.930   0.359  1.00  0.00     0.050 A 
HETATM   15  C14 UNL     1      31.507  -3.768   0.128  1.00  0.00     0.078 A 
HETATM   16  C15 UNL     1      30.376  -3.490   0.848  1.00  0.00     0.105 A 
HETATM   17  N7  UNL     1      29.987  -4.344   1.785  1.00  0.00    -0.340 N 
ATOM     18  H7  UNL     1      29.142  -4.127   2.315  1.00  0.00     0.167 HD
HETATM   19  C20 UNL     1      30.627  -5.446   2.063  1.00  0.00     0.081 A 
ENDROOT
BRANCH  16  20
HETATM   20  N6  UNL     1      29.676  -2.259   0.568  1.00  0.00    -0.363 N 
BRANCH  20  21
HETATM   21  C16 UNL     1      29.190  -2.030  -0.754  1.00  0.00     0.150 C 
BRANCH  21  22
HETATM   22  C17 UNL     1      27.672  -2.023  -0.818  1.00  0.00     0.183 C 
BRANCH  22  23
HETATM   23  O5  UNL     1      27.307  -3.010  -1.730  1.00  0.00    -0.399 OA
ATOM     24  H5  UNL     1      26.437  -3.300  -1.482  1.00  0.00     0.209 HD
ENDBRANCH  22  23
ENDBRANCH  21  22
ENDBRANCH  20  21
BRANCH  20  25
HETATM   25  C18 UNL     1      29.424  -1.249   1.587  1.00  0.00     0.150 C 
BRANCH  25  26
HETATM   26  C19 UNL     1      30.700  -0.486   1.910  1.00  0.00     0.183 C 
BRANCH  26  27
HETATM   27  O6  UNL     1      31.062   0.303   0.823  1.00  0.00    -0.399 OA
ATOM     28  H6  UNL     1      30.923  -0.179   0.016  1.00  0.00     0.209 HD
ENDBRANCH  26  27
ENDBRANCH  25  26
ENDBRANCH  20  25
ENDBRANCH  16  20
BRANCH  14  29
HETATM   29  N5  UNL     1      33.414  -5.170  -0.427  1.00  0.00    -0.387 N 
ATOM     30  H5  UNL     1      33.539  -6.065  -0.900  1.00  0.00     0.159 HD
BRANCH  29  31
HETATM   31  C12 UNL     1      34.432  -4.114  -0.553  1.00  0.00     0.146 C 
BRANCH  31  32
HETATM   32  C13 UNL     1      35.772  -4.683  -0.118  1.00  0.00     0.183 C 
BRANCH  32  33
HETATM   33  O4  UNL     1      35.793  -6.070  -0.264  1.00  0.00    -0.399 OA
ATOM     34  H4  UNL     1      35.856  -6.498   0.582  1.00  0.00     0.209 HD
ENDBRANCH  32  33
ENDBRANCH  31  32
ENDBRANCH  29  31
ENDBRANCH  14  29
BRANCH   1  35
HETATM   35  N1  UNL     1      31.229  -9.461   4.558  1.00  0.00    -0.391 N 
HETATM   36  C1  UNL     1      32.271  -9.618   5.536  1.00  0.00     0.146 C 
ATOM     37  H1  UNL     1      31.029 -10.267   3.965  1.00  0.00     0.159 HD
ENDBRANCH   1  35
BRANCH   2  38
HETATM   38  C4  UNL     1      28.844  -8.816   6.078  1.00  0.00     0.272 C 
HETATM   39  N2  UNL     1      28.085  -9.966   5.779  1.00  0.00    -0.057 NA
HETATM   40  O1  UNL     1      29.082  -8.551   7.273  1.00  0.00    -0.271 OA
ENDBRANCH   2  38
TORSDOF 13
ENDMDL
MODEL 3
REMARK VINA RESULT: -6.486217898      2.664      5.735
REMARK  13 active torsions:
REMARK  status: ('A' for Active; 'I' for Inactive)
REMARK    1  A    between atoms: N1_2  and  C2_4 
REMARK    2  A    between atoms: C3_5  and  C4_6 
REMARK    3  A    between atoms: C11_20  and  N5_21 
REMARK    4  A    between atoms: N5_21  and  C12_23 
REMARK    5  A    between atoms: C12_23  and  C13_24 
REMARK    6  A    between atoms: C13_24  and  O4_25 
REMARK    7  A    between atoms: C15_28  and  N6_29 
REMARK    8  A    between atoms: N6_29  and  C16_30 
REMARK    9  A    between atoms: N6_29  and  C18_34 
REMARK   10  A    between atoms: C16_30  and  C17_31 
REMARK   11  A    between atoms: C17_31  and  O5_32 
REMARK   12  A    between atoms: C18_34  and  C19_35 
REMARK   13  A    between atoms: C19_35  and  O6_36 
ROOT
HETATM    1  C2  UNL     1      30.450  -8.285   4.309  1.00  0.00     0.078 A 
HETATM    2  C3  UNL     1      29.329  -7.947   4.998  1.00  0.00     0.126 A 
HETATM    3  C5  UNL     1      28.661  -6.781   4.694  1.00  0.00     0.265 A 
HETATM    4  O2  UNL     1      27.610  -6.493   5.361  1.00  0.00    -0.267 OA
HETATM    5  N3  UNL     1      29.040  -5.903   3.726  1.00  0.00    -0.314 N 
HETATM    6  C6  UNL     1      28.294  -4.704   3.475  1.00  0.00     0.160 C 
HETATM    7  C7  UNL     1      30.160  -6.244   3.038  1.00  0.00     0.094 A 
HETATM    8  C8  UNL     1      30.865  -7.401   3.305  1.00  0.00     0.092 A 
HETATM    9  N4  UNL     1      31.971  -7.691   2.609  1.00  0.00    -0.319 N 
ATOM     10  H4  UNL     1      32.469  -8.553   2.831  1.00  0.00     0.169 HD
HETATM   11  C9  UNL     1      32.463  -6.903   1.626  1.00  0.00     0.260 A 
HETATM   12  O3  UNL     1      33.510  -7.271   1.034  1.00  0.00    -0.267 OA
HETATM   13  C10 UNL     1      31.796  -5.742   1.326  1.00  0.00     0.087 A 
HETATM   14  C11 UNL     1      32.266  -4.906   0.342  1.00  0.00     0.050 A 
HETATM   15  C14 UNL     1      31.521  -3.740   0.115  1.00  0.00     0.078 A 
HETATM   16  C15 UNL     1      30.390  -3.460   0.835  1.00  0.00     0.105 A 
HETATM   17  N7  UNL     1      29.997  -4.315   1.769  1.00  0.00    -0.340 N 
ATOM     18  H7  UNL     1      29.154  -4.097   2.300  1.00  0.00     0.167 HD
HETATM   19  C20 UNL     1      30.634  -5.421   2.044  1.00  0.00     0.081 A 
ENDROOT
BRANCH  16  20
HETATM   20  N6  UNL     1      29.695  -2.225   0.559  1.00  0.00    -0.363 N 
BRANCH  20  21
HETATM   21  C16 UNL     1      29.522  -1.283   1.617  1.00  0.00     0.150 C 
BRANCH  21  22
HETATM   22  C17 UNL     1      30.803  -0.532   1.938  1.00  0.00     0.183 C 
BRANCH  22  23
HETATM   23  O5  UNL     1      31.040   0.327   0.867  1.00  0.00    -0.399 OA
ATOM     24  H5  UNL     1      30.415   1.038   0.947  1.00  0.00     0.209 HD
ENDBRANCH  22  23
ENDBRANCH  21  22
ENDBRANCH  20  21
BRANCH  20  25
HETATM   25  C18 UNL     1      29.184  -1.890  -0.763  1.00  0.00     0.150 C 
BRANCH  25  26
HETATM   26  C19 UNL     1      27.670  -2.032  -0.801  1.00  0.00     0.183 C 
BRANCH  26  27
HETATM   27  O6  UNL     1      27.314  -3.011  -1.724  1.00  0.00    -0.399 OA
ATOM     28  H6  UNL     1      26.831  -2.616  -2.440  1.00  0.00     0.209 HD
ENDBRANCH  26  27
ENDBRANCH  25  26
ENDBRANCH  20  25
ENDBRANCH  16  20
BRANCH  14  29
HETATM   29  N5  UNL     1      33.423  -5.147  -0.444  1.00  0.00    -0.387 N 
ATOM     30  H5  UNL     1      33.546  -6.042  -0.917  1.00  0.00     0.159 HD
BRANCH  29  31
HETATM   31  C12 UNL     1      34.443  -4.093  -0.570  1.00  0.00     0.146 C 
BRANCH  31  32
HETATM   32  C13 UNL     1      35.775  -4.653  -0.100  1.00  0.00     0.183 C 
BRANCH  32  33
HETATM   33  O4  UNL     1      35.825  -6.035  -0.286  1.00  0.00    -0.399 OA
ATOM     34  H4  UNL     1      36.724  -6.340  -0.310  1.00  0.00     0.209 HD
ENDBRANCH  32  33
ENDBRANCH  31  32
ENDBRANCH  29  31
ENDBRANCH  14  29
BRANCH   1  35
HETATM   35  N1  UNL     1      31.219  -9.445   4.527  1.00  0.00    -0.391 N 
HETATM   36  C1  UNL     1      32.334  -9.576   5.427  1.00  0.00     0.146 C 
ATOM     37  H1  UNL     1      30.960 -10.275   3.993  1.00  0.00     0.159 HD
ENDBRANCH   1  35
BRANCH   2  38
HETATM   38  C4  UNL     1      28.837  -8.797   6.048  1.00  0.00     0.272 C 
HETATM   39  N2  UNL     1      28.099  -9.958   5.744  1.00  0.00    -0.057 NA
HETATM   40  O1  UNL     1      29.052  -8.522   7.245  1.00  0.00    -0.271 OA
ENDBRANCH   2  38
TORSDOF 13
ENDMDL
MODEL 4
REMARK VINA RESULT: -6.438492185      2.496      4.973
REMARK  13 active torsions:
REMARK  status: ('A' for Active; 'I' for Inactive)
REMARK    1  A    between atoms: N1_2  and  C2_4 
REMARK    2  A    between atoms: C3_5  and  C4_6 
REMARK    3  A    between atoms: C11_20  and  N5_21 
REMARK    4  A    between atoms: N5_21  and  C12_23 
REMARK    5  A    between atoms: C12_23  and  C13_24 
REMARK    6  A    between atoms: C13_24  and  O4_25 
REMARK    7  A    between atoms: C15_28  and  N6_29 
REMARK    8  A    between atoms: N6_29  and  C16_30 
REMARK    9  A    between atoms: N6_29  and  C18_34 
REMARK   10  A    between atoms: C16_30  and  C17_31 
REMARK   11  A    between atoms: C17_31  and  O5_32 
REMARK   12  A    between atoms: C18_34  and  C19_35 
REMARK   13  A    between atoms: C19_35  and  O6_36 
ROOT
HETATM    1  C2  UNL     1      30.005  -7.215   2.732  1.00  0.00     0.078 A 
HETATM    2  C3  UNL     1      29.744  -7.470   4.040  1.00  0.00     0.126 A 
HETATM    3  C5  UNL     1      29.100  -6.526   4.810  1.00  0.00     0.265 A 
HETATM    4  O2  UNL     1      28.870  -6.798   6.037  1.00  0.00    -0.267 OA
HETATM    5  N3  UNL     1      28.685  -5.312   4.356  1.00  0.00    -0.314 N 
HETATM    6  C6  UNL     1      28.027  -4.378   5.224  1.00  0.00     0.160 C 
HETATM    7  C7  UNL     1      28.947  -5.060   3.048  1.00  0.00     0.094 A 
HETATM    8  C8  UNL     1      29.590  -5.973   2.236  1.00  0.00     0.092 A 
HETATM    9  N4  UNL     1      29.837  -5.676   0.953  1.00  0.00    -0.319 N 
ATOM     10  H4  UNL     1      30.314  -6.372   0.380  1.00  0.00     0.169 HD
HETATM   11  C9  UNL     1      29.487  -4.504   0.377  1.00  0.00     0.260 A 
HETATM   12  O3  UNL     1      29.767  -4.329  -0.836  1.00  0.00    -0.267 OA
HETATM   13  C10 UNL     1      28.846  -3.565   1.146  1.00  0.00     0.087 A 
HETATM   14  C11 UNL     1      28.482  -2.356   0.605  1.00  0.00     0.050 A 
HETATM   15  C14 UNL     1      27.840  -1.460   1.472  1.00  0.00     0.078 A 
HETATM   16  C15 UNL     1      27.593  -1.780   2.780  1.00  0.00     0.105 A 
HETATM   17  N7  UNL     1      27.974  -2.967   3.232  1.00  0.00    -0.340 N 
ATOM     18  H7  UNL     1      27.785  -3.196   4.208  1.00  0.00     0.167 HD
HETATM   19  C20 UNL     1      28.577  -3.857   2.493  1.00  0.00     0.081 A 
ENDROOT
BRANCH  16  20
HETATM   20  N6  UNL     1      26.953  -0.791   3.614  1.00  0.00    -0.363 N 
BRANCH  20  21
HETATM   21  C16 UNL     1      25.856  -1.192   4.435  1.00  0.00     0.150 C 
BRANCH  21  22
HETATM   22  C17 UNL     1      25.253  -0.027   5.202  1.00  0.00     0.183 C 
BRANCH  22  23
HETATM   23  O5  UNL     1      24.145  -0.529   5.881  1.00  0.00    -0.399 OA
ATOM     24  H5  UNL     1      23.777  -1.211   5.332  1.00  0.00     0.209 HD
ENDBRANCH  22  23
ENDBRANCH  21  22
ENDBRANCH  20  21
BRANCH  20  25
HETATM   25  C18 UNL     1      27.396   0.595   3.671  1.00  0.00     0.150 C 
BRANCH  25  26
HETATM   26  C19 UNL     1      28.802   0.683   4.243  1.00  0.00     0.183 C 
BRANCH  26  27
HETATM   27  O6  UNL     1      29.686   1.100   3.253  1.00  0.00    -0.399 OA
ATOM     28  H6  UNL     1      30.355   1.656   3.635  1.00  0.00     0.209 HD
ENDBRANCH  26  27
ENDBRANCH  25  26
ENDBRANCH  20  25
ENDBRANCH  16  20
BRANCH  14  29
HETATM   29  N5  UNL     1      28.700  -1.972  -0.743  1.00  0.00    -0.387 N 
ATOM     30  H5  UNL     1      28.314  -2.528  -1.506  1.00  0.00     0.159 HD
BRANCH  29  31
HETATM   31  C12 UNL     1      29.489  -0.762  -1.031  1.00  0.00     0.146 C 
BRANCH  31  32
HETATM   32  C13 UNL     1      30.801  -0.851  -0.268  1.00  0.00     0.183 C 
BRANCH  32  33
HETATM   33  O4  UNL     1      30.957   0.245   0.579  1.00  0.00    -0.399 OA
ATOM     34  H4  UNL     1      31.533   0.033   1.304  1.00  0.00     0.209 HD
ENDBRANCH  32  33
ENDBRANCH  31  32
ENDBRANCH  29  31
ENDBRANCH  14  29
BRANCH   1  35
HETATM   35  N1  UNL     1      30.657  -8.095   1.846  1.00  0.00    -0.391 N 
HETATM   36  C1  UNL     1      32.077  -8.284   1.718  1.00  0.00     0.146 C 
ATOM     37  H1  UNL     1      30.062  -8.655   1.235  1.00  0.00     0.159 HD
ENDBRANCH   1  35
BRANCH   2  38
HETATM   38  C4  UNL     1      30.140  -8.719   4.631  1.00  0.00     0.272 C 
HETATM   39  N2  UNL     1      29.370  -9.883   4.433  1.00  0.00    -0.057 NA
HETATM   40  O1  UNL     1      31.171  -8.797   5.328  1.00  0.00    -0.271 OA
ENDBRANCH   2  38
TORSDOF 13
ENDMDL
MODEL 5
REMARK VINA RESULT: -6.355420847      3.160      6.993
REMARK  13 active torsions:
REMARK  status: ('A' for Active; 'I' for Inactive)
REMARK    1  A    between atoms: N1_2  and  C2_4 
REMARK    2  A    between atoms: C3_5  and  C4_6 
REMARK    3  A    between atoms: C11_20  and  N5_21 
REMARK    4  A    between atoms: N5_21  and  C12_23 
REMARK    5  A    between atoms: C12_23  and  C13_24 
REMARK    6  A    between atoms: C13_24  and  O4_25 
REMARK    7  A    between atoms: C15_28  and  N6_29 
REMARK    8  A    between atoms: N6_29  and  C16_30 
REMARK    9  A    between atoms: N6_29  and  C18_34 
REMARK   10  A    between atoms: C16_30  and  C17_31 
REMARK   11  A    between atoms: C17_31  and  O5_32 
REMARK   12  A    between atoms: C18_34  and  C19_35 
REMARK   13  A    between atoms: C19_35  and  O6_36 
ROOT
HETATM    1  C2  UNL     1      28.047  -3.222   1.603  1.00  0.00     0.078 A 
HETATM    2  C3  UNL     1      28.634  -2.607   0.545  1.00  0.00     0.126 A 
HETATM    3  C5  UNL     1      29.811  -3.102   0.028  1.00  0.00     0.265 A 
HETATM    4  O2  UNL     1      30.337  -2.500  -0.968  1.00  0.00    -0.267 OA
HETATM    5  N3  UNL     1      30.464  -4.197   0.505  1.00  0.00    -0.314 N 
HETATM    6  C6  UNL     1      31.693  -4.646  -0.083  1.00  0.00     0.160 C 
HETATM    7  C7  UNL     1      29.874  -4.810   1.564  1.00  0.00     0.094 A 
HETATM    8  C8  UNL     1      28.695  -4.352   2.117  1.00  0.00     0.092 A 
HETATM    9  N4  UNL     1      28.155  -4.983   3.168  1.00  0.00    -0.319 N 
ATOM     10  H4  UNL     1      27.284  -4.619   3.554  1.00  0.00     0.169 HD
HETATM   11  C9  UNL     1      28.703  -6.075   3.745  1.00  0.00     0.260 A 
HETATM   12  O3  UNL     1      28.112  -6.591   4.729  1.00  0.00    -0.267 OA
HETATM   13  C10 UNL     1      29.877  -6.567   3.229  1.00  0.00     0.087 A 
HETATM   14  C11 UNL     1      30.474  -7.669   3.791  1.00  0.00     0.050 A 
HETATM   15  C14 UNL     1      31.674  -8.089   3.200  1.00  0.00     0.078 A 
HETATM   16  C15 UNL     1      32.211  -7.434   2.124  1.00  0.00     0.105 A 
HETATM   17  N7  UNL     1      31.577  -6.377   1.635  1.00  0.00    -0.340 N 
ATOM     18  H7  UNL     1      31.985  -5.896   0.833  1.00  0.00     0.167 HD
HETATM   19  C20 UNL     1      30.457  -5.920   2.127  1.00  0.00     0.081 A 
ENDROOT
BRANCH  16  20
HETATM   20  N6  UNL     1      33.463  -7.914   1.590  1.00  0.00    -0.363 N 
BRANCH  20  21
HETATM   21  C16 UNL     1      33.442  -8.974   0.635  1.00  0.00     0.150 C 
BRANCH  21  22
HETATM   22  C17 UNL     1      34.361 -10.120   1.024  1.00  0.00     0.183 C 
BRANCH  22  23
HETATM   23  O5  UNL     1      35.362 -10.173   0.056  1.00  0.00    -0.399 OA
ATOM     24  H5  UNL     1      35.658  -9.281  -0.077  1.00  0.00     0.209 HD
ENDBRANCH  22  23
ENDBRANCH  21  22
ENDBRANCH  20  21
BRANCH  20  25
HETATM   25  C18 UNL     1      34.748  -7.342   1.968  1.00  0.00     0.150 C 
BRANCH  25  26
HETATM   26  C19 UNL     1      35.333  -6.535   0.819  1.00  0.00     0.183 C 
BRANCH  26  27
HETATM   27  O6  UNL     1      36.372  -7.246   0.227  1.00  0.00    -0.399 OA
ATOM     28  H6  UNL     1      37.119  -6.675   0.100  1.00  0.00     0.209 HD
ENDBRANCH  26  27
ENDBRANCH  25  26
ENDBRANCH  20  25
ENDBRANCH  16  20
BRANCH  14  29
HETATM   29  N5  UNL     1      29.961  -8.395   4.898  1.00  0.00    -0.387 N 
ATOM     30  H5  UNL     1      29.374  -7.931   5.590  1.00  0.00     0.159 HD
BRANCH  29  31
HETATM   31  C12 UNL     1      30.285  -9.824   5.036  1.00  0.00     0.146 C 
BRANCH  31  32
HETATM   32  C13 UNL     1      29.054 -10.635   4.668  1.00  0.00     0.183 C 
BRANCH  32  33
HETATM   33  O4  UNL     1      27.973 -10.291   5.479  1.00  0.00    -0.399 OA
ATOM     34  H4  UNL     1      28.128 -10.556   6.379  1.00  0.00     0.209 HD
ENDBRANCH  32  33
ENDBRANCH  31  32
ENDBRANCH  29  31
ENDBRANCH  14  29
BRANCH   1  35
HETATM   35  N1  UNL     1      26.848  -2.811   2.220  1.00  0.00    -0.391 N 
HETATM   36  C1  UNL     1      26.725  -1.927   3.348  1.00  0.00     0.146 C 
ATOM     37  H1  UNL     1      25.981  -3.178   1.827  1.00  0.00     0.159 HD
ENDBRANCH   1  35
BRANCH   2  38
HETATM   38  C4  UNL     1      28.037  -1.438  -0.040  1.00  0.00     0.272 C 
HETATM   39  N2  UNL     1      27.322  -1.526  -1.252  1.00  0.00    -0.057 NA
HETATM   40  O1  UNL     1      28.139  -0.325   0.512  1.00  0.00    -0.271 OA
ENDBRANCH   2  38
TORSDOF 13
ENDMDL
