MODEL 1
REMARK VINA RESULT: -6.565427719      0.000      0.000
REMARK  13 active torsions:
REMARK  status: ('A' for Active; 'I' for Inactive)
REMARK       I    between atoms: C1_4  and  N3_6 
REMARK    1  A    between atoms: N3_6  and  O1_8 
REMARK    2  A    between atoms: O1_8  and  C2_9 
REMARK    3  A    between atoms: C2_9  and  C3_10 
REMARK    4  A    between atoms: C3_10  and  N4_11 
REMARK    5  A    between atoms: N4_11  and  N5_12 
REMARK    6  A    between atoms: N4_11  and  C4_15 
REMARK    7  A    between atoms: N6_17  and  C6_18 
REMARK    8  A    between atoms: C7_21  and  N8_22 
REMARK    9  A    between atoms: C9_28  and  C10_29 
REMARK   10  A    between atoms: N10_35  and  C15_36 
REMARK   11  A    between atoms: C15_36  and  C16_37 
REMARK   12  A    between atoms: C16_37  and  C17_38 
REMARK   13  A    between atoms: C17_38  and  N11_39 
ROOT
HETATM    1  C6  UNL     1      31.078  -5.131   2.238  1.00  0.00     0.137 A 
HETATM    2  N7  UNL     1      31.990  -6.120   2.492  1.00  0.00    -0.176 N 
ATOM      3  H7  UNL     1      31.700  -6.912   3.065  1.00  0.00     0.186 HD
HETATM    4  C7  UNL     1      33.235  -6.099   2.027  1.00  0.00     0.677 A 
HETATM    5  N9  UNL     1      33.621  -5.068   1.278  1.00  0.00    -0.190 N 
ATOM      6  H9  UNL     1      34.578  -5.057   0.923  1.00  0.00     0.184 HD
HETATM    7  C8  UNL     1      32.811  -4.043   0.966  1.00  0.00     0.081 A 
HETATM    8  C9  UNL     1      33.218  -2.986   0.194  1.00  0.00     0.020 A 
HETATM    9  C14 UNL     1      32.331  -1.955  -0.093  1.00  0.00     0.108 A 
HETATM   10  N10 UNL     1      31.080  -1.968   0.370  1.00  0.00    -0.323 N 
HETATM   11  C18 UNL     1      30.706  -3.031   1.134  1.00  0.00     0.263 A 
HETATM   12  O3  UNL     1      29.527  -2.995   1.542  1.00  0.00    -0.267 OA
HETATM   13  C19 UNL     1      31.506  -4.083   1.464  1.00  0.00     0.105 A 
ENDROOT
BRANCH   1  14
HETATM   14  N6  UNL     1      29.775  -5.220   2.764  1.00  0.00    -0.363 N 
HETATM   15  C5  UNL     1      29.075  -4.790   3.937  1.00  0.00     0.147 C 
HETATM   16  C4  UNL     1      27.913  -5.705   3.658  1.00  0.00     0.115 C 
HETATM   17  C20 UNL     1      28.581  -5.879   2.310  1.00  0.00     0.147 C 
BRANCH  16  18
HETATM   18  N4  UNL     1      26.628  -5.078   3.567  1.00  0.00    -0.228 NA
BRANCH  18  19
HETATM   19  C3  UNL     1      26.562  -3.712   3.956  1.00  0.00     0.142 C 
BRANCH  19  20
HETATM   20  C2  UNL     1      25.700  -2.819   3.137  1.00  0.00     0.217 C 
BRANCH  20  21
HETATM   21  O1  UNL     1      24.786  -3.433   2.326  1.00  0.00    -0.277 OA
BRANCH  21  22
HETATM   22  N3  UNL     1      23.718  -3.888   2.978  1.00  0.00    -0.239 N 
HETATM   23  C1  UNL     1      22.376  -3.508   2.688  1.00  0.00     0.205 C 
HETATM   24  N1  UNL     1      21.918  -2.429   3.237  1.00  0.00    -0.372 N 
HETATM   25  N2  UNL     1      21.546  -4.270   1.830  1.00  0.00    -0.062 NA
ATOM     26  H12 UNL     1      20.958  -2.156   3.029  1.00  0.00     0.158 HD
ATOM     27  H11 UNL     1      22.517  -1.880   3.855  1.00  0.00     0.158 HD
ATOM     28  H3  UNL     1      23.871  -4.553   3.735  1.00  0.00     0.197 HD
ENDBRANCH  21  22
ENDBRANCH  20  21
ENDBRANCH  19  20
ENDBRANCH  18  19
BRANCH  18  29
HETATM   29  N5  UNL     1      25.696  -5.799   4.316  1.00  0.00    -0.363 NA
ATOM     30  H52 UNL     1      24.841  -5.924   3.775  1.00  0.00     0.171 HD
ATOM     31  H51 UNL     1      26.144  -6.648   4.660  1.00  0.00     0.171 HD
ENDBRANCH  18  29
ENDBRANCH  16  18
ENDBRANCH   1  14
BRANCH   4  32
HETATM   32  N8  UNL     1      34.041  -7.046   2.293  1.00  0.00    -0.234 N 
ATOM     33  H82 UNL     1      34.223  -7.319   3.259  1.00  0.00     0.174 HD
ATOM     34  H81 UNL     1      34.517  -7.548   1.544  1.00  0.00     0.174 HD
ENDBRANCH   4  32
BRANCH   8  35
HETATM   35  C10 UNL     1      34.577  -2.996  -0.294  1.00  0.00     0.002 A 
HETATM   36  C11 UNL     1      35.044  -3.723  -1.362  1.00  0.00     0.039 A 
HETATM   37  C12 UNL     1      36.401  -3.448  -1.494  1.00  0.00     0.142 A 
HETATM   38  O2  UNL     1      36.730  -2.596  -0.549  1.00  0.00    -0.334 OA
HETATM   39  C13 UNL     1      35.663  -2.301   0.192  1.00  0.00     0.153 A 
ENDBRANCH   8  35
BRANCH  10  40
HETATM   40  C15 UNL     1      30.160  -0.889   0.069  1.00  0.00     0.133 C 
BRANCH  40  41
HETATM   41  C16 UNL     1      29.425  -1.065  -1.216  1.00  0.00     0.047 C 
BRANCH  41  42
HETATM   42  C17 UNL     1      27.957  -1.267  -0.873  1.00  0.00     0.231 C 
BRANCH  42  43
HETATM   43  N11 UNL     1      27.583  -2.655  -0.872  1.00  0.00    -0.079 N 
ATOM     44 3H11 UNL     1      27.124  -2.913  -1.745  1.00  0.00     0.274 HD
ATOM     45 2H11 UNL     1      28.404  -3.258  -0.937  1.00  0.00     0.274 HD
ATOM     46 1H11 UNL     1      27.008  -2.900  -0.067  1.00  0.00     0.274 HD
ENDBRANCH  42  43
ENDBRANCH  41  42
ENDBRANCH  40  41
ENDBRANCH  10  40
TORSDOF 13
ENDMDL
MODEL 2
REMARK VINA RESULT: -6.244712224      3.017      5.905
REMARK  13 active torsions:
REMARK  status: ('A' for Active; 'I' for Inactive)
REMARK       I    between atoms: C1_4  and  N3_6 
REMARK    1  A    between atoms: N3_6  and  O1_8 
REMARK    2  A    between atoms: O1_8  and  C2_9 
REMARK    3  A    between atoms: C2_9  and  C3_10 
REMARK    4  A    between atoms: C3_10  and  N4_11 
REMARK    5  A    between atoms: N4_11  and  N5_12 
REMARK    6  A    between atoms: N4_11  and  C4_15 
REMARK    7  A    between atoms: N6_17  and  C6_18 
REMARK    8  A    between atoms: C7_21  and  N8_22 
REMARK    9  A    between atoms: C9_28  and  C10_29 
REMARK   10  A    between atoms: N10_35  and  C15_36 
REMARK   11  A    between atoms: C15_36  and  C16_37 
REMARK   12  A    between atoms: C16_37  and  C17_38 
REMARK   13  A    between atoms: C17_38  and  N11_39 
ROOT
HETATM    1  C6  UNL     1      33.471  -4.805   0.346  1.00  0.00     0.137 A 
HETATM    2  N7  UNL     1      34.762  -4.880  -0.104  1.00  0.00    -0.176 N 
ATOM      3  H7  UNL     1      35.153  -4.074  -0.592  1.00  0.00     0.186 HD
HETATM    4  C7  UNL     1      35.530  -5.951   0.064  1.00  0.00     0.677 A 
HETATM    5  N9  UNL     1      35.026  -7.007   0.700  1.00  0.00    -0.190 N 
ATOM      6  H9  UNL     1      35.621  -7.826   0.826  1.00  0.00     0.184 HD
HETATM    7  C8  UNL     1      33.773  -7.044   1.182  1.00  0.00     0.081 A 
HETATM    8  C9  UNL     1      33.264  -8.136   1.835  1.00  0.00     0.020 A 
HETATM    9  C14 UNL     1      31.958  -8.112   2.312  1.00  0.00     0.108 A 
HETATM   10  N10 UNL     1      31.180  -7.041   2.148  1.00  0.00    -0.323 N 
HETATM   11  C18 UNL     1      31.715  -5.973   1.495  1.00  0.00     0.263 A 
HETATM   12  O3  UNL     1      30.946  -4.997   1.367  1.00  0.00    -0.267 OA
HETATM   13  C19 UNL     1      32.980  -5.908   0.996  1.00  0.00     0.105 A 
ENDROOT
BRANCH   1  14
HETATM   14  N6  UNL     1      32.715  -3.636   0.133  1.00  0.00    -0.363 N 
HETATM   15  C5  UNL     1      31.789  -3.138  -0.838  1.00  0.00     0.147 C 
HETATM   16  C4  UNL     1      31.902  -1.730  -0.319  1.00  0.00     0.115 C 
HETATM   17  C20 UNL     1      32.631  -2.385   0.835  1.00  0.00     0.147 C 
BRANCH  16  18
HETATM   18  N4  UNL     1      30.673  -1.106   0.079  1.00  0.00    -0.228 NA
BRANCH  18  19
HETATM   19  C3  UNL     1      29.709  -0.899  -0.945  1.00  0.00     0.142 C 
BRANCH  19  20
HETATM   20  C2  UNL     1      28.379  -1.538  -0.757  1.00  0.00     0.217 C 
BRANCH  20  21
HETATM   21  O1  UNL     1      28.083  -2.581  -1.590  1.00  0.00    -0.277 OA
BRANCH  21  22
HETATM   22  N3  UNL     1      27.328  -3.519  -1.022  1.00  0.00    -0.239 N 
HETATM   23  C1  UNL     1      27.743  -4.335   0.069  1.00  0.00     0.205 C 
HETATM   24  N1  UNL     1      28.411  -5.411  -0.197  1.00  0.00    -0.372 N 
HETATM   25  N2  UNL     1      27.448  -4.002   1.414  1.00  0.00    -0.062 NA
ATOM     26  H12 UNL     1      28.708  -5.996   0.585  1.00  0.00     0.158 HD
ATOM     27  H11 UNL     1      28.623  -5.651  -1.166  1.00  0.00     0.158 HD
ATOM     28  H3  UNL     1      26.389  -3.663  -1.394  1.00  0.00     0.197 HD
ENDBRANCH  21  22
ENDBRANCH  20  21
ENDBRANCH  19  20
ENDBRANCH  18  19
BRANCH  18  29
HETATM   29  N5  UNL     1      30.943   0.119   0.690  1.00  0.00    -0.363 NA
ATOM     30  H52 UNL     1      31.635  -0.009   1.429  1.00  0.00     0.171 HD
ATOM     31  H51 UNL     1      31.173   0.799  -0.033  1.00  0.00     0.171 HD
ENDBRANCH  18  29
ENDBRANCH  16  18
ENDBRANCH   1  14
BRANCH   4  32
HETATM   32  N8  UNL     1      36.724  -5.966  -0.374  1.00  0.00    -0.234 N 
ATOM     33  H82 UNL     1      37.165  -5.110  -0.712  1.00  0.00     0.174 HD
ATOM     34  H81 UNL     1      37.259  -6.834  -0.395  1.00  0.00     0.174 HD
ENDBRANCH   4  32
BRANCH   8  35
HETATM   35  C10 UNL     1      34.127  -9.282   2.000  1.00  0.00     0.002 A 
HETATM   36  C11 UNL     1      34.260 -10.323   1.114  1.00  0.00     0.039 A 
HETATM   37  C12 UNL     1      35.186 -11.212   1.651  1.00  0.00     0.142 A 
HETATM   38  O2  UNL     1      35.586 -10.725   2.803  1.00  0.00    -0.334 OA
HETATM   39  C13 UNL     1      34.973  -9.568   3.049  1.00  0.00     0.153 A 
ENDBRANCH   8  35
BRANCH  10  40
HETATM   40  C15 UNL     1      29.819  -7.022   2.645  1.00  0.00     0.133 C 
BRANCH  40  41
HETATM   41  C16 UNL     1      29.721  -6.888   4.127  1.00  0.00     0.047 C 
BRANCH  41  42
HETATM   42  C17 UNL     1      28.787  -5.722   4.414  1.00  0.00     0.231 C 
BRANCH  42  43
HETATM   43  N11 UNL     1      29.257  -4.493   3.835  1.00  0.00    -0.079 N 
ATOM     44 3H11 UNL     1      30.258  -4.371   3.990  1.00  0.00     0.274 HD
ATOM     45 2H11 UNL     1      29.256  -4.541   2.816  1.00  0.00     0.274 HD
ATOM     46 1H11 UNL     1      28.733  -3.684   4.168  1.00  0.00     0.274 HD
ENDBRANCH  42  43
ENDBRANCH  41  42
ENDBRANCH  40  41
ENDBRANCH  10  40
TORSDOF 13
ENDMDL
MODEL 3
REMARK VINA RESULT: -6.211869250      2.855      7.036
REMARK  13 active torsions:
REMARK  status: ('A' for Active; 'I' for Inactive)
REMARK       I    between atoms: C1_4  and  N3_6 
REMARK    1  A    between atoms: N3_6  and  O1_8 
REMARK    2  A    between atoms: O1_8  and  C2_9 
REMARK    3  A    between atoms: C2_9  and  C3_10 
REMARK    4  A    between atoms: C3_10  and  N4_11 
REMARK    5  A    between atoms: N4_11  and  N5_12 
REMARK    6  A    between atoms: N4_11  and  C4_15 
REMARK    7  A    between atoms: N6_17  and  C6_18 
REMARK    8  A    between atoms: C7_21  and  N8_22 
REMARK    9  A    between atoms: C9_28  and  C10_29 
REMARK   10  A    between atoms: N10_35  and  C15_36 
REMARK   11  A    between atoms: C15_36  and  C16_37 
REMARK   12  A    between atoms: C16_37  and  C17_38 
REMARK   13  A    between atoms: C17_38  and  N11_39 
ROOT
HETATM    1  C6  UNL     1      31.125  -6.038   2.360  1.00  0.00     0.137 A 
HETATM    2  N7  UNL     1      31.978  -7.108   2.403  1.00  0.00    -0.176 N 
ATOM      3  H7  UNL     1      32.737  -7.151   1.722  1.00  0.00     0.186 HD
HETATM    4  C7  UNL     1      31.867  -8.093   3.288  1.00  0.00     0.677 A 
HETATM    5  N9  UNL     1      30.879  -8.044   4.179  1.00  0.00    -0.190 N 
ATOM      6  H9  UNL     1      30.798  -8.803   4.856  1.00  0.00     0.184 HD
HETATM    7  C8  UNL     1      29.984  -7.043   4.229  1.00  0.00     0.081 A 
HETATM    8  C9  UNL     1      28.970  -7.002   5.151  1.00  0.00     0.020 A 
HETATM    9  C14 UNL     1      28.076  -5.938   5.151  1.00  0.00     0.108 A 
HETATM   10  N10 UNL     1      28.181  -4.944   4.266  1.00  0.00    -0.323 N 
HETATM   11  C18 UNL     1      29.198  -5.014   3.364  1.00  0.00     0.263 A 
HETATM   12  O3  UNL     1      29.252  -4.062   2.559  1.00  0.00    -0.267 OA
HETATM   13  C19 UNL     1      30.118  -6.016   3.291  1.00  0.00     0.105 A 
ENDROOT
BRANCH   1  14
HETATM   14  N6  UNL     1      31.304  -5.029   1.395  1.00  0.00    -0.363 N 
HETATM   15  C5  UNL     1      30.743  -4.665   0.129  1.00  0.00     0.147 C 
HETATM   16  C4  UNL     1      31.873  -3.717  -0.172  1.00  0.00     0.115 C 
HETATM   17  C20 UNL     1      32.232  -3.938   1.282  1.00  0.00     0.147 C 
BRANCH  16  18
HETATM   18  N4  UNL     1      31.498  -2.362  -0.455  1.00  0.00    -0.228 NA
BRANCH  18  19
HETATM   19  C3  UNL     1      30.500  -2.177  -1.450  1.00  0.00     0.142 C 
BRANCH  19  20
HETATM   20  C2  UNL     1      29.296  -1.397  -1.060  1.00  0.00     0.217 C 
BRANCH  20  21
HETATM   21  O1  UNL     1      28.764  -1.674   0.168  1.00  0.00    -0.277 OA
BRANCH  21  22
HETATM   22  N3  UNL     1      28.948  -0.703   1.060  1.00  0.00    -0.239 N 
HETATM   23  C1  UNL     1      30.124  -0.549   1.850  1.00  0.00     0.205 C 
HETATM   24  N1  UNL     1      30.204  -1.215   2.957  1.00  0.00    -0.372 N 
HETATM   25  N2  UNL     1      31.187   0.302   1.460  1.00  0.00    -0.062 NA
ATOM     26  H12 UNL     1      31.046  -1.104   3.522  1.00  0.00     0.158 HD
ATOM     27  H11 UNL     1      29.438  -1.828   3.238  1.00  0.00     0.158 HD
ATOM     28  H3  UNL     1      28.198  -0.025   1.187  1.00  0.00     0.197 HD
ENDBRANCH  21  22
ENDBRANCH  20  21
ENDBRANCH  19  20
ENDBRANCH  18  19
BRANCH  18  29
HETATM   29  N5  UNL     1      32.627  -1.625  -0.815  1.00  0.00    -0.363 NA
ATOM     30  H52 UNL     1      32.586  -1.394  -1.807  1.00  0.00     0.171 HD
ATOM     31  H51 UNL     1      32.723  -0.842  -0.170  1.00  0.00     0.171 HD
ENDBRANCH  18  29
ENDBRANCH  16  18
ENDBRANCH   1  14
BRANCH   4  32
HETATM   32  N8  UNL     1      32.688  -9.064   3.282  1.00  0.00    -0.234 N 
ATOM     33  H82 UNL     1      33.208  -9.301   2.437  1.00  0.00     0.174 HD
ATOM     34  H81 UNL     1      32.841  -9.620   4.123  1.00  0.00     0.174 HD
ENDBRANCH   4  32
BRANCH   8  35
HETATM   35  C10 UNL     1      28.879  -8.089   6.097  1.00  0.00     0.002 A 
HETATM   36  C11 UNL     1      29.295  -8.054   7.406  1.00  0.00     0.039 A 
HETATM   37  C12 UNL     1      29.028  -9.301   7.962  1.00  0.00     0.142 A 
HETATM   38  O2  UNL     1      28.478 -10.045   7.030  1.00  0.00    -0.334 OA
HETATM   39  C13 UNL     1      28.373  -9.354   5.896  1.00  0.00     0.153 A 
ENDBRANCH   8  35
BRANCH  10  40
HETATM   40  C15 UNL     1      27.245  -3.838   4.270  1.00  0.00     0.133 C 
BRANCH  40  41
HETATM   41  C16 UNL     1      25.948  -4.143   3.601  1.00  0.00     0.047 C 
BRANCH  41  42
HETATM   42  C17 UNL     1      25.740  -3.094   2.520  1.00  0.00     0.231 C 
BRANCH  42  43
HETATM   43  N11 UNL     1      26.557  -3.336   1.362  1.00  0.00    -0.079 N 
ATOM     44 3H11 UNL     1      26.953  -4.276   1.379  1.00  0.00     0.274 HD
ATOM     45 2H11 UNL     1      25.988  -3.415   0.519  1.00  0.00     0.274 HD
ATOM     46 1H11 UNL     1      27.287  -2.632   1.250  1.00  0.00     0.274 HD
ENDBRANCH  42  43
ENDBRANCH  41  42
ENDBRANCH  40  41
ENDBRANCH  10  40
TORSDOF 13
ENDMDL
MODEL 4
REMARK VINA RESULT: -6.191225931      3.002      6.380
REMARK  13 active torsions:
REMARK  status: ('A' for Active; 'I' for Inactive)
REMARK       I    between atoms: C1_4  and  N3_6 
REMARK    1  A    between atoms: N3_6  and  O1_8 
REMARK    2  A    between atoms: O1_8  and  C2_9 
REMARK    3  A    between atoms: C2_9  and  C3_10 
REMARK    4  A    between atoms: C3_10  and  N4_11 
REMARK    5  A    between atoms: N4_11  and  N5_12 
REMARK    6  A    between atoms: N4_11  and  C4_15 
REMARK    7  A    between atoms: N6_17  and  C6_18 
REMARK    8  A    between atoms: C7_21  and  N8_22 
REMARK    9  A    between atoms: C9_28  and  C10_29 
REMARK   10  A    between atoms: N10_35  and  C15_36 
REMARK   11  A    between atoms: C15_36  and  C16_37 
REMARK   12  A    between atoms: C16_37  and  C17_38 
REMARK   13  A    between atoms: C17_38  and  N11_39 
ROOT
HETATM    1  C6  UNL     1      31.460  -5.511   1.137  1.00  0.00     0.137 A 
HETATM    2  N7  UNL     1      32.440  -6.332   0.647  1.00  0.00    -0.176 N 
ATOM      3  H7  UNL     1      33.004  -6.000  -0.136  1.00  0.00     0.186 HD
HETATM    4  C7  UNL     1      32.695  -7.538   1.143  1.00  0.00     0.677 A 
HETATM    5  N9  UNL     1      31.964  -7.978   2.164  1.00  0.00    -0.190 N 
ATOM      6  H9  UNL     1      32.164  -8.905   2.541  1.00  0.00     0.184 HD
HETATM    7  C8  UNL     1      30.976  -7.260   2.724  1.00  0.00     0.081 A 
HETATM    8  C9  UNL     1      30.229  -7.721   3.776  1.00  0.00     0.020 A 
HETATM    9  C14 UNL     1      29.221  -6.928   4.311  1.00  0.00     0.108 A 
HETATM   10  N10 UNL     1      28.959  -5.715   3.820  1.00  0.00    -0.323 N 
HETATM   11  C18 UNL     1      29.718  -5.285   2.775  1.00  0.00     0.263 A 
HETATM   12  O3  UNL     1      29.432  -4.146   2.353  1.00  0.00    -0.267 OA
HETATM   13  C19 UNL     1      30.724  -5.992   2.190  1.00  0.00     0.105 A 
ENDROOT
BRANCH   1  14
HETATM   14  N6  UNL     1      31.246  -4.243   0.564  1.00  0.00    -0.363 N 
HETATM   15  C5  UNL     1      30.551  -3.694  -0.560  1.00  0.00     0.147 C 
HETATM   16  C4  UNL     1      31.273  -2.379  -0.448  1.00  0.00     0.115 C 
HETATM   17  C20 UNL     1      31.737  -2.931   0.883  1.00  0.00     0.147 C 
BRANCH  16  18
HETATM   18  N4  UNL     1      30.445  -1.217  -0.312  1.00  0.00    -0.228 NA
BRANCH  18  19
HETATM   19  C3  UNL     1      29.311  -1.146  -1.167  1.00  0.00     0.142 C 
BRANCH  19  20
HETATM   20  C2  UNL     1      27.974  -1.207  -0.518  1.00  0.00     0.217 C 
BRANCH  20  21
HETATM   21  O1  UNL     1      27.824  -0.486   0.634  1.00  0.00    -0.277 OA
BRANCH  21  22
HETATM   22  N3  UNL     1      28.367  -1.068   1.701  1.00  0.00    -0.239 N 
HETATM   23  C1  UNL     1      28.997  -0.364   2.768  1.00  0.00     0.205 C 
HETATM   24  N1  UNL     1      30.246  -0.051   2.635  1.00  0.00    -0.372 N 
HETATM   25  N2  UNL     1      28.302  -0.008   3.949  1.00  0.00    -0.062 NA
ATOM     26  H12 UNL     1      30.697   0.452   3.399  1.00  0.00     0.158 HD
ATOM     27  H11 UNL     1      30.747  -0.308   1.784  1.00  0.00     0.158 HD
ATOM     28  H3  UNL     1      28.331  -2.085   1.758  1.00  0.00     0.197 HD
ENDBRANCH  21  22
ENDBRANCH  20  21
ENDBRANCH  19  20
ENDBRANCH  18  19
BRANCH  18  29
HETATM   29  N5  UNL     1      31.213  -0.066  -0.495  1.00  0.00    -0.363 NA
ATOM     30  H52 UNL     1      31.715  -0.124  -1.381  1.00  0.00     0.171 HD
ATOM     31  H51 UNL     1      30.613   0.748  -0.367  1.00  0.00     0.171 HD
ENDBRANCH  18  29
ENDBRANCH  16  18
ENDBRANCH   1  14
BRANCH   4  32
HETATM   32  N8  UNL     1      33.620  -8.258   0.648  1.00  0.00    -0.234 N 
ATOM     33  H82 UNL     1      34.236  -7.889  -0.075  1.00  0.00     0.174 HD
ATOM     34  H81 UNL     1      33.759  -9.216   0.968  1.00  0.00     0.174 HD
ENDBRANCH   4  32
BRANCH   8  35
HETATM   35  C10 UNL     1      30.533  -9.037   4.288  1.00  0.00     0.002 A 
HETATM   36  C11 UNL     1      31.538  -9.344   5.173  1.00  0.00     0.039 A 
HETATM   37  C12 UNL     1      31.486 -10.714   5.405  1.00  0.00     0.142 A 
HETATM   38  O2  UNL     1      30.497 -11.203   4.692  1.00  0.00    -0.334 OA
HETATM   39  C13 UNL     1      29.901 -10.228   4.007  1.00  0.00     0.153 A 
ENDBRANCH   8  35
BRANCH  10  40
HETATM   40  C15 UNL     1      27.905  -4.893   4.381  1.00  0.00     0.133 C 
BRANCH  40  41
HETATM   41  C16 UNL     1      26.544  -5.227   3.870  1.00  0.00     0.047 C 
BRANCH  41  42
HETATM   42  C17 UNL     1      25.986  -3.970   3.220  1.00  0.00     0.231 C 
BRANCH  42  43
HETATM   43  N11 UNL     1      26.365  -3.859   1.837  1.00  0.00    -0.079 N 
ATOM     44 3H11 UNL     1      26.889  -3.000   1.667  1.00  0.00     0.274 HD
ATOM     45 2H11 UNL     1      27.087  -4.539   1.597  1.00  0.00     0.274 HD
ATOM     46 1H11 UNL     1      25.565  -3.932   1.210  1.00  0.00     0.274 HD
ENDBRANCH  42  43
ENDBRANCH  41  42
ENDBRANCH  40  41
ENDBRANCH  10  40
TORSDOF 13
ENDMDL
MODEL 5
REMARK VINA RESULT: -6.143867785      3.221      8.625
REMARK  13 active torsions:
REMARK  status: ('A' for Active; 'I' for Inactive)
REMARK       I    between atoms: C1_4  and  N3_6 
REMARK    1  A    between atoms: N3_6  and  O1_8 
REMARK    2  A    between atoms: O1_8  and  C2_9 
REMARK    3  A    between atoms: C2_9  and  C3_10 
REMARK    4  A    between atoms: C3_10  and  N4_11 
REMARK    5  A    between atoms: N4_11  and  N5_12 
REMARK    6  A    between atoms: N4_11  and  C4_15 
REMARK    7  A    between atoms: N6_17  and  C6_18 
REMARK    8  A    between atoms: C7_21  and  N8_22 
REMARK    9  A    between atoms: C9_28  and  C10_29 
REMARK   10  A    between atoms: N10_35  and  C15_36 
REMARK   11  A    between atoms: C15_36  and  C16_37 
REMARK   12  A    between atoms: C16_37  and  C17_38 
REMARK   13  A    between atoms: C17_38  and  N11_39 
ROOT
HETATM    1  C6  UNL     1      26.810  -2.521   1.952  1.00  0.00     0.137 A 
HETATM    2  N7  UNL     1      25.571  -3.085   2.094  1.00  0.00    -0.176 N 
ATOM      3  H7  UNL     1      25.264  -3.764   1.398  1.00  0.00     0.186 HD
HETATM    4  C7  UNL     1      24.747  -2.791   3.095  1.00  0.00     0.677 A 
HETATM    5  N9  UNL     1      25.140  -1.905   4.008  1.00  0.00    -0.190 N 
ATOM      6  H9  UNL     1      24.504  -1.683   4.774  1.00  0.00     0.184 HD
HETATM    7  C8  UNL     1      26.333  -1.289   3.968  1.00  0.00     0.081 A 
HETATM    8  C9  UNL     1      26.729  -0.378   4.912  1.00  0.00     0.020 A 
HETATM    9  C14 UNL     1      27.977   0.224   4.815  1.00  0.00     0.108 A 
HETATM   10  N10 UNL     1      28.810  -0.065   3.813  1.00  0.00    -0.323 N 
HETATM   11  C18 UNL     1      28.389  -0.974   2.891  1.00  0.00     0.263 A 
HETATM   12  O3  UNL     1      29.204  -1.209   1.976  1.00  0.00    -0.267 OA
HETATM   13  C19 UNL     1      27.186  -1.612   2.908  1.00  0.00     0.105 A 
ENDROOT
BRANCH   1  14
HETATM   14  N6  UNL     1      27.630  -2.881   0.866  1.00  0.00    -0.363 N 
HETATM   15  C5  UNL     1      27.929  -2.386  -0.444  1.00  0.00     0.147 C 
HETATM   16  C4  UNL     1      28.592  -3.674  -0.851  1.00  0.00     0.115 C 
HETATM   17  C20 UNL     1      28.497  -4.002   0.625  1.00  0.00     0.147 C 
BRANCH  16  18
HETATM   18  N4  UNL     1      29.945  -3.566  -1.312  1.00  0.00    -0.228 NA
BRANCH  18  19
HETATM   19  C3  UNL     1      30.400  -2.258  -1.635  1.00  0.00     0.142 C 
BRANCH  19  20
HETATM   20  C2  UNL     1      31.869  -2.031  -1.611  1.00  0.00     0.217 C 
BRANCH  20  21
HETATM   21  O1  UNL     1      32.657  -3.148  -1.646  1.00  0.00    -0.277 OA
BRANCH  21  22
HETATM   22  N3  UNL     1      32.931  -3.644  -0.441  1.00  0.00    -0.239 N 
HETATM   23  C1  UNL     1      32.932  -5.033  -0.123  1.00  0.00     0.205 C 
HETATM   24  N1  UNL     1      31.805  -5.581   0.203  1.00  0.00    -0.372 N 
HETATM   25  N2  UNL     1      34.114  -5.812  -0.153  1.00  0.00    -0.062 NA
ATOM     26  H12 UNL     1      31.805  -6.575   0.430  1.00  0.00     0.158 HD
ATOM     27  H11 UNL     1      30.954  -5.019   0.224  1.00  0.00     0.158 HD
ATOM     28  H3  UNL     1      33.156  -2.985   0.304  1.00  0.00     0.197 HD
ENDBRANCH  21  22
ENDBRANCH  20  21
ENDBRANCH  19  20
ENDBRANCH  18  19
BRANCH  18  29
HETATM   29  N5  UNL     1      30.131  -4.389  -2.423  1.00  0.00    -0.363 NA
ATOM     30  H52 UNL     1      30.120  -3.828  -3.274  1.00  0.00     0.171 HD
ATOM     31  H51 UNL     1      30.962  -4.960  -2.269  1.00  0.00     0.171 HD
ENDBRANCH  18  29
ENDBRANCH  16  18
ENDBRANCH   1  14
BRANCH   4  32
HETATM   32  N8  UNL     1      23.606  -3.347   3.178  1.00  0.00    -0.234 N 
ATOM     33  H82 UNL     1      23.494  -4.236   3.665  1.00  0.00     0.174 HD
ATOM     34  H81 UNL     1      22.785  -2.911   2.759  1.00  0.00     0.174 HD
ENDBRANCH   4  32
BRANCH   8  35
HETATM   35  C10 UNL     1      25.809  -0.083   5.986  1.00  0.00     0.002 A 
HETATM   36  C11 UNL     1      25.783  -0.695   7.215  1.00  0.00     0.039 A 
HETATM   37  C12 UNL     1      24.750  -0.119   7.947  1.00  0.00     0.142 A 
HETATM   38  O2  UNL     1      24.185   0.794   7.191  1.00  0.00    -0.334 OA
HETATM   39  C13 UNL     1      24.792   0.846   6.005  1.00  0.00     0.153 A 
ENDBRANCH   8  35
BRANCH  10  40
HETATM   40  C15 UNL     1      30.111   0.567   3.716  1.00  0.00     0.133 C 
BRANCH  40  41
HETATM   41  C16 UNL     1      31.105   0.056   4.702  1.00  0.00     0.047 C 
BRANCH  41  42
HETATM   42  C17 UNL     1      32.236  -0.583   3.912  1.00  0.00     0.231 C 
BRANCH  42  43
HETATM   43  N11 UNL     1      32.122  -0.336   2.500  1.00  0.00    -0.079 N 
ATOM     44 3H11 UNL     1      32.492   0.582   2.256  1.00  0.00     0.274 HD
ATOM     45 2H11 UNL     1      32.772  -0.919   1.970  1.00  0.00     0.274 HD
ATOM     46 1H11 UNL     1      31.166  -0.449   2.164  1.00  0.00     0.274 HD
ENDBRANCH  42  43
ENDBRANCH  41  42
ENDBRANCH  40  41
ENDBRANCH  10  40
TORSDOF 13
ENDMDL
