MODEL 1
REMARK VINA RESULT: -4.503177696      0.000      0.000
REMARK  2 active torsions:
REMARK  status: ('A' for Active; 'I' for Inactive)
REMARK    1  A    between atoms: C2_2  and  C3_4 
REMARK    2  A    between atoms: N1_8  and  C7_9 
ROOT
HETATM    1  C3  UNL     1     -13.459  35.711  97.383  1.00  0.00     0.154 C 
HETATM    2  C4  UNL     1     -13.192  34.411  96.670  1.00  0.00     0.035 C 
HETATM    3  C5  UNL     1     -14.574  33.982  96.175  1.00  0.00     0.022 C 
HETATM    4  C6  UNL     1     -15.513  35.083  96.659  1.00  0.00     0.124 C 
HETATM    5  N1  UNL     1     -14.598  36.227  96.655  1.00  0.00    -0.366 N 
ENDROOT
BRANCH   5   6
HETATM    6  C7  UNL     1     -14.832  37.484  96.070  1.00  0.00     0.171 C 
HETATM    7  N2  UNL     1     -15.765  37.719  95.208  1.00  0.00    -0.395 N 
ATOM      8  H22 UNL     1     -16.361  36.933  94.947  1.00  0.00     0.156 HD
ATOM      9  H21 UNL     1     -15.935  38.631  94.784  1.00  0.00     0.156 HD
ENDBRANCH   5   6
BRANCH   1  10
HETATM   10  C2  UNL     1     -12.325  36.609  97.459  1.00  0.00     0.145 C 
HETATM   11  C1  UNL     1     -11.337  36.636  96.353  1.00  0.00     0.093 C 
HETATM   12  O1  UNL     1     -12.138  37.352  98.392  1.00  0.00    -0.296 OA
ENDBRANCH   1  10
TORSDOF 2
ENDMDL
MODEL 2
REMARK VINA RESULT: -4.466206771      2.171      3.939
REMARK  2 active torsions:
REMARK  status: ('A' for Active; 'I' for Inactive)
REMARK    1  A    between atoms: C2_2  and  C3_4 
REMARK    2  A    between atoms: N1_8  and  C7_9 
ROOT
HETATM    1  C3  UNL     1     -14.343  35.922  97.165  1.00  0.00     0.154 C 
HETATM    2  C4  UNL     1     -14.740  37.214  96.500  1.00  0.00     0.035 C 
HETATM    3  C5  UNL     1     -13.477  38.070  96.594  1.00  0.00     0.022 C 
HETATM    4  C6  UNL     1     -12.466  37.182  97.315  1.00  0.00     0.124 C 
HETATM    5  N1  UNL     1     -12.925  35.860  96.884  1.00  0.00    -0.366 N 
ENDROOT
BRANCH   5   6
HETATM    6  C7  UNL     1     -12.132  34.834  96.341  1.00  0.00     0.171 C 
HETATM    7  N2  UNL     1     -11.878  33.719  96.942  1.00  0.00    -0.395 N 
ATOM      8  H22 UNL     1     -12.287  33.592  97.869  1.00  0.00     0.156 HD
ATOM      9  H21 UNL     1     -11.303  32.975  96.549  1.00  0.00     0.156 HD
ENDBRANCH   5   6
BRANCH   1  10
HETATM   10  C2  UNL     1     -15.100  34.761  96.743  1.00  0.00     0.145 C 
HETATM   11  C1  UNL     1     -16.044  34.877  95.605  1.00  0.00     0.093 C 
HETATM   12  O1  UNL     1     -15.002  33.683  97.278  1.00  0.00    -0.296 OA
ENDBRANCH   1  10
TORSDOF 2
ENDMDL
MODEL 3
REMARK VINA RESULT: -4.313815750      0.919      1.265
REMARK  2 active torsions:
REMARK  status: ('A' for Active; 'I' for Inactive)
REMARK    1  A    between atoms: C2_2  and  C3_4 
REMARK    2  A    between atoms: N1_8  and  C7_9 
ROOT
HETATM    1  C3  UNL     1     -13.869  35.902  97.783  1.00  0.00     0.154 C 
HETATM    2  C4  UNL     1     -13.309  34.599  97.277  1.00  0.00     0.035 C 
HETATM    3  C5  UNL     1     -14.414  34.061  96.368  1.00  0.00     0.022 C 
HETATM    4  C6  UNL     1     -15.517  35.113  96.442  1.00  0.00     0.124 C 
HETATM    5  N1  UNL     1     -14.715  36.315  96.685  1.00  0.00    -0.366 N 
ENDROOT
BRANCH   5   6
HETATM    6  C7  UNL     1     -14.799  37.532  95.986  1.00  0.00     0.171 C 
HETATM    7  N2  UNL     1     -15.760  37.840  95.180  1.00  0.00    -0.395 N 
ATOM      8  H22 UNL     1     -16.496  37.145  95.053  1.00  0.00     0.156 HD
ATOM      9  H21 UNL     1     -15.820  38.723  94.673  1.00  0.00     0.156 HD
ENDBRANCH   5   6
BRANCH   1  10
HETATM   10  C2  UNL     1     -12.877  36.876  98.189  1.00  0.00     0.145 C 
HETATM   11  C1  UNL     1     -13.212  37.869  99.239  1.00  0.00     0.093 C 
HETATM   12  O1  UNL     1     -11.769  36.924  97.710  1.00  0.00    -0.296 OA
ENDBRANCH   1  10
TORSDOF 2
ENDMDL
MODEL 4
REMARK VINA RESULT: -4.206766142      8.118      9.280
REMARK  2 active torsions:
REMARK  status: ('A' for Active; 'I' for Inactive)
REMARK    1  A    between atoms: C2_2  and  C3_4 
REMARK    2  A    between atoms: N1_8  and  C7_9 
ROOT
HETATM    1  C3  UNL     1     -20.934  40.587  96.364  1.00  0.00     0.154 C 
HETATM    2  C4  UNL     1     -19.789  40.203  95.464  1.00  0.00     0.035 C 
HETATM    3  C5  UNL     1     -20.475  39.523  94.279  1.00  0.00     0.022 C 
HETATM    4  C6  UNL     1     -21.962  39.576  94.616  1.00  0.00     0.124 C 
HETATM    5  N1  UNL     1     -22.005  40.802  95.415  1.00  0.00    -0.366 N 
ENDROOT
BRANCH   5   6
HETATM    6  C7  UNL     1     -22.892  41.881  95.248  1.00  0.00     0.171 C 
HETATM    7  N2  UNL     1     -24.178  41.778  95.314  1.00  0.00    -0.395 N 
ATOM      8  H22 UNL     1     -24.557  40.849  95.499  1.00  0.00     0.156 HD
ATOM      9  H21 UNL     1     -24.821  42.560  95.192  1.00  0.00     0.156 HD
ENDBRANCH   5   6
BRANCH   1  10
HETATM   10  C2  UNL     1     -20.667  41.703  97.248  1.00  0.00     0.145 C 
HETATM   11  C1  UNL     1     -21.417  41.824  98.522  1.00  0.00     0.093 C 
HETATM   12  O1  UNL     1     -19.850  42.557  96.999  1.00  0.00    -0.296 OA
ENDBRANCH   1  10
TORSDOF 2
ENDMDL
MODEL 5
REMARK VINA RESULT: -4.197160933      8.070      9.061
REMARK  2 active torsions:
REMARK  status: ('A' for Active; 'I' for Inactive)
REMARK    1  A    between atoms: C2_2  and  C3_4 
REMARK    2  A    between atoms: N1_8  and  C7_9 
ROOT
HETATM    1  C3  UNL     1     -21.030  40.070  95.980  1.00  0.00     0.154 C 
HETATM    2  C4  UNL     1     -19.869  39.709  95.091  1.00  0.00     0.035 C 
HETATM    3  C5  UNL     1     -20.537  39.194  93.816  1.00  0.00     0.022 C 
HETATM    4  C6  UNL     1     -22.033  39.304  94.097  1.00  0.00     0.124 C 
HETATM    5  N1  UNL     1     -22.043  40.444  95.017  1.00  0.00    -0.366 N 
ENDROOT
BRANCH   5   6
HETATM    6  C7  UNL     1     -22.859  41.586  94.926  1.00  0.00     0.171 C 
HETATM    7  N2  UNL     1     -24.104  41.615  95.268  1.00  0.00    -0.395 N 
ATOM      8  H22 UNL     1     -24.505  40.746  95.623  1.00  0.00     0.156 HD
ATOM      9  H21 UNL     1     -24.696  42.443  95.202  1.00  0.00     0.156 HD
ENDBRANCH   5   6
BRANCH   1  10
HETATM   10  C2  UNL     1     -20.741  41.073  96.984  1.00  0.00     0.145 C 
HETATM   11  C1  UNL     1     -19.678  42.076  96.732  1.00  0.00     0.093 C 
HETATM   12  O1  UNL     1     -21.332  41.139  98.035  1.00  0.00    -0.296 OA
ENDBRANCH   1  10
TORSDOF 2
ENDMDL
