MODEL 1
REMARK VINA RESULT: -6.717200382      0.000      0.000
REMARK  4 active torsions:
REMARK  status: ('A' for Active; 'I' for Inactive)
REMARK    1  A    between atoms: C2_2  and  N1_4 
REMARK       I    between atoms: N1_4  and  C4_6 
REMARK    2  A    between atoms: N3_8  and  C5_10 
REMARK    3  A    between atoms: C5_10  and  N4_11 
REMARK    4  A    between atoms: C5_10  and  C6_15 
ROOT
HETATM    1  N1  UNL     1      -9.614  32.850 -11.195  1.00  0.00    -0.361 N 
ATOM      2  H1  UNL     1     -10.031  33.145 -10.313  1.00  0.00     0.162 HD
HETATM    3  C4  UNL     1     -10.365  33.097 -12.373  1.00  0.00     0.185 C 
HETATM    4  N2  UNL     1     -10.423  32.204 -13.469  1.00  0.00    -0.064 NA
HETATM    5  N3  UNL     1     -11.044  34.194 -12.478  1.00  0.00    -0.337 N 
ATOM      6  H3  UNL     1     -11.578  34.355 -13.333  1.00  0.00     0.164 HD
ENDROOT
BRANCH   5   7
HETATM    7  C5  UNL     1     -11.081  35.194 -11.449  1.00  0.00     0.287 C 
BRANCH   7   8
HETATM    8  N4  UNL     1     -12.449  35.431 -10.998  1.00  0.00    -0.058 N 
ATOM      9  H43 UNL     1     -13.073  34.674 -11.275  1.00  0.00     0.276 HD
ATOM     10  H42 UNL     1     -12.533  35.338  -9.985  1.00  0.00     0.276 HD
ATOM     11  H41 UNL     1     -12.790  36.336 -11.322  1.00  0.00     0.276 HD
ENDBRANCH   7   8
BRANCH   7  12
HETATM   12  C6  UNL     1     -10.421  36.484 -11.884  1.00  0.00     0.027 C 
HETATM   13  C7  UNL     1      -8.942  36.358 -11.581  1.00  0.00     0.013 C 
HETATM   14  C8  UNL     1     -10.561  36.718 -13.365  1.00  0.00     0.013 C 
ENDBRANCH   7  12
ENDBRANCH   5   7
BRANCH   1  15
HETATM   15  C2  UNL     1      -8.344  32.234 -11.128  1.00  0.00     0.076 C 
HETATM   16  C1  UNL     1      -8.335  30.807 -10.659  1.00  0.00     0.032 C 
HETATM   17  C3  UNL     1      -7.442  33.057 -10.230  1.00  0.00     0.032 C 
ENDBRANCH   1  15
TORSDOF 4
ENDMDL
MODEL 2
REMARK VINA RESULT: -6.370571372      0.578      1.149
REMARK  4 active torsions:
REMARK  status: ('A' for Active; 'I' for Inactive)
REMARK    1  A    between atoms: C2_2  and  N1_4 
REMARK       I    between atoms: N1_4  and  C4_6 
REMARK    2  A    between atoms: N3_8  and  C5_10 
REMARK    3  A    between atoms: C5_10  and  N4_11 
REMARK    4  A    between atoms: C5_10  and  C6_15 
ROOT
HETATM    1  N1  UNL     1      -9.577  33.167 -10.482  1.00  0.00    -0.361 N 
ATOM      2  H1  UNL     1     -10.180  33.540  -9.749  1.00  0.00     0.162 HD
HETATM    3  C4  UNL     1     -10.085  33.195 -11.806  1.00  0.00     0.185 C 
HETATM    4  N2  UNL     1      -9.871  32.165 -12.751  1.00  0.00    -0.064 NA
HETATM    5  N3  UNL     1     -10.788  34.208 -12.198  1.00  0.00    -0.337 N 
ATOM      6  H3  UNL     1     -11.146  34.211 -13.154  1.00  0.00     0.164 HD
ENDROOT
BRANCH   5   7
HETATM    7  C5  UNL     1     -11.088  35.328 -11.351  1.00  0.00     0.287 C 
BRANCH   7   8
HETATM    8  N4  UNL     1     -12.530  35.474 -11.168  1.00  0.00    -0.058 N 
ATOM      9  H43 UNL     1     -12.932  36.118 -11.848  1.00  0.00     0.276 HD
ATOM     10  H42 UNL     1     -13.032  34.629 -11.438  1.00  0.00     0.276 HD
ATOM     11  H41 UNL     1     -12.750  35.753 -10.212  1.00  0.00     0.276 HD
ENDBRANCH   7   8
BRANCH   7  12
HETATM   12  C6  UNL     1     -10.473  36.611 -11.864  1.00  0.00     0.027 C 
HETATM   13  C7  UNL     1      -9.004  36.588 -11.492  1.00  0.00     0.013 C 
HETATM   14  C8  UNL     1     -10.558  36.718 -13.364  1.00  0.00     0.013 C 
ENDBRANCH   7  12
ENDBRANCH   5   7
BRANCH   1  15
HETATM   15  C2  UNL     1      -8.315  32.673 -10.082  1.00  0.00     0.076 C 
HETATM   16  C1  UNL     1      -7.125  33.442 -10.580  1.00  0.00     0.032 C 
HETATM   17  C3  UNL     1      -8.189  31.226 -10.518  1.00  0.00     0.032 C 
ENDBRANCH   1  15
TORSDOF 4
ENDMDL
MODEL 3
REMARK VINA RESULT: -5.948576486      1.471      4.484
REMARK  4 active torsions:
REMARK  status: ('A' for Active; 'I' for Inactive)
REMARK    1  A    between atoms: C2_2  and  N1_4 
REMARK       I    between atoms: N1_4  and  C4_6 
REMARK    2  A    between atoms: N3_8  and  C5_10 
REMARK    3  A    between atoms: C5_10  and  N4_11 
REMARK    4  A    between atoms: C5_10  and  C6_15 
ROOT
HETATM    1  N1  UNL     1      -9.122  35.228 -11.039  1.00  0.00    -0.361 N 
ATOM      2  H1  UNL     1      -8.353  35.002 -11.669  1.00  0.00     0.162 HD
HETATM    3  C4  UNL     1     -10.350  34.553 -11.258  1.00  0.00     0.185 C 
HETATM    4  N2  UNL     1     -11.619  35.161 -11.110  1.00  0.00    -0.064 NA
HETATM    5  N3  UNL     1     -10.339  33.309 -11.614  1.00  0.00    -0.337 N 
ATOM      6  H3  UNL     1     -11.232  32.839 -11.768  1.00  0.00     0.164 HD
ENDROOT
BRANCH   5   7
HETATM    7  C5  UNL     1      -9.130  32.558 -11.804  1.00  0.00     0.287 C 
BRANCH   7   8
HETATM    8  N4  UNL     1      -9.265  31.616 -12.911  1.00  0.00    -0.058 N 
ATOM      9  H43 UNL     1      -8.385  31.142 -13.111  1.00  0.00     0.276 HD
ATOM     10  H42 UNL     1      -9.824  30.804 -12.648  1.00  0.00     0.276 HD
ATOM     11  H41 UNL     1      -9.640  32.078 -13.740  1.00  0.00     0.276 HD
ENDBRANCH   7   8
BRANCH   7  12
HETATM   12  C6  UNL     1      -8.694  31.852 -10.539  1.00  0.00     0.027 C 
HETATM   13  C7  UNL     1      -8.516  30.386 -10.880  1.00  0.00     0.013 C 
HETATM   14  C8  UNL     1      -7.369  32.363 -10.035  1.00  0.00     0.013 C 
ENDBRANCH   7  12
ENDBRANCH   5   7
BRANCH   1  15
HETATM   15  C2  UNL     1      -8.863  36.183 -10.030  1.00  0.00     0.076 C 
HETATM   16  C1  UNL     1      -8.800  37.613 -10.486  1.00  0.00     0.032 C 
HETATM   17  C3  UNL     1      -7.565  35.827  -9.333  1.00  0.00     0.032 C 
ENDBRANCH   1  15
TORSDOF 4
ENDMDL
MODEL 4
REMARK VINA RESULT: -5.800937833      2.781      4.008
REMARK  4 active torsions:
REMARK  status: ('A' for Active; 'I' for Inactive)
REMARK    1  A    between atoms: C2_2  and  N1_4 
REMARK       I    between atoms: N1_4  and  C4_6 
REMARK    2  A    between atoms: N3_8  and  C5_10 
REMARK    3  A    between atoms: C5_10  and  N4_11 
REMARK    4  A    between atoms: C5_10  and  C6_15 
ROOT
HETATM    1  N1  UNL     1      -7.382  36.176 -10.889  1.00  0.00    -0.361 N 
ATOM      2  H1  UNL     1      -7.408  35.846 -11.853  1.00  0.00     0.162 HD
HETATM    3  C4  UNL     1      -8.269  37.229 -10.547  1.00  0.00     0.185 C 
HETATM    4  N2  UNL     1      -7.933  38.284  -9.666  1.00  0.00    -0.064 NA
HETATM    5  N3  UNL     1      -9.459  37.251 -11.055  1.00  0.00    -0.337 N 
ATOM      6  H3  UNL     1     -10.083  38.016 -10.798  1.00  0.00     0.164 HD
ENDROOT
BRANCH   5   7
HETATM    7  C5  UNL     1      -9.942  36.249 -11.963  1.00  0.00     0.287 C 
BRANCH   7   8
HETATM    8  N4  UNL     1     -10.715  36.851 -13.045  1.00  0.00    -0.058 N 
ATOM      9  H43 UNL     1     -10.363  37.776 -13.289  1.00  0.00     0.276 HD
ATOM     10  H42 UNL     1     -10.547  36.381 -13.935  1.00  0.00     0.276 HD
ATOM     11  H41 UNL     1     -11.708  36.877 -12.815  1.00  0.00     0.276 HD
ENDBRANCH   7   8
BRANCH   7  12
HETATM   12  C6  UNL     1     -10.741  35.176 -11.255  1.00  0.00     0.027 C 
HETATM   13  C7  UNL     1     -11.998  34.941 -12.068  1.00  0.00     0.013 C 
HETATM   14  C8  UNL     1      -9.994  33.870 -11.187  1.00  0.00     0.013 C 
ENDBRANCH   7  12
ENDBRANCH   5   7
BRANCH   1  15
HETATM   15  C2  UNL     1      -6.466  35.541 -10.020  1.00  0.00     0.076 C 
HETATM   16  C1  UNL     1      -6.372  34.048 -10.150  1.00  0.00     0.032 C 
HETATM   17  C3  UNL     1      -6.816  35.893  -8.588  1.00  0.00     0.032 C 
ENDBRANCH   1  15
TORSDOF 4
ENDMDL
MODEL 5
REMARK VINA RESULT: -5.732175380      2.233      3.386
REMARK  4 active torsions:
REMARK  status: ('A' for Active; 'I' for Inactive)
REMARK    1  A    between atoms: C2_2  and  N1_4 
REMARK       I    between atoms: N1_4  and  C4_6 
REMARK    2  A    between atoms: N3_8  and  C5_10 
REMARK    3  A    between atoms: C5_10  and  N4_11 
REMARK    4  A    between atoms: C5_10  and  C6_15 
ROOT
HETATM    1  N1  UNL     1      -7.972  35.071 -11.056  1.00  0.00    -0.361 N 
ATOM      2  H1  UNL     1      -8.012  34.754 -12.024  1.00  0.00     0.162 HD
HETATM    3  C4  UNL     1      -8.438  36.385 -10.792  1.00  0.00     0.185 C 
HETATM    4  N2  UNL     1      -7.835  37.259  -9.857  1.00  0.00    -0.064 NA
HETATM    5  N3  UNL     1      -9.471  36.835 -11.428  1.00  0.00    -0.337 N 
ATOM      6  H3  UNL     1      -9.792  37.782 -11.226  1.00  0.00     0.164 HD
ENDROOT
BRANCH   5   7
HETATM    7  C5  UNL     1     -10.188  36.064 -12.405  1.00  0.00     0.287 C 
BRANCH   7   8
HETATM    8  N4  UNL     1     -11.211  36.872 -13.062  1.00  0.00    -0.058 N 
ATOM      9  H43 UNL     1     -10.891  37.223 -13.964  1.00  0.00     0.276 HD
ATOM     10  H42 UNL     1     -11.991  36.300 -13.386  1.00  0.00     0.276 HD
ATOM     11  H41 UNL     1     -11.526  37.628 -12.455  1.00  0.00     0.276 HD
ENDBRANCH   7   8
BRANCH   7  12
HETATM   12  C6  UNL     1     -10.785  34.807 -11.812  1.00  0.00     0.027 C 
HETATM   13  C7  UNL     1     -11.992  35.223 -10.995  1.00  0.00     0.013 C 
HETATM   14  C8  UNL     1     -11.265  33.854 -12.876  1.00  0.00     0.013 C 
ENDBRANCH   7  12
ENDBRANCH   5   7
BRANCH   1  15
HETATM   15  C2  UNL     1      -7.459  34.161 -10.105  1.00  0.00     0.076 C 
HETATM   16  C1  UNL     1      -5.982  34.252  -9.845  1.00  0.00     0.032 C 
HETATM   17  C3  UNL     1      -7.799  32.748 -10.538  1.00  0.00     0.032 C 
ENDBRANCH   1  15
TORSDOF 4
ENDMDL
