MODEL 1
REMARK VINA RESULT: -4.755094260      0.000      0.000
REMARK  1 active torsions:
REMARK  status: ('A' for Active; 'I' for Inactive)
REMARK       I    between atoms: C1_2  and  N2_4 
REMARK    1  A    between atoms: N2_4  and  C2_6 
ROOT
HETATM    1  C2  UNL     1     -13.656  36.385  97.079  1.00  0.00     0.094 C 
HETATM    2  C3  UNL     1     -13.574  37.757  97.777  1.00  0.00     0.013 A 
HETATM    3  C4  UNL     1     -12.471  37.822  98.755  1.00  0.00     0.012 A 
HETATM    4  C5  UNL     1     -12.115  38.257  97.439  1.00  0.00    -0.004 A 
HETATM    5  C6  UNL     1     -12.050  37.599  96.139  1.00  0.00    -0.004 A 
HETATM    6  C7  UNL     1     -11.452  36.448  95.589  1.00  0.00     0.012 A 
HETATM    7  C8  UNL     1     -12.268  36.143  96.703  1.00  0.00     0.013 A 
ENDROOT
BRANCH   1   8
HETATM    8  N2  UNL     1     -14.653  36.330  96.064  1.00  0.00    -0.340 N 
HETATM    9  C1  UNL     1     -15.556  35.244  95.947  1.00  0.00     0.329 C 
HETATM   10  N1  UNL     1     -16.549  35.183  94.939  1.00  0.00    -0.040 NA
HETATM   11  O1  UNL     1     -15.485  34.292  96.761  1.00  0.00    -0.251 OA
ATOM     12  H2  UNL     1     -14.719  37.099  95.397  1.00  0.00     0.164 HD
ENDBRANCH   1   8
TORSDOF 1
ENDMDL
MODEL 2
REMARK VINA RESULT: -4.684404317      2.620      4.268
REMARK  1 active torsions:
REMARK  status: ('A' for Active; 'I' for Inactive)
REMARK       I    between atoms: C1_2  and  N2_4 
REMARK    1  A    between atoms: N2_4  and  C2_6 
ROOT
HETATM    1  C2  UNL     1     -13.027  35.450  96.712  1.00  0.00     0.094 C 
HETATM    2  C3  UNL     1     -13.732  34.317  95.942  1.00  0.00     0.013 A 
HETATM    3  C4  UNL     1     -14.905  33.793  96.667  1.00  0.00     0.012 A 
HETATM    4  C5  UNL     1     -15.204  34.856  95.756  1.00  0.00    -0.004 A 
HETATM    5  C6  UNL     1     -14.819  36.261  95.679  1.00  0.00    -0.004 A 
HETATM    6  C7  UNL     1     -14.840  37.388  96.524  1.00  0.00     0.012 A 
HETATM    7  C8  UNL     1     -14.142  36.303  97.103  1.00  0.00     0.013 A 
ENDROOT
BRANCH   1   8
HETATM    8  N2  UNL     1     -11.948  36.034  95.989  1.00  0.00    -0.340 N 
HETATM    9  C1  UNL     1     -11.176  37.102  96.510  1.00  0.00     0.329 C 
HETATM   10  N1  UNL     1     -10.103  37.688  95.796  1.00  0.00    -0.040 NA
HETATM   11  O1  UNL     1     -11.444  37.558  97.648  1.00  0.00    -0.251 OA
ATOM     12  H2  UNL     1     -11.722  35.670  95.063  1.00  0.00     0.164 HD
ENDBRANCH   1   8
TORSDOF 1
ENDMDL
MODEL 3
REMARK VINA RESULT: -4.651550435      7.616      9.022
REMARK  1 active torsions:
REMARK  status: ('A' for Active; 'I' for Inactive)
REMARK       I    between atoms: C1_2  and  N2_4 
REMARK    1  A    between atoms: N2_4  and  C2_6 
ROOT
HETATM    1  C2  UNL     1     -20.816  40.416  94.247  1.00  0.00     0.094 C 
HETATM    2  C3  UNL     1     -21.697  39.339  93.587  1.00  0.00     0.013 A 
HETATM    3  C4  UNL     1     -21.534  39.303  92.121  1.00  0.00     0.012 A 
HETATM    4  C5  UNL     1     -20.658  38.422  92.831  1.00  0.00    -0.004 A 
HETATM    5  C6  UNL     1     -19.581  38.626  93.795  1.00  0.00    -0.004 A 
HETATM    6  C7  UNL     1     -18.394  39.378  93.876  1.00  0.00     0.012 A 
HETATM    7  C8  UNL     1     -19.522  40.191  93.615  1.00  0.00     0.013 A 
ENDROOT
BRANCH   1   8
HETATM    8  N2  UNL     1     -20.886  40.407  95.668  1.00  0.00    -0.340 N 
HETATM    9  C1  UNL     1     -21.376  41.510  96.411  1.00  0.00     0.329 C 
HETATM   10  N1  UNL     1     -21.448  41.507  97.825  1.00  0.00    -0.040 NA
HETATM   11  O1  UNL     1     -21.764  42.538  95.805  1.00  0.00    -0.251 OA
ATOM     12  H2  UNL     1     -20.574  39.576  96.171  1.00  0.00     0.164 HD
ENDBRANCH   1   8
TORSDOF 1
ENDMDL
MODEL 4
REMARK VINA RESULT: -4.596152217      6.815      8.335
REMARK  1 active torsions:
REMARK  status: ('A' for Active; 'I' for Inactive)
REMARK       I    between atoms: C1_2  and  N2_4 
REMARK    1  A    between atoms: N2_4  and  C2_6 
ROOT
HETATM    1  C2  UNL     1     -19.769  40.019  94.196  1.00  0.00     0.094 C 
HETATM    2  C3  UNL     1     -20.708  40.014  95.417  1.00  0.00     0.013 A 
HETATM    3  C4  UNL     1     -21.669  41.133  95.390  1.00  0.00     0.012 A 
HETATM    4  C5  UNL     1     -22.149  39.933  94.777  1.00  0.00    -0.004 A 
HETATM    5  C6  UNL     1     -21.731  39.152  93.618  1.00  0.00    -0.004 A 
HETATM    6  C7  UNL     1     -21.473  39.383  92.253  1.00  0.00     0.012 A 
HETATM    7  C8  UNL     1     -20.698  40.219  93.090  1.00  0.00     0.013 A 
ENDROOT
BRANCH   1   8
HETATM    8  N2  UNL     1     -18.897  38.895  94.153  1.00  0.00    -0.340 N 
HETATM    9  C1  UNL     1     -17.490  39.031  94.046  1.00  0.00     0.329 C 
HETATM   10  N1  UNL     1     -16.616  37.917  94.002  1.00  0.00    -0.040 NA
HETATM   11  O1  UNL     1     -16.984  40.177  93.987  1.00  0.00    -0.251 OA
ATOM     12  H2  UNL     1     -19.297  37.958  94.201  1.00  0.00     0.164 HD
ENDBRANCH   1   8
TORSDOF 1
ENDMDL
MODEL 5
REMARK VINA RESULT: -4.511838019      8.007      9.110
REMARK  1 active torsions:
REMARK  status: ('A' for Active; 'I' for Inactive)
REMARK       I    between atoms: C1_2  and  N2_4 
REMARK    1  A    between atoms: N2_4  and  C2_6 
ROOT
HETATM    1  C2  UNL     1     -19.700  39.886  93.371  1.00  0.00     0.094 C 
HETATM    2  C3  UNL     1     -20.816  39.463  92.397  1.00  0.00     0.013 A 
HETATM    3  C4  UNL     1     -21.255  38.072  92.619  1.00  0.00     0.012 A 
HETATM    4  C5  UNL     1     -22.002  39.048  93.352  1.00  0.00    -0.004 A 
HETATM    5  C6  UNL     1     -21.663  40.002  94.402  1.00  0.00    -0.004 A 
HETATM    6  C7  UNL     1     -21.042  39.974  95.666  1.00  0.00     0.012 A 
HETATM    7  C8  UNL     1     -20.216  39.430  94.655  1.00  0.00     0.013 A 
ENDROOT
BRANCH   1   8
HETATM    8  N2  UNL     1     -19.325  41.253  93.237  1.00  0.00    -0.340 N 
HETATM    9  C1  UNL     1     -18.175  41.658  92.516  1.00  0.00     0.329 C 
HETATM   10  N1  UNL     1     -17.797  43.016  92.381  1.00  0.00    -0.040 NA
HETATM   11  O1  UNL     1     -17.452  40.790  91.970  1.00  0.00    -0.251 OA
ATOM     12  H2  UNL     1     -19.906  41.967  93.677  1.00  0.00     0.164 HD
ENDBRANCH   1   8
TORSDOF 1
ENDMDL
