MODEL 1
REMARK VINA RESULT: -4.212775232      0.000      0.000
REMARK  2 active torsions:
REMARK  status: ('A' for Active; 'I' for Inactive)
REMARK       I    between atoms: C1_2  and  N1_3 
REMARK       I    between atoms: C1_2  and  N2_8 
REMARK    1  A    between atoms: N1_3  and  C2_5 
REMARK    2  A    between atoms: N2_8  and  C5_10 
ROOT
HETATM    1  O1  UNL     1     -16.573  37.191  94.492  1.00  0.00    -0.247 OA
HETATM    2  C1  UNL     1     -15.436  37.423  95.026  1.00  0.00     0.317 C 
HETATM    3  N1  UNL     1     -14.835  36.477  95.886  1.00  0.00    -0.339 N 
ATOM      4  H1  UNL     1     -13.928  36.663  96.312  1.00  0.00     0.164 HD
HETATM    5  N2  UNL     1     -14.760  38.637  94.764  1.00  0.00    -0.334 N 
ATOM      6  H2  UNL     1     -13.854  38.776  95.212  1.00  0.00     0.165 HD
ENDROOT
BRANCH   3   7
HETATM    7  C2  UNL     1     -15.535  35.240  96.150  1.00  0.00     0.086 A 
HETATM    8  C3  UNL     1     -15.237  34.062  95.276  1.00  0.00     0.027 A 
HETATM    9  C4  UNL     1     -14.706  34.052  96.650  1.00  0.00     0.027 A 
ENDBRANCH   3   7
BRANCH   5  10
HETATM   10  C5  UNL     1     -15.240  39.675  93.927  1.00  0.00     0.039 A 
HETATM   11  C6  UNL     1     -16.118  40.751  94.475  1.00  0.00     0.038 A 
HETATM   12  C7  UNL     1     -14.760  41.047  93.848  1.00  0.00     0.018 A 
HETATM   13  C8  UNL     1     -14.365  40.088  92.761  1.00  0.00     0.038 A 
ENDBRANCH   5  10
TORSDOF 2
ENDMDL
MODEL 2
REMARK VINA RESULT: -4.105977303      1.470      1.932
REMARK  2 active torsions:
REMARK  status: ('A' for Active; 'I' for Inactive)
REMARK       I    between atoms: C1_2  and  N1_3 
REMARK       I    between atoms: C1_2  and  N2_8 
REMARK    1  A    between atoms: N1_3  and  C2_5 
REMARK    2  A    between atoms: N2_8  and  C5_10 
ROOT
HETATM    1  O1  UNL     1     -14.638  38.077  95.810  1.00  0.00    -0.247 OA
HETATM    2  C1  UNL     1     -15.530  37.373  95.227  1.00  0.00     0.317 C 
HETATM    3  N1  UNL     1     -15.615  35.981  95.455  1.00  0.00    -0.339 N 
ATOM      4  H1  UNL     1     -16.327  35.420  94.989  1.00  0.00     0.164 HD
HETATM    5  N2  UNL     1     -16.449  37.979  94.339  1.00  0.00    -0.334 N 
ATOM      6  H2  UNL     1     -17.144  37.375  93.899  1.00  0.00     0.165 HD
ENDROOT
BRANCH   3   7
HETATM    7  C2  UNL     1     -14.670  35.370  96.363  1.00  0.00     0.086 A 
HETATM    8  C3  UNL     1     -14.840  33.918  96.685  1.00  0.00     0.027 A 
HETATM    9  C4  UNL     1     -13.733  34.300  95.792  1.00  0.00     0.027 A 
ENDBRANCH   3   7
BRANCH   5  10
HETATM   10  C5  UNL     1     -16.482  39.357  94.014  1.00  0.00     0.039 A 
HETATM   11  C6  UNL     1     -15.479  39.944  93.076  1.00  0.00     0.038 A 
HETATM   12  C7  UNL     1     -16.976  39.970  92.789  1.00  0.00     0.018 A 
HETATM   13  C8  UNL     1     -17.835  40.041  94.021  1.00  0.00     0.038 A 
ENDBRANCH   5  10
TORSDOF 2
ENDMDL
MODEL 3
REMARK VINA RESULT: -4.092295262      1.936      5.393
REMARK  2 active torsions:
REMARK  status: ('A' for Active; 'I' for Inactive)
REMARK       I    between atoms: C1_2  and  N1_3 
REMARK       I    between atoms: C1_2  and  N2_8 
REMARK    1  A    between atoms: N1_3  and  C2_5 
REMARK    2  A    between atoms: N2_8  and  C5_10 
ROOT
HETATM    1  O1  UNL     1     -15.081  38.115  94.173  1.00  0.00    -0.247 OA
HETATM    2  C1  UNL     1     -16.256  37.638  94.327  1.00  0.00     0.317 C 
HETATM    3  N1  UNL     1     -17.394  38.389  93.958  1.00  0.00    -0.339 N 
ATOM      4  H1  UNL     1     -18.332  38.009  94.081  1.00  0.00     0.164 HD
HETATM    5  N2  UNL     1     -16.436  36.346  94.873  1.00  0.00    -0.334 N 
ATOM      6  H2  UNL     1     -17.393  36.009  94.976  1.00  0.00     0.165 HD
ENDROOT
BRANCH   3   7
HETATM    7  C2  UNL     1     -17.201  39.710  93.402  1.00  0.00     0.086 A 
HETATM    8  C3  UNL     1     -17.682  39.965  92.008  1.00  0.00     0.027 A 
HETATM    9  C4  UNL     1     -18.453  40.548  93.120  1.00  0.00     0.027 A 
ENDBRANCH   3   7
BRANCH   5  10
HETATM   10  C5  UNL     1     -15.392  35.484  95.289  1.00  0.00     0.039 A 
HETATM   11  C6  UNL     1     -14.558  35.815  96.484  1.00  0.00     0.038 A 
HETATM   12  C7  UNL     1     -15.403  34.548  96.405  1.00  0.00     0.018 A 
HETATM   13  C8  UNL     1     -15.563  34.003  95.013  1.00  0.00     0.038 A 
ENDBRANCH   5  10
TORSDOF 2
ENDMDL
MODEL 4
REMARK VINA RESULT: -4.088980868      3.816      6.541
REMARK  2 active torsions:
REMARK  status: ('A' for Active; 'I' for Inactive)
REMARK       I    between atoms: C1_2  and  N1_3 
REMARK       I    between atoms: C1_2  and  N2_8 
REMARK    1  A    between atoms: N1_3  and  C2_5 
REMARK    2  A    between atoms: N2_8  and  C5_10 
ROOT
HETATM    1  O1  UNL     1     -11.177  40.294  96.104  1.00  0.00    -0.247 OA
HETATM    2  C1  UNL     1     -11.873  39.822  95.142  1.00  0.00     0.317 C 
HETATM    3  N1  UNL     1     -12.372  40.669  94.128  1.00  0.00    -0.339 N 
ATOM      4  H1  UNL     1     -12.927  40.291  93.361  1.00  0.00     0.164 HD
HETATM    5  N2  UNL     1     -12.155  38.437  95.079  1.00  0.00    -0.334 N 
ATOM      6  H2  UNL     1     -12.713  38.108  94.291  1.00  0.00     0.165 HD
ENDROOT
BRANCH   3   7
HETATM    7  C2  UNL     1     -12.080  42.083  94.202  1.00  0.00     0.086 A 
HETATM    8  C3  UNL     1     -11.459  42.737  93.008  1.00  0.00     0.027 A 
HETATM    9  C4  UNL     1     -12.878  43.018  93.286  1.00  0.00     0.027 A 
ENDBRANCH   3   7
BRANCH   5  10
HETATM   10  C5  UNL     1     -11.725  37.473  96.023  1.00  0.00     0.039 A 
HETATM   11  C6  UNL     1     -12.534  37.186  97.245  1.00  0.00     0.038 A 
HETATM   12  C7  UNL     1     -12.226  36.118  96.201  1.00  0.00     0.018 A 
HETATM   13  C8  UNL     1     -10.910  36.306  95.501  1.00  0.00     0.038 A 
ENDBRANCH   5  10
TORSDOF 2
ENDMDL
MODEL 5
REMARK VINA RESULT: -4.061050424      3.881      5.942
REMARK  2 active torsions:
REMARK  status: ('A' for Active; 'I' for Inactive)
REMARK       I    between atoms: C1_2  and  N1_3 
REMARK       I    between atoms: C1_2  and  N2_8 
REMARK    1  A    between atoms: N1_3  and  C2_5 
REMARK    2  A    between atoms: N2_8  and  C5_10 
ROOT
HETATM    1  O1  UNL     1     -12.503  36.748  98.584  1.00  0.00    -0.247 OA
HETATM    2  C1  UNL     1     -13.272  37.207  97.673  1.00  0.00     0.317 C 
HETATM    3  N1  UNL     1     -13.566  38.586  97.602  1.00  0.00    -0.339 N 
ATOM      4  H1  UNL     1     -14.180  38.952  96.874  1.00  0.00     0.164 HD
HETATM    5  N2  UNL     1     -13.843  36.335  96.717  1.00  0.00    -0.334 N 
ATOM      6  H2  UNL     1     -14.449  36.748  96.007  1.00  0.00     0.165 HD
ENDROOT
BRANCH   3   7
HETATM    7  C2  UNL     1     -12.979  39.470  98.585  1.00  0.00     0.086 A 
HETATM    8  C3  UNL     1     -12.864  40.923  98.246  1.00  0.00     0.027 A 
HETATM    9  C4  UNL     1     -13.892  40.523  99.223  1.00  0.00     0.027 A 
ENDBRANCH   3   7
BRANCH   5  10
HETATM   10  C5  UNL     1     -13.640  34.934  96.665  1.00  0.00     0.039 A 
HETATM   11  C6  UNL     1     -14.796  33.992  96.746  1.00  0.00     0.038 A 
HETATM   12  C7  UNL     1     -13.868  34.043  95.537  1.00  0.00     0.018 A 
HETATM   13  C8  UNL     1     -12.454  34.432  95.866  1.00  0.00     0.038 A 
ENDBRANCH   5  10
TORSDOF 2
ENDMDL
