MODEL 1
REMARK VINA RESULT: -4.435583666      0.000      0.000
REMARK  3 active torsions:
REMARK  status: ('A' for Active; 'I' for Inactive)
REMARK       I    between atoms: C1_2  and  N1_3 
REMARK       I    between atoms: C1_2  and  N2_9 
REMARK    1  A    between atoms: N1_3  and  C2_5 
REMARK    2  A    between atoms: C2_5  and  C3_6 
REMARK    3  A    between atoms: N2_9  and  C6_11 
ROOT
HETATM    1  O1  UNL     1     -14.668  42.181  92.704  1.00  0.00    -0.247 OA
HETATM    2  C1  UNL     1     -14.244  41.483  91.759  1.00  0.00     0.316 C 
HETATM    3  N1  UNL     1     -12.851  41.248  91.657  1.00  0.00    -0.343 N 
ATOM      4  H1  UNL     1     -12.494  40.680  90.889  1.00  0.00     0.164 HD
HETATM    5  N2  UNL     1     -15.124  40.936  90.808  1.00  0.00    -0.339 N 
ATOM      6  H2  UNL     1     -14.760  40.368  90.043  1.00  0.00     0.164 HD
ENDROOT
BRANCH   3   7
HETATM    7  C2  UNL     1     -11.930  41.798  92.619  1.00  0.00     0.129 C 
BRANCH   7   8
HETATM    8  C3  UNL     1     -10.958  42.737  91.969  1.00  0.00     0.003 A 
HETATM    9  C4  UNL     1     -10.063  43.544  92.813  1.00  0.00     0.007 A 
HETATM   10  C5  UNL     1     -11.182  44.206  92.101  1.00  0.00     0.007 A 
ENDBRANCH   7   8
ENDBRANCH   3   7
BRANCH   5  11
HETATM   11  C6  UNL     1     -16.530  41.178  90.918  1.00  0.00     0.086 A 
HETATM   12  C7  UNL     1     -17.425  40.281  91.679  1.00  0.00     0.027 A 
HETATM   13  C8  UNL     1     -17.376  40.096  90.225  1.00  0.00     0.027 A 
ENDBRANCH   5  11
TORSDOF 3
ENDMDL
MODEL 2
REMARK VINA RESULT: -4.314751563      0.771      5.734
REMARK  3 active torsions:
REMARK  status: ('A' for Active; 'I' for Inactive)
REMARK       I    between atoms: C1_2  and  N1_3 
REMARK       I    between atoms: C1_2  and  N2_9 
REMARK    1  A    between atoms: N1_3  and  C2_5 
REMARK    2  A    between atoms: C2_5  and  C3_6 
REMARK    3  A    between atoms: N2_9  and  C6_11 
ROOT
HETATM    1  O1  UNL     1     -15.036  42.118  92.621  1.00  0.00    -0.247 OA
HETATM    2  C1  UNL     1     -14.523  41.523  91.651  1.00  0.00     0.316 C 
HETATM    3  N1  UNL     1     -15.375  40.935  90.683  1.00  0.00    -0.343 N 
ATOM      4  H1  UNL     1     -14.966  40.446  89.887  1.00  0.00     0.164 HD
HETATM    5  N2  UNL     1     -13.127  41.430  91.511  1.00  0.00    -0.339 N 
ATOM      6  H2  UNL     1     -12.725  40.940  90.712  1.00  0.00     0.164 HD
ENDROOT
BRANCH   3   7
HETATM    7  C2  UNL     1     -16.808  41.017  90.805  1.00  0.00     0.129 C 
BRANCH   7   8
HETATM    8  C3  UNL     1     -17.367  39.808  91.495  1.00  0.00     0.003 A 
HETATM    9  C4  UNL     1     -18.824  39.671  91.640  1.00  0.00     0.007 A 
HETATM   10  C5  UNL     1     -18.002  39.977  92.835  1.00  0.00     0.007 A 
ENDBRANCH   7   8
ENDBRANCH   3   7
BRANCH   5  11
HETATM   11  C6  UNL     1     -12.273  42.026  92.492  1.00  0.00     0.086 A 
HETATM   12  C7  UNL     1     -11.801  43.422  92.380  1.00  0.00     0.027 A 
HETATM   13  C8  UNL     1     -10.879  42.370  91.938  1.00  0.00     0.027 A 
ENDBRANCH   5  11
TORSDOF 3
ENDMDL
MODEL 3
REMARK VINA RESULT: -4.310921096      6.360      7.463
REMARK  3 active torsions:
REMARK  status: ('A' for Active; 'I' for Inactive)
REMARK       I    between atoms: C1_2  and  N1_3 
REMARK       I    between atoms: C1_2  and  N2_9 
REMARK    1  A    between atoms: N1_3  and  C2_5 
REMARK    2  A    between atoms: C2_5  and  C3_6 
REMARK    3  A    between atoms: N2_9  and  C6_11 
ROOT
HETATM    1  O1  UNL     1     -20.786  43.074  91.732  1.00  0.00    -0.247 OA
HETATM    2  C1  UNL     1     -20.039  42.152  91.344  1.00  0.00     0.316 C 
HETATM    3  N1  UNL     1     -19.186  41.524  92.285  1.00  0.00    -0.343 N 
ATOM      4  H1  UNL     1     -18.571  40.770  91.979  1.00  0.00     0.164 HD
HETATM    5  N2  UNL     1     -20.035  41.735  90.001  1.00  0.00    -0.339 N 
ATOM      6  H2  UNL     1     -19.419  40.980  89.701  1.00  0.00     0.164 HD
ENDROOT
BRANCH   3   7
HETATM    7  C2  UNL     1     -19.172  41.933  93.667  1.00  0.00     0.129 C 
BRANCH   7   8
HETATM    8  C3  UNL     1     -19.960  40.987  94.523  1.00  0.00     0.003 A 
HETATM    9  C4  UNL     1     -21.430  41.032  94.481  1.00  0.00     0.007 A 
HETATM   10  C5  UNL     1     -20.722  41.536  95.683  1.00  0.00     0.007 A 
ENDBRANCH   7   8
ENDBRANCH   3   7
BRANCH   5  11
HETATM   11  C6  UNL     1     -20.900  42.374  89.056  1.00  0.00     0.086 A 
HETATM   12  C7  UNL     1     -22.181  41.772  88.631  1.00  0.00     0.027 A 
HETATM   13  C8  UNL     1     -21.030  41.587  87.741  1.00  0.00     0.027 A 
ENDBRANCH   5  11
TORSDOF 3
ENDMDL
MODEL 4
REMARK VINA RESULT: -4.296144687      6.106      6.599
REMARK  3 active torsions:
REMARK  status: ('A' for Active; 'I' for Inactive)
REMARK       I    between atoms: C1_2  and  N1_3 
REMARK       I    between atoms: C1_2  and  N2_9 
REMARK    1  A    between atoms: N1_3  and  C2_5 
REMARK    2  A    between atoms: C2_5  and  C3_6 
REMARK    3  A    between atoms: N2_9  and  C6_11 
ROOT
HETATM    1  O1  UNL     1     -12.704  35.409  96.459  1.00  0.00    -0.247 OA
HETATM    2  C1  UNL     1     -13.363  36.367  96.004  1.00  0.00     0.316 C 
HETATM    3  N1  UNL     1     -12.881  37.684  96.208  1.00  0.00    -0.343 N 
ATOM      4  H1  UNL     1     -13.412  38.473  95.841  1.00  0.00     0.164 HD
HETATM    5  N2  UNL     1     -14.563  36.156  95.302  1.00  0.00    -0.339 N 
ATOM      6  H2  UNL     1     -15.088  36.950  94.937  1.00  0.00     0.164 HD
ENDROOT
BRANCH   3   7
HETATM    7  C2  UNL     1     -11.654  37.926  96.924  1.00  0.00     0.129 C 
BRANCH   7   8
HETATM    8  C3  UNL     1     -10.732  38.812  96.142  1.00  0.00     0.003 A 
HETATM    9  C4  UNL     1     -10.907  38.926  94.685  1.00  0.00     0.007 A 
HETATM   10  C5  UNL     1      -9.742  38.181  95.220  1.00  0.00     0.007 A 
ENDBRANCH   7   8
ENDBRANCH   3   7
BRANCH   5  11
HETATM   11  C6  UNL     1     -15.043  34.823  95.100  1.00  0.00     0.086 A 
HETATM   12  C7  UNL     1     -14.961  34.147  93.788  1.00  0.00     0.027 A 
HETATM   13  C8  UNL     1     -16.245  34.762  94.141  1.00  0.00     0.027 A 
ENDBRANCH   5  11
TORSDOF 3
ENDMDL
MODEL 5
REMARK VINA RESULT: -4.266757893      1.364      5.792
REMARK  3 active torsions:
REMARK  status: ('A' for Active; 'I' for Inactive)
REMARK       I    between atoms: C1_2  and  N1_3 
REMARK       I    between atoms: C1_2  and  N2_9 
REMARK    1  A    between atoms: N1_3  and  C2_5 
REMARK    2  A    between atoms: C2_5  and  C3_6 
REMARK    3  A    between atoms: N2_9  and  C6_11 
ROOT
HETATM    1  O1  UNL     1     -14.545  42.863  93.151  1.00  0.00    -0.247 OA
HETATM    2  C1  UNL     1     -14.208  43.143  91.982  1.00  0.00     0.316 C 
HETATM    3  N1  UNL     1     -15.108  42.858  90.926  1.00  0.00    -0.343 N 
ATOM      4  H1  UNL     1     -14.842  43.082  89.968  1.00  0.00     0.164 HD
HETATM    5  N2  UNL     1     -12.960  43.731  91.707  1.00  0.00    -0.339 N 
ATOM      6  H2  UNL     1     -12.701  43.954  90.746  1.00  0.00     0.164 HD
ENDROOT
BRANCH   3   7
HETATM    7  C2  UNL     1     -16.391  42.256  91.184  1.00  0.00     0.129 C 
BRANCH   7   8
HETATM    8  C3  UNL     1     -16.370  40.783  90.899  1.00  0.00     0.003 A 
HETATM    9  C4  UNL     1     -17.568  40.143  90.333  1.00  0.00     0.007 A 
HETATM   10  C5  UNL     1     -17.201  39.877  91.745  1.00  0.00     0.007 A 
ENDBRANCH   7   8
ENDBRANCH   3   7
BRANCH   5  11
HETATM   11  C6  UNL     1     -12.056  44.017  92.779  1.00  0.00     0.086 A 
HETATM   12  C7  UNL     1     -10.889  44.907  92.607  1.00  0.00     0.027 A 
HETATM   13  C8  UNL     1     -10.643  43.462  92.529  1.00  0.00     0.027 A 
ENDBRANCH   5  11
TORSDOF 3
ENDMDL
