MODEL 1
REMARK VINA RESULT: -5.583600039      0.000      0.000
REMARK  3 active torsions:
REMARK  status: ('A' for Active; 'I' for Inactive)
REMARK    1  A    between atoms: C2_2  and  C4_4 
REMARK    2  A    between atoms: C4_4  and  N1_5 
REMARK       I    between atoms: N1_5  and  C5_7 
REMARK       I    between atoms: C5_7  and  N2_9 
REMARK    3  A    between atoms: N2_9  and  C6_11 
ROOT
HETATM    1  N1  UNL     1     -12.404  37.465  96.099  1.00  0.00    -0.343 N 
ATOM      2  H1  UNL     1     -13.205  37.341  95.481  1.00  0.00     0.164 HD
HETATM    3  C5  UNL     1     -11.732  38.690  96.063  1.00  0.00     0.316 C 
HETATM    4  O1  UNL     1     -10.737  38.874  96.797  1.00  0.00    -0.247 OA
HETATM    5  N2  UNL     1     -12.160  39.725  95.205  1.00  0.00    -0.338 N 
ATOM      6  H2  UNL     1     -12.974  39.543  94.619  1.00  0.00     0.164 HD
ENDROOT
BRANCH   5   7
HETATM    7  C6  UNL     1     -11.539  41.011  95.096  1.00  0.00     0.091 C 
HETATM    8  C7  UNL     1     -12.174  42.064  96.019  1.00  0.00     0.031 C 
HETATM    9  C8  UNL     1     -12.567  43.077  94.968  1.00  0.00    -0.004 C 
HETATM   10  C9  UNL     1     -13.250  42.136  93.957  1.00  0.00     0.012 C 
HETATM   11  C11 UNL     1     -11.438  43.095  93.955  1.00  0.00    -0.038 C 
HETATM   12  C10 UNL     1     -11.819  41.638  93.775  1.00  0.00     0.017 C 
HETATM   13  C12 UNL     1     -11.802  43.902  92.737  1.00  0.00     0.015 C 
HETATM   14  C13 UNL     1     -10.085  43.410  94.449  1.00  0.00     0.015 C 
ENDBRANCH   5   7
BRANCH   1  15
HETATM   15  C4  UNL     1     -12.037  36.374  96.949  1.00  0.00     0.128 C 
BRANCH  15  16
HETATM   16  C2  UNL     1     -13.230  35.548  97.316  1.00  0.00    -0.005 C 
HETATM   17  C1  UNL     1     -13.119  34.156  96.680  1.00  0.00     0.011 C 
HETATM   18  C3  UNL     1     -14.481  36.248  96.834  1.00  0.00     0.011 C 
ENDBRANCH  15  16
ENDBRANCH   1  15
TORSDOF 3
ENDMDL
MODEL 2
REMARK VINA RESULT: -5.581115301      4.803      7.574
REMARK  3 active torsions:
REMARK  status: ('A' for Active; 'I' for Inactive)
REMARK    1  A    between atoms: C2_2  and  C4_4 
REMARK    2  A    between atoms: C4_4  and  N1_5 
REMARK       I    between atoms: N1_5  and  C5_7 
REMARK       I    between atoms: C5_7  and  N2_9 
REMARK    3  A    between atoms: N2_9  and  C6_11 
ROOT
HETATM    1  N1  UNL     1     -14.295  42.788  93.035  1.00  0.00    -0.343 N 
ATOM      2  H1  UNL     1     -14.308  42.622  92.029  1.00  0.00     0.164 HD
HETATM    3  C5  UNL     1     -15.289  42.185  93.810  1.00  0.00     0.316 C 
HETATM    4  O1  UNL     1     -15.314  42.375  95.046  1.00  0.00    -0.247 OA
HETATM    5  N2  UNL     1     -16.271  41.363  93.217  1.00  0.00    -0.338 N 
ATOM      6  H2  UNL     1     -16.224  41.228  92.208  1.00  0.00     0.164 HD
ENDROOT
BRANCH   5   7
HETATM    7  C6  UNL     1     -17.327  40.704  93.924  1.00  0.00     0.091 C 
HETATM    8  C7  UNL     1     -17.000  39.240  94.264  1.00  0.00     0.031 C 
HETATM    9  C8  UNL     1     -18.167  38.581  93.565  1.00  0.00    -0.004 C 
HETATM   10  C9  UNL     1     -18.085  39.302  92.206  1.00  0.00     0.012 C 
HETATM   11  C11 UNL     1     -19.364  39.483  93.797  1.00  0.00    -0.038 C 
HETATM   12  C10 UNL     1     -18.517  40.497  93.053  1.00  0.00     0.017 C 
HETATM   13  C12 UNL     1     -20.547  39.056  92.969  1.00  0.00     0.015 C 
HETATM   14  C13 UNL     1     -19.737  39.773  95.195  1.00  0.00     0.015 C 
ENDBRANCH   5   7
BRANCH   1  15
HETATM   15  C4  UNL     1     -13.261  43.623  93.565  1.00  0.00     0.128 C 
BRANCH  15  16
HETATM   16  C2  UNL     1     -11.923  43.247  93.010  1.00  0.00    -0.005 C 
HETATM   17  C1  UNL     1     -11.695  41.737  93.168  1.00  0.00     0.011 C 
HETATM   18  C3  UNL     1     -10.850  44.020  93.743  1.00  0.00     0.011 C 
ENDBRANCH  15  16
ENDBRANCH   1  15
TORSDOF 3
ENDMDL
MODEL 3
REMARK VINA RESULT: -5.578945732      6.312      7.578
REMARK  3 active torsions:
REMARK  status: ('A' for Active; 'I' for Inactive)
REMARK    1  A    between atoms: C2_2  and  C4_4 
REMARK    2  A    between atoms: C4_4  and  N1_5 
REMARK       I    between atoms: N1_5  and  C5_7 
REMARK       I    between atoms: C5_7  and  N2_9 
REMARK    3  A    between atoms: N2_9  and  C6_11 
ROOT
HETATM    1  N1  UNL     1     -16.048  38.008  94.550  1.00  0.00    -0.343 N 
ATOM      2  H1  UNL     1     -16.397  37.058  94.672  1.00  0.00     0.164 HD
HETATM    3  C5  UNL     1     -16.981  39.028  94.344  1.00  0.00     0.316 C 
HETATM    4  O1  UNL     1     -16.591  40.203  94.179  1.00  0.00    -0.247 OA
HETATM    5  N2  UNL     1     -18.364  38.748  94.319  1.00  0.00    -0.338 N 
ATOM      6  H2  UNL     1     -18.651  37.779  94.457  1.00  0.00     0.164 HD
ENDROOT
BRANCH   5   7
HETATM    7  C6  UNL     1     -19.395  39.720  94.115  1.00  0.00     0.091 C 
HETATM    8  C7  UNL     1     -20.588  39.538  95.069  1.00  0.00     0.031 C 
HETATM    9  C8  UNL     1     -21.679  39.372  94.034  1.00  0.00    -0.004 C 
HETATM   10  C9  UNL     1     -21.001  38.334  93.121  1.00  0.00     0.012 C 
HETATM   11  C11 UNL     1     -21.352  40.342  92.915  1.00  0.00    -0.038 C 
HETATM   12  C10 UNL     1     -20.085  39.515  92.812  1.00  0.00     0.017 C 
HETATM   13  C12 UNL     1     -22.239  40.123  91.719  1.00  0.00     0.015 C 
HETATM   14  C13 UNL     1     -21.231  41.770  93.267  1.00  0.00     0.015 C 
ENDBRANCH   5   7
BRANCH   1  15
HETATM   15  C4  UNL     1     -14.632  38.215  94.600  1.00  0.00     0.128 C 
BRANCH  15  16
HETATM   16  C2  UNL     1     -14.101  37.995  95.981  1.00  0.00    -0.005 C 
HETATM   17  C1  UNL     1     -12.568  38.057  95.970  1.00  0.00     0.011 C 
HETATM   18  C3  UNL     1     -14.568  36.645  96.479  1.00  0.00     0.011 C 
ENDBRANCH  15  16
ENDBRANCH   1  15
TORSDOF 3
ENDMDL
MODEL 4
REMARK VINA RESULT: -5.572213746      4.105      4.863
REMARK  3 active torsions:
REMARK  status: ('A' for Active; 'I' for Inactive)
REMARK    1  A    between atoms: C2_2  and  C4_4 
REMARK    2  A    between atoms: C4_4  and  N1_5 
REMARK       I    between atoms: N1_5  and  C5_7 
REMARK       I    between atoms: C5_7  and  N2_9 
REMARK    3  A    between atoms: N2_9  and  C6_11 
ROOT
HETATM    1  N1  UNL     1     -14.787  36.311  96.566  1.00  0.00    -0.343 N 
ATOM      2  H1  UNL     1     -15.633  35.748  96.649  1.00  0.00     0.164 HD
HETATM    3  C5  UNL     1     -14.814  37.411  95.705  1.00  0.00     0.316 C 
HETATM    4  O1  UNL     1     -13.792  38.117  95.567  1.00  0.00    -0.247 OA
HETATM    5  N2  UNL     1     -15.983  37.738  94.986  1.00  0.00    -0.338 N 
ATOM      6  H2  UNL     1     -16.799  37.142  95.120  1.00  0.00     0.164 HD
ENDROOT
BRANCH   5   7
HETATM    7  C6  UNL     1     -16.110  38.841  94.082  1.00  0.00     0.091 C 
HETATM    8  C7  UNL     1     -16.251  40.193  94.802  1.00  0.00     0.031 C 
HETATM    9  C8  UNL     1     -17.576  40.622  94.213  1.00  0.00    -0.004 C 
HETATM   10  C9  UNL     1     -18.377  39.324  94.424  1.00  0.00     0.012 C 
HETATM   11  C11 UNL     1     -17.554  40.191  92.759  1.00  0.00    -0.038 C 
HETATM   12  C10 UNL     1     -17.412  38.806  93.361  1.00  0.00     0.017 C 
HETATM   13  C12 UNL     1     -18.903  40.362  92.112  1.00  0.00     0.015 C 
HETATM   14  C13 UNL     1     -16.459  40.703  91.914  1.00  0.00     0.015 C 
ENDBRANCH   5   7
BRANCH   1  15
HETATM   15  C4  UNL     1     -13.645  35.924  97.337  1.00  0.00     0.128 C 
BRANCH  15  16
HETATM   16  C2  UNL     1     -13.453  34.440  97.315  1.00  0.00    -0.005 C 
HETATM   17  C1  UNL     1     -12.366  34.066  96.299  1.00  0.00     0.011 C 
HETATM   18  C3  UNL     1     -14.763  33.779  96.949  1.00  0.00     0.011 C 
ENDBRANCH  15  16
ENDBRANCH   1  15
TORSDOF 3
ENDMDL
MODEL 5
REMARK VINA RESULT: -5.558265505      5.409      6.948
REMARK  3 active torsions:
REMARK  status: ('A' for Active; 'I' for Inactive)
REMARK    1  A    between atoms: C2_2  and  C4_4 
REMARK    2  A    between atoms: C4_4  and  N1_5 
REMARK       I    between atoms: N1_5  and  C5_7 
REMARK       I    between atoms: C5_7  and  N2_9 
REMARK    3  A    between atoms: N2_9  and  C6_11 
ROOT
HETATM    1  N1  UNL     1     -14.735  38.695  95.217  1.00  0.00    -0.343 N 
ATOM      2  H1  UNL     1     -14.624  39.707  95.285  1.00  0.00     0.164 HD
HETATM    3  C5  UNL     1     -15.920  38.202  94.666  1.00  0.00     0.316 C 
HETATM    4  O1  UNL     1     -16.098  36.967  94.578  1.00  0.00    -0.247 OA
HETATM    5  N2  UNL     1     -16.925  39.079  94.206  1.00  0.00    -0.338 N 
ATOM      6  H2  UNL     1     -16.750  40.080  94.291  1.00  0.00     0.164 HD
ENDROOT
BRANCH   5   7
HETATM    7  C6  UNL     1     -18.170  38.673  93.628  1.00  0.00     0.091 C 
HETATM    8  C7  UNL     1     -18.505  39.429  92.331  1.00  0.00     0.031 C 
HETATM    9  C8  UNL     1     -19.834  40.016  92.750  1.00  0.00    -0.004 C 
HETATM   10  C9  UNL     1     -19.435  40.581  94.126  1.00  0.00     0.012 C 
HETATM   11  C11 UNL     1     -20.532  38.944  93.565  1.00  0.00    -0.038 C 
HETATM   12  C10 UNL     1     -19.323  39.098  94.468  1.00  0.00     0.017 C 
HETATM   13  C12 UNL     1     -21.774  39.476  94.229  1.00  0.00     0.015 C 
HETATM   14  C13 UNL     1     -20.761  37.638  92.917  1.00  0.00     0.015 C 
ENDBRANCH   5   7
BRANCH   1  15
HETATM   15  C4  UNL     1     -13.668  37.869  95.693  1.00  0.00     0.128 C 
BRANCH  15  16
HETATM   16  C2  UNL     1     -13.950  37.361  97.072  1.00  0.00    -0.005 C 
HETATM   17  C1  UNL     1     -13.135  38.156  98.102  1.00  0.00     0.011 C 
HETATM   18  C3  UNL     1     -13.592  35.894  97.140  1.00  0.00     0.011 C 
ENDBRANCH  15  16
ENDBRANCH   1  15
TORSDOF 3
ENDMDL
