MODEL 1
REMARK VINA RESULT: -8.504606344      0.000      0.000
REMARK  11 active torsions:
REMARK  status: ('A' for Active; 'I' for Inactive)
REMARK    1  A    between atoms: C2_2  and  N1_3 
REMARK    2  A    between atoms: N2_6  and  C5_7 
REMARK    3  A    between atoms: C6_8  and  C7_9 
REMARK       I    between atoms: C7_9  and  N3_11 
REMARK    4  A    between atoms: N3_11  and  C8_13 
REMARK    5  A    between atoms: C8_13  and  C9_14 
REMARK    6  A    between atoms: C9_14  and  O2_15 
REMARK    7  A    between atoms: C16_24  and  N5_25 
REMARK       I    between atoms: N5_25  and  C17_27 
REMARK    8  A    between atoms: C17_27  and  C18_29 
REMARK    9  A    between atoms: C18_29  and  C19_30 
REMARK   10  A    between atoms: C19_30  and  N6_31 
REMARK   11  A    between atoms: C22_34  and  O4_35 
ROOT
HETATM    1  C5  UNL     1       9.706  61.774  18.229  1.00  0.00     0.074 A 
HETATM    2  C6  UNL     1       9.100  61.441  19.404  1.00  0.00     0.060 A 
HETATM    3  C11 UNL     1       9.567  62.012  20.609  1.00  0.00     0.020 A 
HETATM    4  C12 UNL     1      10.613  62.886  20.584  1.00  0.00     0.016 A 
HETATM    5  C13 UNL     1      11.235  63.235  19.402  1.00  0.00     0.005 A 
HETATM    6  C14 UNL     1      10.789  62.687  18.234  1.00  0.00     0.072 A 
HETATM    7  N4  UNL     1      11.557  63.193  17.248  1.00  0.00    -0.351 N 
ATOM      8  H4  UNL     1      11.461  62.968  16.258  1.00  0.00     0.166 HD
HETATM    9  C15 UNL     1      12.473  64.038  17.764  1.00  0.00     0.074 A 
HETATM   10  C16 UNL     1      13.496  64.810  17.200  1.00  0.00     0.098 A 
HETATM   11  C22 UNL     1      14.289  65.585  18.025  1.00  0.00     0.118 A 
HETATM   12  C24 UNL     1      14.076  65.603  19.399  1.00  0.00     0.081 A 
HETATM   13  C25 UNL     1      14.899  66.404  20.262  1.00  0.00     0.102 C 
HETATM   14  N7  UNL     1      15.560  67.074  20.966  1.00  0.00    -0.191 NA
HETATM   15  C26 UNL     1      13.087  64.862  19.967  1.00  0.00     0.040 A 
HETATM   16  C27 UNL     1      12.293  64.085  19.126  1.00  0.00     0.007 A 
ENDROOT
BRANCH  11  17
HETATM   17  O4  UNL     1      15.300  66.348  17.487  1.00  0.00    -0.352 OA
HETATM   18  C23 UNL     1      16.640  65.943  17.348  1.00  0.00     0.210 C 
ENDBRANCH  11  17
BRANCH  10  19
HETATM   19  N5  UNL     1      13.616  64.777  15.806  1.00  0.00    -0.323 N 
HETATM   20  C17 UNL     1      14.228  63.813  15.001  1.00  0.00     0.224 C 
HETATM   21  O3  UNL     1      14.781  62.773  15.510  1.00  0.00    -0.273 OA
ATOM     22  H5  UNL     1      13.199  65.565  15.310  1.00  0.00     0.169 HD
BRANCH  20  23
HETATM   23  C18 UNL     1      14.276  63.936  13.502  1.00  0.00     0.133 C 
BRANCH  23  24
HETATM   24  C19 UNL     1      15.676  64.172  13.033  1.00  0.00     0.280 C 
BRANCH  24  25
HETATM   25  N6  UNL     1      16.398  65.088  13.893  1.00  0.00     0.080 N 
HETATM   26  C20 UNL     1      17.747  64.626  14.155  1.00  0.00     0.309 C 
HETATM   27  C21 UNL     1      16.485  66.406  13.306  1.00  0.00     0.309 C 
ENDBRANCH  24  25
ENDBRANCH  23  24
ENDBRANCH  20  23
ENDBRANCH  10  19
BRANCH   1  28
HETATM   28  N2  UNL     1       9.390  61.239  16.944  1.00  0.00    -0.369 N 
HETATM   29  C4  UNL     1       9.914  59.908  16.569  1.00  0.00     0.168 C 
HETATM   30  C3  UNL     1       8.746  59.104  16.073  1.00  0.00     0.083 C 
HETATM   31  N1  UNL     1       8.171  59.719  14.942  1.00  0.00    -0.371 N 
HETATM   32  C29 UNL     1       8.368  61.095  14.727  1.00  0.00     0.083 C 
HETATM   33  C28 UNL     1       8.679  61.934  15.928  1.00  0.00     0.168 C 
BRANCH  31  34
HETATM   34  C2  UNL     1       8.074  58.901  13.779  1.00  0.00     0.122 C 
HETATM   35  C1  UNL     1       7.628  57.489  14.075  1.00  0.00     0.027 C 
ENDBRANCH  31  34
ENDBRANCH   1  28
BRANCH   2  36
HETATM   36  C7  UNL     1       7.962  60.560  19.563  1.00  0.00     0.254 C 
HETATM   37  O1  UNL     1       8.157  59.602  20.387  1.00  0.00    -0.268 OA
HETATM   38  N3  UNL     1       6.736  60.668  18.933  1.00  0.00    -0.355 N 
ATOM     39  H3  UNL     1       6.635  61.459  18.298  1.00  0.00     0.162 HD
BRANCH  38  40
HETATM   40  C8  UNL     1       5.581  59.815  19.052  1.00  0.00     0.149 C 
BRANCH  40  41
HETATM   41  C9  UNL     1       5.227  58.974  17.885  1.00  0.00     0.186 C 
BRANCH  41  42
HETATM   42  O2  UNL     1       5.227  59.564  16.657  1.00  0.00    -0.394 OA
HETATM   43  C10 UNL     1       4.472  58.793  15.767  1.00  0.00     0.201 C 
ENDBRANCH  41  42
ENDBRANCH  40  41
ENDBRANCH  38  40
ENDBRANCH   2  36
TORSDOF 11
ENDMDL
MODEL 2
REMARK VINA RESULT: -8.489032458      1.280      1.784
REMARK  11 active torsions:
REMARK  status: ('A' for Active; 'I' for Inactive)
REMARK    1  A    between atoms: C2_2  and  N1_3 
REMARK    2  A    between atoms: N2_6  and  C5_7 
REMARK    3  A    between atoms: C6_8  and  C7_9 
REMARK       I    between atoms: C7_9  and  N3_11 
REMARK    4  A    between atoms: N3_11  and  C8_13 
REMARK    5  A    between atoms: C8_13  and  C9_14 
REMARK    6  A    between atoms: C9_14  and  O2_15 
REMARK    7  A    between atoms: C16_24  and  N5_25 
REMARK       I    between atoms: N5_25  and  C17_27 
REMARK    8  A    between atoms: C17_27  and  C18_29 
REMARK    9  A    between atoms: C18_29  and  C19_30 
REMARK   10  A    between atoms: C19_30  and  N6_31 
REMARK   11  A    between atoms: C22_34  and  O4_35 
ROOT
HETATM    1  C5  UNL     1      10.156  62.154  18.104  1.00  0.00     0.074 A 
HETATM    2  C6  UNL     1       9.479  61.880  19.255  1.00  0.00     0.060 A 
HETATM    3  C11 UNL     1       9.891  62.489  20.461  1.00  0.00     0.020 A 
HETATM    4  C12 UNL     1      10.956  63.341  20.462  1.00  0.00     0.016 A 
HETATM    5  C13 UNL     1      11.650  63.629  19.304  1.00  0.00     0.005 A 
HETATM    6  C14 UNL     1      11.258  63.044  18.134  1.00  0.00     0.072 A 
HETATM    7  N4  UNL     1      12.091  63.494  17.175  1.00  0.00    -0.351 N 
ATOM      8  H4  UNL     1      12.044  63.232  16.190  1.00  0.00     0.166 HD
HETATM    9  C15 UNL     1      12.995  64.341  17.708  1.00  0.00     0.074 A 
HETATM   10  C16 UNL     1      14.065  65.068  17.173  1.00  0.00     0.098 A 
HETATM   11  C22 UNL     1      14.828  65.860  18.011  1.00  0.00     0.118 A 
HETATM   12  C24 UNL     1      14.539  65.937  19.369  1.00  0.00     0.081 A 
HETATM   13  C25 UNL     1      15.331  66.755  20.245  1.00  0.00     0.102 C 
HETATM   14  N7  UNL     1      15.967  67.439  20.959  1.00  0.00    -0.191 NA
HETATM   15  C26 UNL     1      13.504  65.240  19.909  1.00  0.00     0.040 A 
HETATM   16  C27 UNL     1      12.741  64.445  19.055  1.00  0.00     0.007 A 
ENDROOT
BRANCH  11  17
HETATM   17  O4  UNL     1      15.884  66.580  17.501  1.00  0.00    -0.352 OA
HETATM   18  C23 UNL     1      17.230  66.171  17.513  1.00  0.00     0.210 C 
ENDBRANCH  11  17
BRANCH  10  19
HETATM   19  N5  UNL     1      14.261  64.977  15.790  1.00  0.00    -0.323 N 
HETATM   20  C17 UNL     1      14.732  63.897  15.041  1.00  0.00     0.224 C 
HETATM   21  O3  UNL     1      15.052  62.787  15.600  1.00  0.00    -0.273 OA
ATOM     22  H5  UNL     1      14.027  65.815  15.257  1.00  0.00     0.169 HD
BRANCH  20  23
HETATM   23  C18 UNL     1      14.894  63.969  13.547  1.00  0.00     0.133 C 
BRANCH  23  24
HETATM   24  C19 UNL     1      15.724  65.151  13.158  1.00  0.00     0.280 C 
BRANCH  24  25
HETATM   25  N6  UNL     1      16.802  65.398  14.095  1.00  0.00     0.080 N 
HETATM   26  C20 UNL     1      17.814  64.361  14.032  1.00  0.00     0.309 C 
HETATM   27  C21 UNL     1      17.446  66.665  13.835  1.00  0.00     0.309 C 
ENDBRANCH  24  25
ENDBRANCH  23  24
ENDBRANCH  20  23
ENDBRANCH  10  19
BRANCH   1  28
HETATM   28  N2  UNL     1       9.901  61.574  16.825  1.00  0.00    -0.369 N 
HETATM   29  C4  UNL     1      10.572  60.308  16.459  1.00  0.00     0.168 C 
HETATM   30  C3  UNL     1       9.503  59.371  15.976  1.00  0.00     0.083 C 
HETATM   31  N1  UNL     1       8.859  59.905  14.841  1.00  0.00    -0.371 N 
HETATM   32  C29 UNL     1       8.895  61.293  14.613  1.00  0.00     0.083 C 
HETATM   33  C28 UNL     1       9.112  62.173  15.806  1.00  0.00     0.168 C 
BRANCH  31  34
HETATM   34  C2  UNL     1       8.853  59.071  13.686  1.00  0.00     0.122 C 
HETATM   35  C1  UNL     1       8.037  57.813  13.859  1.00  0.00     0.027 C 
ENDBRANCH  31  34
ENDBRANCH   1  28
BRANCH   2  36
HETATM   36  C7  UNL     1       8.314  61.030  19.384  1.00  0.00     0.254 C 
HETATM   37  O1  UNL     1       7.237  61.661  19.659  1.00  0.00    -0.268 OA
HETATM   38  N3  UNL     1       8.270  59.656  19.234  1.00  0.00    -0.355 N 
ATOM     39  H3  UNL     1       9.157  59.210  19.002  1.00  0.00     0.162 HD
BRANCH  38  40
HETATM   40  C8  UNL     1       7.142  58.769  19.361  1.00  0.00     0.149 C 
BRANCH  40  41
HETATM   41  C9  UNL     1       6.642  58.488  20.727  1.00  0.00     0.186 C 
BRANCH  41  42
HETATM   42  O2  UNL     1       7.562  58.242  21.700  1.00  0.00    -0.394 OA
HETATM   43  C10 UNL     1       7.298  59.050  22.810  1.00  0.00     0.201 C 
ENDBRANCH  41  42
ENDBRANCH  40  41
ENDBRANCH  38  40
ENDBRANCH   2  36
TORSDOF 11
ENDMDL
MODEL 3
REMARK VINA RESULT: -8.445654132      0.909      1.295
REMARK  11 active torsions:
REMARK  status: ('A' for Active; 'I' for Inactive)
REMARK    1  A    between atoms: C2_2  and  N1_3 
REMARK    2  A    between atoms: N2_6  and  C5_7 
REMARK    3  A    between atoms: C6_8  and  C7_9 
REMARK       I    between atoms: C7_9  and  N3_11 
REMARK    4  A    between atoms: N3_11  and  C8_13 
REMARK    5  A    between atoms: C8_13  and  C9_14 
REMARK    6  A    between atoms: C9_14  and  O2_15 
REMARK    7  A    between atoms: C16_24  and  N5_25 
REMARK       I    between atoms: N5_25  and  C17_27 
REMARK    8  A    between atoms: C17_27  and  C18_29 
REMARK    9  A    between atoms: C18_29  and  C19_30 
REMARK   10  A    between atoms: C19_30  and  N6_31 
REMARK   11  A    between atoms: C22_34  and  O4_35 
ROOT
HETATM    1  C5  UNL     1       9.715  61.734  18.155  1.00  0.00     0.074 A 
HETATM    2  C6  UNL     1       9.107  61.378  19.323  1.00  0.00     0.060 A 
HETATM    3  C11 UNL     1       9.564  61.936  20.537  1.00  0.00     0.020 A 
HETATM    4  C12 UNL     1      10.602  62.821  20.529  1.00  0.00     0.016 A 
HETATM    5  C13 UNL     1      11.224  63.192  19.355  1.00  0.00     0.005 A 
HETATM    6  C14 UNL     1      10.789  62.657  18.177  1.00  0.00     0.072 A 
HETATM    7  N4  UNL     1      11.556  63.184  17.202  1.00  0.00    -0.351 N 
ATOM      8  H4  UNL     1      11.465  62.972  16.208  1.00  0.00     0.166 HD
HETATM    9  C15 UNL     1      12.460  64.031  17.733  1.00  0.00     0.074 A 
HETATM   10  C16 UNL     1      13.478  64.820  17.184  1.00  0.00     0.098 A 
HETATM   11  C22 UNL     1      14.260  65.592  18.023  1.00  0.00     0.118 A 
HETATM   12  C24 UNL     1      14.042  65.588  19.397  1.00  0.00     0.081 A 
HETATM   13  C25 UNL     1      14.853  66.385  20.274  1.00  0.00     0.102 C 
HETATM   14  N7  UNL     1      15.505  67.051  20.990  1.00  0.00    -0.191 NA
HETATM   15  C26 UNL     1      13.058  64.830  19.950  1.00  0.00     0.040 A 
HETATM   16  C27 UNL     1      12.275  64.056  19.095  1.00  0.00     0.007 A 
ENDROOT
BRANCH  11  17
HETATM   17  O4  UNL     1      15.266  66.372  17.500  1.00  0.00    -0.352 OA
HETATM   18  C23 UNL     1      16.611  65.983  17.362  1.00  0.00     0.210 C 
ENDBRANCH  11  17
BRANCH  10  19
HETATM   19  N5  UNL     1      13.604  64.808  15.790  1.00  0.00    -0.323 N 
HETATM   20  C17 UNL     1      14.199  63.845  14.972  1.00  0.00     0.224 C 
HETATM   21  O3  UNL     1      14.728  62.786  15.466  1.00  0.00    -0.273 OA
ATOM     22  H5  UNL     1      13.206  65.613  15.305  1.00  0.00     0.169 HD
BRANCH  20  23
HETATM   23  C18 UNL     1      14.257  63.992  13.476  1.00  0.00     0.133 C 
BRANCH  23  24
HETATM   24  C19 UNL     1      15.662  64.223  13.018  1.00  0.00     0.280 C 
BRANCH  24  25
HETATM   25  N6  UNL     1      16.400  65.086  13.918  1.00  0.00     0.080 N 
HETATM   26  C20 UNL     1      17.734  64.577  14.174  1.00  0.00     0.309 C 
HETATM   27  C21 UNL     1      16.527  66.422  13.382  1.00  0.00     0.309 C 
ENDBRANCH  24  25
ENDBRANCH  23  24
ENDBRANCH  20  23
ENDBRANCH  10  19
BRANCH   1  28
HETATM   28  N2  UNL     1       9.409  61.214  16.861  1.00  0.00    -0.369 N 
HETATM   29  C4  UNL     1       9.957  59.898  16.465  1.00  0.00     0.168 C 
HETATM   30  C3  UNL     1       8.805  59.081  15.956  1.00  0.00     0.083 C 
HETATM   31  N1  UNL     1       8.219  59.703  14.835  1.00  0.00    -0.371 N 
HETATM   32  C29 UNL     1       8.390  61.086  14.642  1.00  0.00     0.083 C 
HETATM   33  C28 UNL     1       8.685  61.911  15.857  1.00  0.00     0.168 C 
BRANCH  31  34
HETATM   34  C2  UNL     1       8.138  58.902  13.658  1.00  0.00     0.122 C 
HETATM   35  C1  UNL     1       7.558  57.530  13.906  1.00  0.00     0.027 C 
ENDBRANCH  31  34
ENDBRANCH   1  28
BRANCH   2  36
HETATM   36  C7  UNL     1       7.977  60.484  19.465  1.00  0.00     0.254 C 
HETATM   37  O1  UNL     1       8.138  59.581  20.356  1.00  0.00    -0.268 OA
HETATM   38  N3  UNL     1       6.791  60.528  18.756  1.00  0.00    -0.355 N 
ATOM     39  H3  UNL     1       6.716  61.278  18.069  1.00  0.00     0.162 HD
BRANCH  38  40
HETATM   40  C8  UNL     1       5.646  59.658  18.856  1.00  0.00     0.149 C 
BRANCH  40  41
HETATM   41  C9  UNL     1       4.653  59.953  19.915  1.00  0.00     0.186 C 
BRANCH  41  42
HETATM   42  O2  UNL     1       4.632  59.140  21.007  1.00  0.00    -0.394 OA
HETATM   43  C10 UNL     1       5.084  59.847  22.126  1.00  0.00     0.201 C 
ENDBRANCH  41  42
ENDBRANCH  40  41
ENDBRANCH  38  40
ENDBRANCH   2  36
TORSDOF 11
ENDMDL
MODEL 4
REMARK VINA RESULT: -8.298743492      1.166      1.193
REMARK  11 active torsions:
REMARK  status: ('A' for Active; 'I' for Inactive)
REMARK    1  A    between atoms: C2_2  and  N1_3 
REMARK    2  A    between atoms: N2_6  and  C5_7 
REMARK    3  A    between atoms: C6_8  and  C7_9 
REMARK       I    between atoms: C7_9  and  N3_11 
REMARK    4  A    between atoms: N3_11  and  C8_13 
REMARK    5  A    between atoms: C8_13  and  C9_14 
REMARK    6  A    between atoms: C9_14  and  O2_15 
REMARK    7  A    between atoms: C16_24  and  N5_25 
REMARK       I    between atoms: N5_25  and  C17_27 
REMARK    8  A    between atoms: C17_27  and  C18_29 
REMARK    9  A    between atoms: C18_29  and  C19_30 
REMARK   10  A    between atoms: C19_30  and  N6_31 
REMARK   11  A    between atoms: C22_34  and  O4_35 
ROOT
HETATM    1  C5  UNL     1      10.145  62.569  18.156  1.00  0.00     0.074 A 
HETATM    2  C6  UNL     1       9.216  62.683  19.147  1.00  0.00     0.060 A 
HETATM    3  C11 UNL     1       9.496  63.498  20.267  1.00  0.00     0.020 A 
HETATM    4  C12 UNL     1      10.687  64.159  20.344  1.00  0.00     0.016 A 
HETATM    5  C13 UNL     1      11.635  64.054  19.346  1.00  0.00     0.005 A 
HETATM    6  C14 UNL     1      11.372  63.269  18.262  1.00  0.00     0.072 A 
HETATM    7  N4  UNL     1      12.447  63.347  17.453  1.00  0.00    -0.351 N 
ATOM      8  H4  UNL     1      12.543  62.865  16.559  1.00  0.00     0.166 HD
HETATM    9  C15 UNL     1      13.378  64.156  17.999  1.00  0.00     0.074 A 
HETATM   10  C16 UNL     1      14.653  64.568  17.593  1.00  0.00     0.098 A 
HETATM   11  C22 UNL     1      15.378  65.418  18.407  1.00  0.00     0.118 A 
HETATM   12  C24 UNL     1      14.851  65.862  19.615  1.00  0.00     0.081 A 
HETATM   13  C25 UNL     1      15.602  66.742  20.467  1.00  0.00     0.102 C 
HETATM   14  N7  UNL     1      16.207  67.477  21.156  1.00  0.00    -0.191 NA
HETATM   15  C26 UNL     1      13.615  65.475  20.028  1.00  0.00     0.040 A 
HETATM   16  C27 UNL     1      12.892  64.618  19.200  1.00  0.00     0.007 A 
ENDROOT
BRANCH  11  17
HETATM   17  O4  UNL     1      16.633  65.831  18.024  1.00  0.00    -0.352 OA
HETATM   18  C23 UNL     1      16.917  66.990  17.277  1.00  0.00     0.210 C 
ENDBRANCH  11  17
BRANCH  10  19
HETATM   19  N5  UNL     1      15.093  64.119  16.343  1.00  0.00    -0.323 N 
HETATM   20  C17 UNL     1      14.472  64.246  15.098  1.00  0.00     0.224 C 
HETATM   21  O3  UNL     1      13.345  64.845  14.973  1.00  0.00    -0.273 OA
ATOM     22  H5  UNL     1      15.989  63.631  16.341  1.00  0.00     0.169 HD
BRANCH  20  23
HETATM   23  C18 UNL     1      15.084  63.691  13.839  1.00  0.00     0.133 C 
BRANCH  23  24
HETATM   24  C19 UNL     1      15.555  64.794  12.946  1.00  0.00     0.280 C 
BRANCH  24  25
HETATM   25  N6  UNL     1      16.325  65.791  13.662  1.00  0.00     0.080 N 
HETATM   26  C20 UNL     1      17.638  65.293  14.027  1.00  0.00     0.309 C 
HETATM   27  C21 UNL     1      16.506  66.987  12.871  1.00  0.00     0.309 C 
ENDBRANCH  24  25
ENDBRANCH  23  24
ENDBRANCH  20  23
ENDBRANCH  10  19
BRANCH   1  28
HETATM   28  N2  UNL     1      10.035  61.742  16.998  1.00  0.00    -0.369 N 
HETATM   29  C4  UNL     1      10.656  60.399  17.009  1.00  0.00     0.168 C 
HETATM   30  C3  UNL     1       9.601  59.427  16.564  1.00  0.00     0.083 C 
HETATM   31  N1  UNL     1       9.170  59.735  15.257  1.00  0.00    -0.371 N 
HETATM   32  C29 UNL     1       9.343  61.039  14.760  1.00  0.00     0.083 C 
HETATM   33  C28 UNL     1       9.449  62.143  15.767  1.00  0.00     0.168 C 
BRANCH  31  34
HETATM   34  C2  UNL     1       9.270  58.674  14.310  1.00  0.00     0.122 C 
HETATM   35  C1  UNL     1       7.941  58.036  13.983  1.00  0.00     0.027 C 
ENDBRANCH  31  34
ENDBRANCH   1  28
BRANCH   2  36
HETATM   36  C7  UNL     1       7.905  62.069  19.170  1.00  0.00     0.254 C 
HETATM   37  O1  UNL     1       6.996  62.802  19.690  1.00  0.00    -0.268 OA
HETATM   38  N3  UNL     1       7.569  60.815  18.692  1.00  0.00    -0.355 N 
ATOM     39  H3  UNL     1       8.332  60.283  18.277  1.00  0.00     0.162 HD
BRANCH  38  40
HETATM   40  C8  UNL     1       6.285  60.160  18.701  1.00  0.00     0.149 C 
BRANCH  40  41
HETATM   41  C9  UNL     1       6.010  59.178  17.627  1.00  0.00     0.186 C 
BRANCH  41  42
HETATM   42  O2  UNL     1       5.834  59.655  16.364  1.00  0.00    -0.394 OA
HETATM   43  C10 UNL     1       4.722  59.038  15.781  1.00  0.00     0.201 C 
ENDBRANCH  41  42
ENDBRANCH  40  41
ENDBRANCH  38  40
ENDBRANCH   2  36
TORSDOF 11
ENDMDL
MODEL 5
REMARK VINA RESULT: -8.212271683      2.129     10.112
REMARK  11 active torsions:
REMARK  status: ('A' for Active; 'I' for Inactive)
REMARK    1  A    between atoms: C2_2  and  N1_3 
REMARK    2  A    between atoms: N2_6  and  C5_7 
REMARK    3  A    between atoms: C6_8  and  C7_9 
REMARK       I    between atoms: C7_9  and  N3_11 
REMARK    4  A    between atoms: N3_11  and  C8_13 
REMARK    5  A    between atoms: C8_13  and  C9_14 
REMARK    6  A    between atoms: C9_14  and  O2_15 
REMARK    7  A    between atoms: C16_24  and  N5_25 
REMARK       I    between atoms: N5_25  and  C17_27 
REMARK    8  A    between atoms: C17_27  and  C18_29 
REMARK    9  A    between atoms: C18_29  and  C19_30 
REMARK   10  A    between atoms: C19_30  and  N6_31 
REMARK   11  A    between atoms: C22_34  and  O4_35 
ROOT
HETATM    1  C5  UNL     1      13.651  64.826  16.271  1.00  0.00     0.074 A 
HETATM    2  C6  UNL     1      14.367  64.893  15.113  1.00  0.00     0.060 A 
HETATM    3  C11 UNL     1      13.985  64.088  14.017  1.00  0.00     0.020 A 
HETATM    4  C12 UNL     1      12.909  63.257  14.127  1.00  0.00     0.016 A 
HETATM    5  C13 UNL     1      12.174  63.181  15.293  1.00  0.00     0.005 A 
HETATM    6  C14 UNL     1      12.537  63.955  16.357  1.00  0.00     0.072 A 
HETATM    7  N4  UNL     1      11.662  63.692  17.348  1.00  0.00    -0.351 N 
ATOM      8  H4  UNL     1      11.679  64.123  18.272  1.00  0.00     0.166 HD
HETATM    9  C15 UNL     1      10.764  62.773  16.939  1.00  0.00     0.074 A 
HETATM   10  C16 UNL     1       9.672  62.153  17.557  1.00  0.00     0.098 A 
HETATM   11  C22 UNL     1       8.937  61.220  16.850  1.00  0.00     0.118 A 
HETATM   12  C24 UNL     1       9.273  60.899  15.539  1.00  0.00     0.081 A 
HETATM   13  C25 UNL     1       8.514  59.929  14.800  1.00  0.00     0.102 C 
HETATM   14  N7  UNL     1       7.883  59.148  14.189  1.00  0.00    -0.191 NA
HETATM   15  C26 UNL     1      10.329  61.491  14.919  1.00  0.00     0.040 A 
HETATM   16  C27 UNL     1      11.063  62.430  15.641  1.00  0.00     0.007 A 
ENDROOT
BRANCH  11  17
HETATM   17  O4  UNL     1       7.861  60.600  17.443  1.00  0.00    -0.352 OA
HETATM   18  C23 UNL     1       7.910  59.386  18.153  1.00  0.00     0.210 C 
ENDBRANCH  11  17
BRANCH  10  19
HETATM   19  N5  UNL     1       9.367  62.564  18.859  1.00  0.00    -0.323 N 
HETATM   20  C17 UNL     1       9.984  62.204  20.060  1.00  0.00     0.224 C 
HETATM   21  O3  UNL     1      10.980  61.395  20.081  1.00  0.00    -0.273 OA
ATOM     22  H5  UNL     1       8.587  63.217  18.944  1.00  0.00     0.169 HD
BRANCH  20  23
HETATM   23  C18 UNL     1       9.521  62.736  21.388  1.00  0.00     0.133 C 
BRANCH  23  24
HETATM   24  C19 UNL     1       8.841  61.667  22.183  1.00  0.00     0.280 C 
BRANCH  24  25
HETATM   25  N6  UNL     1       7.897  60.907  21.389  1.00  0.00     0.080 N 
HETATM   26  C20 UNL     1       7.736  59.558  21.895  1.00  0.00     0.309 C 
HETATM   27  C21 UNL     1       6.596  61.535  21.372  1.00  0.00     0.309 C 
ENDBRANCH  24  25
ENDBRANCH  23  24
ENDBRANCH  20  23
ENDBRANCH  10  19
BRANCH   1  28
HETATM   28  N2  UNL     1      13.947  65.527  17.479  1.00  0.00    -0.369 N 
HETATM   29  C4  UNL     1      14.669  64.825  18.562  1.00  0.00     0.168 C 
HETATM   30  C3  UNL     1      15.821  65.703  18.959  1.00  0.00     0.083 C 
HETATM   31  N1  UNL     1      15.350  66.944  19.435  1.00  0.00    -0.371 N 
HETATM   32  C29 UNL     1      14.073  67.393  19.055  1.00  0.00     0.083 C 
HETATM   33  C28 UNL     1      13.511  66.846  17.778  1.00  0.00     0.168 C 
BRANCH  31  34
HETATM   34  C2  UNL     1      15.791  67.311  20.740  1.00  0.00     0.122 C 
HETATM   35  C1  UNL     1      16.763  68.467  20.741  1.00  0.00     0.027 C 
ENDBRANCH  31  34
ENDBRANCH   1  28
BRANCH   2  36
HETATM   36  C7  UNL     1      15.500  65.756  14.852  1.00  0.00     0.254 C 
HETATM   37  O1  UNL     1      15.479  66.307  13.698  1.00  0.00    -0.268 OA
HETATM   38  N3  UNL     1      16.549  66.028  15.711  1.00  0.00    -0.355 N 
ATOM     39  H3  UNL     1      16.504  65.571  16.621  1.00  0.00     0.162 HD
BRANCH  38  40
HETATM   40  C8  UNL     1      17.699  66.870  15.493  1.00  0.00     0.149 C 
BRANCH  40  41
HETATM   41  C9  UNL     1      18.163  67.701  16.628  1.00  0.00     0.186 C 
BRANCH  41  42
HETATM   42  O2  UNL     1      18.915  68.800  16.342  1.00  0.00    -0.394 OA
HETATM   43  C10 UNL     1      18.575  69.840  17.212  1.00  0.00     0.201 C 
ENDBRANCH  41  42
ENDBRANCH  40  41
ENDBRANCH  38  40
ENDBRANCH   2  36
TORSDOF 11
ENDMDL
