MODEL 1
REMARK VINA RESULT: -7.264246961      0.000      0.000
REMARK  3 active torsions:
REMARK  status: ('A' for Active; 'I' for Inactive)
REMARK       I    between atoms: C1_4  and  N3_6 
REMARK    1  A    between atoms: N3_6  and  C2_8 
REMARK    2  A    between atoms: C4_15  and  N6_16 
REMARK    3  A    between atoms: N7_19  and  N8_20 
ROOT
HETATM    1  C2  UNL     1      34.422  22.011  32.253  1.00  0.00     0.724 A 
HETATM    2  N4  UNL     1      34.923  23.248  32.117  1.00  0.00    -0.138 N 
ATOM      3  H4  UNL     1      35.856  23.464  32.468  1.00  0.00     0.189 HD
HETATM    4  C3  UNL     1      34.191  24.202  31.517  1.00  0.00     0.352 A 
HETATM    5  O1  UNL     1      34.611  25.380  31.361  1.00  0.00    -0.246 OA
HETATM    6  N5  UNL     1      32.961  23.923  31.053  1.00  0.00    -0.139 N 
ATOM      7  H5  UNL     1      32.406  24.648  30.597  1.00  0.00     0.189 HD
HETATM    8  C4  UNL     1      32.462  22.666  31.194  1.00  0.00     0.715 A 
HETATM    9  N7  UNL     1      33.194  21.724  31.793  1.00  0.00     0.083 N 
ENDROOT
BRANCH   1  10
HETATM   10  N3  UNL     1      35.084  21.059  32.822  1.00  0.00    -0.161 N 
HETATM   11  C1  UNL     1      35.177  20.890  34.217  1.00  0.00     0.200 C 
HETATM   12  N1  UNL     1      34.631  19.890  34.814  1.00  0.00    -0.373 N 
HETATM   13  N2  UNL     1      35.885  21.836  35.004  1.00  0.00    -0.063 NA
ATOM     14  H12 UNL     1      34.699  19.769  35.824  1.00  0.00     0.158 HD
ATOM     15  H11 UNL     1      34.122  19.210  34.249  1.00  0.00     0.158 HD
ATOM     16  H3  UNL     1      35.568  20.389  32.225  1.00  0.00     0.187 HD
ENDBRANCH   1  10
BRANCH   9  17
HETATM   17  N8  UNL     1      32.682  20.436  31.938  1.00  0.00    -0.309 N 
ATOM     18  H82 UNL     1      32.019  20.073  31.254  1.00  0.00     0.178 HD
ATOM     19  H81 UNL     1      32.974  19.860  32.728  1.00  0.00     0.178 HD
ENDBRANCH   9  17
BRANCH   8  20
HETATM   20  N6  UNL     1      31.286  22.422  30.744  1.00  0.00    -0.232 N 
ATOM     21  H62 UNL     1      30.567  23.144  30.702  1.00  0.00     0.174 HD
ATOM     22  H61 UNL     1      31.077  21.478  30.421  1.00  0.00     0.174 HD
ENDBRANCH   8  20
TORSDOF 3
ENDMDL
MODEL 2
REMARK VINA RESULT: -7.253042140      2.198      2.899
REMARK  3 active torsions:
REMARK  status: ('A' for Active; 'I' for Inactive)
REMARK       I    between atoms: C1_4  and  N3_6 
REMARK    1  A    between atoms: N3_6  and  C2_8 
REMARK    2  A    between atoms: C4_15  and  N6_16 
REMARK    3  A    between atoms: N7_19  and  N8_20 
ROOT
HETATM    1  C2  UNL     1      34.235  21.059  32.480  1.00  0.00     0.724 A 
HETATM    2  N4  UNL     1      33.380  20.030  32.384  1.00  0.00    -0.138 N 
ATOM      3  H4  UNL     1      33.597  19.140  32.832  1.00  0.00     0.189 HD
HETATM    4  C3  UNL     1      32.235  20.175  31.694  1.00  0.00     0.352 A 
HETATM    5  O1  UNL     1      31.395  19.243  31.571  1.00  0.00    -0.246 OA
HETATM    6  N5  UNL     1      31.944  21.346  31.102  1.00  0.00    -0.139 N 
ATOM      7  H5  UNL     1      31.075  21.455  30.579  1.00  0.00     0.189 HD
HETATM    8  C4  UNL     1      32.816  22.384  31.205  1.00  0.00     0.715 A 
HETATM    9  N7  UNL     1      33.952  22.231  31.890  1.00  0.00     0.083 N 
ENDROOT
BRANCH   1  10
HETATM   10  N3  UNL     1      35.347  20.971  33.130  1.00  0.00    -0.161 N 
HETATM   11  C1  UNL     1      35.480  21.251  34.504  1.00  0.00     0.200 C 
HETATM   12  N1  UNL     1      35.744  20.326  35.358  1.00  0.00    -0.373 N 
HETATM   13  N2  UNL     1      35.321  22.578  34.979  1.00  0.00    -0.063 NA
ATOM     14  H12 UNL     1      35.839  20.530  36.353  1.00  0.00     0.158 HD
ATOM     15  H11 UNL     1      35.858  19.372  35.017  1.00  0.00     0.158 HD
ATOM     16  H3  UNL     1      36.180  20.682  32.617  1.00  0.00     0.187 HD
ENDBRANCH   1  10
BRANCH   9  17
HETATM   17  N8  UNL     1      34.846  23.295  31.996  1.00  0.00    -0.309 N 
ATOM     18  H82 UNL     1      35.349  23.450  32.870  1.00  0.00     0.178 HD
ATOM     19  H81 UNL     1      34.996  23.914  31.200  1.00  0.00     0.178 HD
ENDBRANCH   9  17
BRANCH   8  20
HETATM   20  N6  UNL     1      32.518  23.491  30.632  1.00  0.00    -0.232 N 
ATOM     21  H62 UNL     1      31.805  23.544  29.905  1.00  0.00     0.174 HD
ATOM     22  H61 UNL     1      33.012  24.335  30.921  1.00  0.00     0.174 HD
ENDBRANCH   8  20
TORSDOF 3
ENDMDL
MODEL 3
REMARK VINA RESULT: -7.133865516      1.818      2.251
REMARK  3 active torsions:
REMARK  status: ('A' for Active; 'I' for Inactive)
REMARK       I    between atoms: C1_4  and  N3_6 
REMARK    1  A    between atoms: N3_6  and  C2_8 
REMARK    2  A    between atoms: C4_15  and  N6_16 
REMARK    3  A    between atoms: N7_19  and  N8_20 
ROOT
HETATM    1  C2  UNL     1      33.421  21.266  31.898  1.00  0.00     0.724 A 
HETATM    2  N4  UNL     1      32.395  22.098  32.132  1.00  0.00    -0.138 N 
ATOM      3  H4  UNL     1      31.814  21.973  32.961  1.00  0.00     0.189 HD
HETATM    4  C3  UNL     1      32.134  23.097  31.272  1.00  0.00     0.352 A 
HETATM    5  O1  UNL     1      31.185  23.908  31.442  1.00  0.00    -0.246 OA
HETATM    6  N5  UNL     1      32.897  23.266  30.178  1.00  0.00    -0.139 N 
ATOM      7  H5  UNL     1      32.699  24.025  29.525  1.00  0.00     0.189 HD
HETATM    8  C4  UNL     1      33.935  22.419  29.949  1.00  0.00     0.715 A 
HETATM    9  N7  UNL     1      34.187  21.429  30.807  1.00  0.00     0.083 N 
ENDROOT
BRANCH   1  10
HETATM   10  N3  UNL     1      33.713  20.291  32.692  1.00  0.00    -0.161 N 
HETATM   11  C1  UNL     1      34.520  20.426  33.839  1.00  0.00     0.200 C 
HETATM   12  N1  UNL     1      34.036  20.293  35.023  1.00  0.00    -0.373 N 
HETATM   13  N2  UNL     1      35.902  20.716  33.708  1.00  0.00    -0.063 NA
ATOM     14  H12 UNL     1      34.620  20.390  35.853  1.00  0.00     0.158 HD
ATOM     15  H11 UNL     1      33.042  20.084  35.118  1.00  0.00     0.158 HD
ATOM     16  H3  UNL     1      33.337  19.368  32.476  1.00  0.00     0.187 HD
ENDBRANCH   1  10
BRANCH   9  17
HETATM   17  N8  UNL     1      35.251  20.560  30.571  1.00  0.00    -0.309 N 
ATOM     18  H82 UNL     1      35.980  20.819  29.906  1.00  0.00     0.178 HD
ATOM     19  H81 UNL     1      35.299  19.670  31.066  1.00  0.00     0.178 HD
ENDBRANCH   9  17
BRANCH   8  20
HETATM   20  N6  UNL     1      34.649  22.599  28.899  1.00  0.00    -0.232 N 
ATOM     21  H62 UNL     1      34.734  23.515  28.458  1.00  0.00     0.174 HD
ATOM     22  H61 UNL     1      35.142  21.799  28.504  1.00  0.00     0.174 HD
ENDBRANCH   8  20
TORSDOF 3
ENDMDL
MODEL 4
REMARK VINA RESULT: -7.039714461      1.854      2.360
REMARK  3 active torsions:
REMARK  status: ('A' for Active; 'I' for Inactive)
REMARK       I    between atoms: C1_4  and  N3_6 
REMARK    1  A    between atoms: N3_6  and  C2_8 
REMARK    2  A    between atoms: C4_15  and  N6_16 
REMARK    3  A    between atoms: N7_19  and  N8_20 
ROOT
HETATM    1  C2  UNL     1      33.617  21.975  33.069  1.00  0.00     0.724 A 
HETATM    2  N4  UNL     1      34.211  22.493  31.984  1.00  0.00    -0.138 N 
ATOM      3  H4  UNL     1      34.890  23.247  32.083  1.00  0.00     0.189 HD
HETATM    4  C3  UNL     1      33.910  22.015  30.765  1.00  0.00     0.352 A 
HETATM    5  O1  UNL     1      34.437  22.463  29.711  1.00  0.00    -0.246 OA
HETATM    6  N5  UNL     1      33.015  21.021  30.628  1.00  0.00    -0.139 N 
ATOM      7  H5  UNL     1      32.786  20.659  29.702  1.00  0.00     0.189 HD
HETATM    8  C4  UNL     1      32.418  20.501  31.734  1.00  0.00     0.715 A 
HETATM    9  N7  UNL     1      32.722  20.982  32.941  1.00  0.00     0.083 N 
ENDROOT
BRANCH   1  10
HETATM   10  N3  UNL     1      33.871  22.399  34.262  1.00  0.00    -0.161 N 
HETATM   11  C1  UNL     1      35.168  22.493  34.803  1.00  0.00     0.200 C 
HETATM   12  N1  UNL     1      35.709  23.630  35.063  1.00  0.00    -0.373 N 
HETATM   13  N2  UNL     1      35.914  21.317  35.075  1.00  0.00    -0.063 NA
ATOM     14  H12 UNL     1      36.649  23.698  35.455  1.00  0.00     0.158 HD
ATOM     15  H11 UNL     1      35.173  24.476  34.868  1.00  0.00     0.158 HD
ATOM     16  H3  UNL     1      33.086  22.682  34.848  1.00  0.00     0.187 HD
ENDBRANCH   1  10
BRANCH   9  17
HETATM   17  N8  UNL     1      32.110  20.450  34.074  1.00  0.00    -0.309 N 
ATOM     18  H82 UNL     1      31.700  21.073  34.769  1.00  0.00     0.178 HD
ATOM     19  H81 UNL     1      32.072  19.439  34.203  1.00  0.00     0.178 HD
ENDBRANCH   9  17
BRANCH   8  20
HETATM   20  N6  UNL     1      31.568  19.554  31.579  1.00  0.00    -0.232 N 
ATOM     21  H62 UNL     1      31.829  18.662  31.160  1.00  0.00     0.174 HD
ATOM     22  H61 UNL     1      30.609  19.707  31.891  1.00  0.00     0.174 HD
ENDBRANCH   8  20
TORSDOF 3
ENDMDL
MODEL 5
REMARK VINA RESULT: -6.997264723      2.425      4.327
REMARK  3 active torsions:
REMARK  status: ('A' for Active; 'I' for Inactive)
REMARK       I    between atoms: C1_4  and  N3_6 
REMARK    1  A    between atoms: N3_6  and  C2_8 
REMARK    2  A    between atoms: C4_15  and  N6_16 
REMARK    3  A    between atoms: N7_19  and  N8_20 
ROOT
HETATM    1  C2  UNL     1      32.559  21.987  32.577  1.00  0.00     0.724 A 
HETATM    2  N4  UNL     1      32.362  21.764  31.268  1.00  0.00    -0.138 N 
ATOM      3  H4  UNL     1      31.583  22.210  30.785  1.00  0.00     0.189 HD
HETATM    4  C3  UNL     1      33.194  20.949  30.597  1.00  0.00     0.352 A 
HETATM    5  O1  UNL     1      33.057  20.704  29.368  1.00  0.00    -0.246 OA
HETATM    6  N5  UNL     1      34.221  20.358  31.230  1.00  0.00    -0.139 N 
ATOM      7  H5  UNL     1      34.853  19.740  30.719  1.00  0.00     0.189 HD
HETATM    8  C4  UNL     1      34.415  20.591  32.555  1.00  0.00     0.715 A 
HETATM    9  N7  UNL     1      33.584  21.400  33.216  1.00  0.00     0.083 N 
ENDROOT
BRANCH   1  10
HETATM   10  N3  UNL     1      31.789  22.760  33.267  1.00  0.00    -0.161 N 
HETATM   11  C1  UNL     1      30.445  23.026  32.941  1.00  0.00     0.200 C 
HETATM   12  N1  UNL     1      29.478  22.607  33.678  1.00  0.00    -0.373 N 
HETATM   13  N2  UNL     1      30.128  23.771  31.776  1.00  0.00    -0.063 NA
ATOM     14  H12 UNL     1      28.504  22.800  33.442  1.00  0.00     0.158 HD
ATOM     15  H11 UNL     1      29.705  22.072  34.516  1.00  0.00     0.158 HD
ATOM     16  H3  UNL     1      32.178  23.206  34.098  1.00  0.00     0.187 HD
ENDBRANCH   1  10
BRANCH   9  17
HETATM   17  N8  UNL     1      33.781  21.638  34.575  1.00  0.00    -0.309 N 
ATOM     18  H82 UNL     1      32.979  21.786  35.186  1.00  0.00     0.178 HD
ATOM     19  H81 UNL     1      34.728  21.661  34.953  1.00  0.00     0.178 HD
ENDBRANCH   9  17
BRANCH   8  20
HETATM   20  N6  UNL     1      35.402  20.016  33.138  1.00  0.00    -0.232 N 
ATOM     21  H62 UNL     1      35.623  20.192  34.118  1.00  0.00     0.174 HD
ATOM     22  H61 UNL     1      35.972  19.365  32.598  1.00  0.00     0.174 HD
ENDBRANCH   8  20
TORSDOF 3
ENDMDL
