MODEL 1
REMARK VINA RESULT: -6.088280390      0.000      0.000
REMARK  6 active torsions:
REMARK  status: ('A' for Active; 'I' for Inactive)
REMARK    1  A    between atoms: C2_2  and  C3_3 
REMARK    2  A    between atoms: C2_2  and  N3_8 
REMARK    3  A    between atoms: C3_3  and  N1_4 
REMARK    4  A    between atoms: N1_4  and  N2_5 
REMARK    5  A    between atoms: N3_8  and  C4_10 
REMARK    6  A    between atoms: N6_16  and  N7_17 
ROOT
HETATM    1  C4  UNL     1     -42.270   0.190   5.711  1.00  0.00     0.714 A 
HETATM    2  N4  UNL     1     -42.567  -0.465   6.836  1.00  0.00    -0.130 N 
ATOM      3  H4  UNL     1     -43.202  -0.151   7.570  1.00  0.00     0.205 HD
HETATM    4  N5  UNL     1     -41.889  -1.588   6.821  1.00  0.00    -0.279 N 
ATOM      5  H5  UNL     1     -41.910  -2.300   7.551  1.00  0.00     0.188 HD
HETATM    6  C5  UNL     1     -41.161  -1.654   5.691  1.00  0.00     0.241 A 
HETATM    7  N6  UNL     1     -41.402  -0.524   4.985  1.00  0.00    -0.086 N 
ENDROOT
BRANCH   1   8
HETATM    8  N3  UNL     1     -42.727   1.332   5.345  1.00  0.00    -0.217 N 
ATOM      9  H3  UNL     1     -43.642   1.362   4.896  1.00  0.00     0.178 HD
BRANCH   8  10
HETATM   10  C2  UNL     1     -42.020   2.579   5.531  1.00  0.00     0.111 C 
HETATM   11  C1  UNL     1     -42.048   2.954   6.974  1.00  0.00     0.034 C 
BRANCH  10  12
HETATM   12  C3  UNL     1     -42.693   3.604   4.638  1.00  0.00     0.159 C 
BRANCH  12  13
HETATM   13  N1  UNL     1     -42.228   4.938   4.890  1.00  0.00    -0.146 NA
BRANCH  13  14
HETATM   14  N2  UNL     1     -43.354   5.759   5.033  1.00  0.00    -0.348 N 
ATOM     15  H22 UNL     1     -44.323   5.444   5.002  1.00  0.00     0.172 HD
ATOM     16  H21 UNL     1     -43.023   6.714   5.172  1.00  0.00     0.172 HD
ENDBRANCH  13  14
ENDBRANCH  12  13
ENDBRANCH  10  12
ENDBRANCH   8  10
ENDBRANCH   1   8
BRANCH   7  17
HETATM   17  N7  UNL     1     -40.852  -0.172   3.742  1.00  0.00    -0.323 N 
ATOM     18  H72 UNL     1     -40.458   0.731   3.480  1.00  0.00     0.178 HD
ATOM     19  H71 UNL     1     -40.767  -0.769   2.919  1.00  0.00     0.178 HD
ENDBRANCH   7  17
TORSDOF 6
ENDMDL
MODEL 2
REMARK VINA RESULT: -5.988259417      1.905      4.721
REMARK  6 active torsions:
REMARK  status: ('A' for Active; 'I' for Inactive)
REMARK    1  A    between atoms: C2_2  and  C3_3 
REMARK    2  A    between atoms: C2_2  and  N3_8 
REMARK    3  A    between atoms: C3_3  and  N1_4 
REMARK    4  A    between atoms: N1_4  and  N2_5 
REMARK    5  A    between atoms: N3_8  and  C4_10 
REMARK    6  A    between atoms: N6_16  and  N7_17 
ROOT
HETATM    1  C4  UNL     1     -41.557   1.195   5.885  1.00  0.00     0.714 A 
HETATM    2  N4  UNL     1     -42.867   0.964   5.997  1.00  0.00    -0.130 N 
ATOM      3  H4  UNL     1     -43.336   0.064   5.884  1.00  0.00     0.205 HD
HETATM    4  N5  UNL     1     -43.439   2.110   6.279  1.00  0.00    -0.279 N 
ATOM      5  H5  UNL     1     -44.439   2.251   6.423  1.00  0.00     0.188 HD
HETATM    6  C5  UNL     1     -42.500   3.072   6.349  1.00  0.00     0.241 A 
HETATM    7  N6  UNL     1     -41.303   2.491   6.098  1.00  0.00    -0.086 N 
ENDROOT
BRANCH   1   8
HETATM    8  N3  UNL     1     -40.646   0.331   5.615  1.00  0.00    -0.217 N 
ATOM      9  H3  UNL     1     -39.679   0.651   5.569  1.00  0.00     0.178 HD
BRANCH   8  10
HETATM   10  C2  UNL     1     -40.910  -1.069   5.372  1.00  0.00     0.111 C 
HETATM   11  C1  UNL     1     -40.622  -1.850   6.609  1.00  0.00     0.034 C 
BRANCH  10  12
HETATM   12  C3  UNL     1     -40.048  -1.482   4.194  1.00  0.00     0.159 C 
BRANCH  12  13
HETATM   13  N1  UNL     1     -40.604  -1.066   2.938  1.00  0.00    -0.146 NA
BRANCH  13  14
HETATM   14  N2  UNL     1     -39.675  -1.382   1.938  1.00  0.00    -0.348 N 
ATOM     15  H22 UNL     1     -38.695  -1.616   2.094  1.00  0.00     0.172 HD
ATOM     16  H21 UNL     1     -40.160  -1.335   1.041  1.00  0.00     0.172 HD
ENDBRANCH  13  14
ENDBRANCH  12  13
ENDBRANCH  10  12
ENDBRANCH   8  10
ENDBRANCH   1   8
BRANCH   7  17
HETATM   17  N7  UNL     1     -40.049   3.121   6.067  1.00  0.00    -0.323 N 
ATOM     18  H72 UNL     1     -39.660   3.675   5.304  1.00  0.00     0.178 HD
ATOM     19  H71 UNL     1     -39.343   3.117   6.803  1.00  0.00     0.178 HD
ENDBRANCH   7  17
TORSDOF 6
ENDMDL
MODEL 3
REMARK VINA RESULT: -5.971035287      0.793      1.793
REMARK  6 active torsions:
REMARK  status: ('A' for Active; 'I' for Inactive)
REMARK    1  A    between atoms: C2_2  and  C3_3 
REMARK    2  A    between atoms: C2_2  and  N3_8 
REMARK    3  A    between atoms: C3_3  and  N1_4 
REMARK    4  A    between atoms: N1_4  and  N2_5 
REMARK    5  A    between atoms: N3_8  and  C4_10 
REMARK    6  A    between atoms: N6_16  and  N7_17 
ROOT
HETATM    1  C4  UNL     1     -41.580   0.321   5.252  1.00  0.00     0.714 A 
HETATM    2  N4  UNL     1     -40.664   0.080   4.311  1.00  0.00    -0.130 N 
ATOM      3  H4  UNL     1     -40.321   0.744   3.616  1.00  0.00     0.205 HD
HETATM    4  N5  UNL     1     -40.289  -1.169   4.447  1.00  0.00    -0.279 N 
ATOM      5  H5  UNL     1     -39.596  -1.643   3.867  1.00  0.00     0.188 HD
HETATM    6  C5  UNL     1     -40.960  -1.728   5.471  1.00  0.00     0.241 A 
HETATM    7  N6  UNL     1     -41.781  -0.781   5.983  1.00  0.00    -0.086 N 
ENDROOT
BRANCH   1   8
HETATM    8  N3  UNL     1     -42.197   1.428   5.457  1.00  0.00    -0.217 N 
ATOM      9  H3  UNL     1     -43.141   1.388   5.841  1.00  0.00     0.178 HD
BRANCH   8  10
HETATM   10  C2  UNL     1     -41.632   2.728   5.177  1.00  0.00     0.111 C 
HETATM   11  C1  UNL     1     -40.731   3.129   6.295  1.00  0.00     0.034 C 
BRANCH  10  12
HETATM   12  C3  UNL     1     -42.798   3.681   4.982  1.00  0.00     0.159 C 
BRANCH  12  13
HETATM   13  N1  UNL     1     -42.370   5.042   4.828  1.00  0.00    -0.146 NA
BRANCH  13  14
HETATM   14  N2  UNL     1     -43.458   5.865   5.146  1.00  0.00    -0.348 N 
ATOM     15  H22 UNL     1     -44.299   5.570   5.642  1.00  0.00     0.172 HD
ATOM     16  H21 UNL     1     -43.251   6.800   4.793  1.00  0.00     0.172 HD
ENDBRANCH  13  14
ENDBRANCH  12  13
ENDBRANCH  10  12
ENDBRANCH   8  10
ENDBRANCH   1   8
BRANCH   7  17
HETATM   17  N7  UNL     1     -42.666  -0.927   7.063  1.00  0.00    -0.323 N 
ATOM     18  H72 UNL     1     -43.487  -0.356   7.265  1.00  0.00     0.178 HD
ATOM     19  H71 UNL     1     -42.618  -1.626   7.804  1.00  0.00     0.178 HD
ENDBRANCH   7  17
TORSDOF 6
ENDMDL
MODEL 4
REMARK VINA RESULT: -5.909671086      1.384      1.539
REMARK  6 active torsions:
REMARK  status: ('A' for Active; 'I' for Inactive)
REMARK    1  A    between atoms: C2_2  and  C3_3 
REMARK    2  A    between atoms: C2_2  and  N3_8 
REMARK    3  A    between atoms: C3_3  and  N1_4 
REMARK    4  A    between atoms: N1_4  and  N2_5 
REMARK    5  A    between atoms: N3_8  and  C4_10 
REMARK    6  A    between atoms: N6_16  and  N7_17 
ROOT
HETATM    1  C4  UNL     1     -40.866  -0.168   5.135  1.00  0.00     0.714 A 
HETATM    2  N4  UNL     1     -40.623  -0.770   6.301  1.00  0.00    -0.130 N 
ATOM      3  H4  UNL     1     -40.752  -0.367   7.230  1.00  0.00     0.205 HD
HETATM    4  N5  UNL     1     -40.185  -1.976   6.029  1.00  0.00    -0.279 N 
ATOM      5  H5  UNL     1     -39.914  -2.675   6.721  1.00  0.00     0.188 HD
HETATM    6  C5  UNL     1     -40.149  -2.147   4.695  1.00  0.00     0.241 A 
HETATM    7  N6  UNL     1     -40.582  -0.998   4.126  1.00  0.00    -0.086 N 
ENDROOT
BRANCH   1   8
HETATM    8  N3  UNL     1     -41.307   1.026   4.965  1.00  0.00    -0.217 N 
ATOM      9  H3  UNL     1     -41.276   1.421   4.025  1.00  0.00     0.178 HD
BRANCH   8  10
HETATM   10  C2  UNL     1     -41.847   1.844   6.028  1.00  0.00     0.111 C 
HETATM   11  C1  UNL     1     -43.321   1.637   6.113  1.00  0.00     0.034 C 
BRANCH  10  12
HETATM   12  C3  UNL     1     -41.465   3.279   5.715  1.00  0.00     0.159 C 
BRANCH  12  13
HETATM   13  N1  UNL     1     -42.471   4.214   6.130  1.00  0.00    -0.146 NA
BRANCH  13  14
HETATM   14  N2  UNL     1     -42.748   5.049   5.040  1.00  0.00    -0.348 N 
ATOM     15  H22 UNL     1     -43.475   4.890   4.342  1.00  0.00     0.172 HD
ATOM     16  H21 UNL     1     -42.095   5.833   5.078  1.00  0.00     0.172 HD
ENDBRANCH  13  14
ENDBRANCH  12  13
ENDBRANCH  10  12
ENDBRANCH   8  10
ENDBRANCH   1   8
BRANCH   7  17
HETATM   17  N7  UNL     1     -40.706  -0.731   2.753  1.00  0.00    -0.323 N 
ATOM     18  H72 UNL     1     -41.049   0.128   2.324  1.00  0.00     0.178 HD
ATOM     19  H71 UNL     1     -40.472  -1.358   1.983  1.00  0.00     0.178 HD
ENDBRANCH   7  17
TORSDOF 6
ENDMDL
MODEL 5
REMARK VINA RESULT: -5.815372268      1.194      1.771
REMARK  6 active torsions:
REMARK  status: ('A' for Active; 'I' for Inactive)
REMARK    1  A    between atoms: C2_2  and  C3_3 
REMARK    2  A    between atoms: C2_2  and  N3_8 
REMARK    3  A    between atoms: C3_3  and  N1_4 
REMARK    4  A    between atoms: N1_4  and  N2_5 
REMARK    5  A    between atoms: N3_8  and  C4_10 
REMARK    6  A    between atoms: N6_16  and  N7_17 
ROOT
HETATM    1  C4  UNL     1     -42.091   0.129   5.590  1.00  0.00     0.714 A 
HETATM    2  N4  UNL     1     -42.534  -0.407   6.730  1.00  0.00    -0.130 N 
ATOM      3  H4  UNL     1     -43.187   0.021   7.387  1.00  0.00     0.205 HD
HETATM    4  N5  UNL     1     -41.972  -1.587   6.846  1.00  0.00    -0.279 N 
ATOM      5  H5  UNL     1     -42.118  -2.235   7.620  1.00  0.00     0.188 HD
HETATM    6  C5  UNL     1     -41.173  -1.806   5.786  1.00  0.00     0.241 A 
HETATM    7  N6  UNL     1     -41.248  -0.716   4.987  1.00  0.00    -0.086 N 
ENDROOT
BRANCH   1   8
HETATM    8  N3  UNL     1     -42.403   1.279   5.111  1.00  0.00    -0.217 N 
ATOM      9  H3  UNL     1     -42.122   1.492   4.154  1.00  0.00     0.178 HD
BRANCH   8  10
HETATM   10  C2  UNL     1     -43.129   2.288   5.847  1.00  0.00     0.111 C 
HETATM   11  C1  UNL     1     -43.844   3.182   4.891  1.00  0.00     0.034 C 
BRANCH  10  12
HETATM   12  C3  UNL     1     -42.114   3.024   6.702  1.00  0.00     0.159 C 
BRANCH  12  13
HETATM   13  N1  UNL     1     -41.170   3.763   5.915  1.00  0.00    -0.146 NA
BRANCH  13  14
HETATM   14  N2  UNL     1     -39.895   3.251   6.190  1.00  0.00    -0.348 N 
ATOM     15  H22 UNL     1     -39.637   2.264   6.169  1.00  0.00     0.172 HD
ATOM     16  H21 UNL     1     -39.287   4.040   6.410  1.00  0.00     0.172 HD
ENDBRANCH  13  14
ENDBRANCH  12  13
ENDBRANCH  10  12
ENDBRANCH   8  10
ENDBRANCH   1   8
BRANCH   7  17
HETATM   17  N7  UNL     1     -40.575  -0.513   3.771  1.00  0.00    -0.323 N 
ATOM     18  H72 UNL     1     -39.698  -0.011   3.633  1.00  0.00     0.178 HD
ATOM     19  H71 UNL     1     -40.864  -0.839   2.850  1.00  0.00     0.178 HD
ENDBRANCH   7  17
TORSDOF 6
ENDMDL
