MODEL 1
REMARK VINA RESULT: -6.487868529      0.000      0.000
REMARK  4 active torsions:
REMARK  status: ('A' for Active; 'I' for Inactive)
REMARK    1  A    between atoms: N1_2  and  C2_4 
REMARK    2  A    between atoms: C2_4  and  C3_5 
REMARK    3  A    between atoms: C2_4  and  C4_10 
REMARK    4  A    between atoms: C3_5  and  N2_6 
ROOT
HETATM    1  C4  UNL     1     -41.694   0.058   5.632  1.00  0.00     0.081 A 
HETATM    2  N3  UNL     1     -42.179  -0.630   6.675  1.00  0.00    -0.299 N 
ATOM      3  H3  UNL     1     -42.816  -0.247   7.375  1.00  0.00     0.186 HD
HETATM    4  N4  UNL     1     -41.722  -1.875   6.676  1.00  0.00    -0.282 N 
ATOM      5  H4  UNL     1     -41.947  -2.590   7.367  1.00  0.00     0.188 HD
HETATM    6  C5  UNL     1     -40.900  -2.038   5.602  1.00  0.00     0.163 A 
HETATM    7  N5  UNL     1     -40.096  -2.898   4.908  1.00  0.00    -0.266 N 
ATOM      8  H5  UNL     1     -39.898  -3.872   5.135  1.00  0.00     0.186 HD
HETATM    9  N6  UNL     1     -39.622  -2.200   3.871  1.00  0.00    -0.020 NA
HETATM   10  N7  UNL     1     -40.095  -0.966   3.897  1.00  0.00    -0.279 N 
ATOM     11  H7  UNL     1     -39.881  -0.240   3.214  1.00  0.00     0.184 HD
HETATM   12  C6  UNL     1     -40.900  -0.814   4.962  1.00  0.00     0.118 A 
ENDROOT
BRANCH   1  13
HETATM   13  C2  UNL     1     -41.962   1.503   5.308  1.00  0.00     0.156 C 
BRANCH  13  14
HETATM   14  N1  UNL     1     -40.696   2.170   5.621  1.00  0.00    -0.415 N 
HETATM   15  C1  UNL     1     -40.814   3.414   6.282  1.00  0.00     0.140 C 
ATOM     16  H1  UNL     1     -39.793   1.764   5.377  1.00  0.00     0.153 HD
ENDBRANCH  13  14
BRANCH  13  17
HETATM   17  C3  UNL     1     -43.006   2.060   6.265  1.00  0.00     0.260 C 
BRANCH  17  18
HETATM   18  N2  UNL     1     -44.088   2.699   5.514  1.00  0.00    -0.077 N 
ATOM     19  H23 UNL     1     -43.803   2.940   4.565  1.00  0.00     0.274 HD
ATOM     20  H22 UNL     1     -44.834   2.042   5.285  1.00  0.00     0.274 HD
ATOM     21  H21 UNL     1     -44.437   3.511   6.024  1.00  0.00     0.274 HD
ENDBRANCH  17  18
ENDBRANCH  13  17
ENDBRANCH   1  13
TORSDOF 4
ENDMDL
MODEL 2
REMARK VINA RESULT: -6.424620024      1.357      4.646
REMARK  4 active torsions:
REMARK  status: ('A' for Active; 'I' for Inactive)
REMARK    1  A    between atoms: N1_2  and  C2_4 
REMARK    2  A    between atoms: C2_4  and  C3_5 
REMARK    3  A    between atoms: C2_4  and  C4_10 
REMARK    4  A    between atoms: C3_5  and  N2_6 
ROOT
HETATM    1  C4  UNL     1     -41.592   0.636   5.935  1.00  0.00     0.081 A 
HETATM    2  N3  UNL     1     -42.900   0.477   6.183  1.00  0.00    -0.299 N 
ATOM      3  H3  UNL     1     -43.365  -0.426   6.280  1.00  0.00     0.186 HD
HETATM    4  N4  UNL     1     -43.509   1.650   6.283  1.00  0.00    -0.282 N 
ATOM      5  H4  UNL     1     -44.502   1.791   6.468  1.00  0.00     0.188 HD
HETATM    6  C5  UNL     1     -42.588   2.637   6.098  1.00  0.00     0.163 A 
HETATM    7  N5  UNL     1     -42.363   3.984   6.043  1.00  0.00    -0.266 N 
ATOM      8  H5  UNL     1     -43.050   4.727   6.164  1.00  0.00     0.186 HD
HETATM    9  N6  UNL     1     -41.056   4.127   5.799  1.00  0.00    -0.020 NA
HETATM   10  N7  UNL     1     -40.477   2.942   5.704  1.00  0.00    -0.279 N 
ATOM     11  H7  UNL     1     -39.486   2.785   5.522  1.00  0.00     0.184 HD
HETATM   12  C6  UNL     1     -41.395   1.976   5.884  1.00  0.00     0.118 A 
ENDROOT
BRANCH   1  13
HETATM   13  C2  UNL     1     -40.579  -0.458   5.730  1.00  0.00     0.156 C 
BRANCH  13  14
HETATM   14  N1  UNL     1     -40.604  -0.688   4.284  1.00  0.00    -0.415 N 
HETATM   15  C1  UNL     1     -39.820  -1.774   3.829  1.00  0.00     0.140 C 
ATOM     16  H1  UNL     1     -41.148  -0.105   3.649  1.00  0.00     0.153 HD
ENDBRANCH  13  14
BRANCH  13  17
HETATM   17  C3  UNL     1     -41.064  -1.739   6.392  1.00  0.00     0.260 C 
BRANCH  17  18
HETATM   18  N2  UNL     1     -40.181  -2.098   7.504  1.00  0.00    -0.077 N 
ATOM     19  H23 UNL     1     -40.023  -3.104   7.556  1.00  0.00     0.274 HD
ATOM     20  H22 UNL     1     -39.218  -1.804   7.337  1.00  0.00     0.274 HD
ATOM     21  H21 UNL     1     -40.548  -1.724   8.379  1.00  0.00     0.274 HD
ENDBRANCH  17  18
ENDBRANCH  13  17
ENDBRANCH   1  13
TORSDOF 4
ENDMDL
MODEL 3
REMARK VINA RESULT: -6.328372168      1.373      4.936
REMARK  4 active torsions:
REMARK  status: ('A' for Active; 'I' for Inactive)
REMARK    1  A    between atoms: N1_2  and  C2_4 
REMARK    2  A    between atoms: C2_4  and  C3_5 
REMARK    3  A    between atoms: C2_4  and  C4_10 
REMARK    4  A    between atoms: C3_5  and  N2_6 
ROOT
HETATM    1  C4  UNL     1     -41.610   1.347   5.371  1.00  0.00     0.081 A 
HETATM    2  N3  UNL     1     -40.473   1.784   5.931  1.00  0.00    -0.299 N 
ATOM      3  H3  UNL     1     -39.682   1.188   6.174  1.00  0.00     0.186 HD
HETATM    4  N4  UNL     1     -40.515   3.095   6.126  1.00  0.00    -0.282 N 
ATOM      5  H4  UNL     1     -39.771   3.658   6.538  1.00  0.00     0.188 HD
HETATM    6  C5  UNL     1     -41.716   3.563   5.687  1.00  0.00     0.163 A 
HETATM    7  N5  UNL     1     -42.514   4.660   5.518  1.00  0.00    -0.266 N 
ATOM      8  H5  UNL     1     -42.295   5.623   5.769  1.00  0.00     0.186 HD
HETATM    9  N6  UNL     1     -43.641   4.210   4.957  1.00  0.00    -0.020 NA
HETATM   10  N7  UNL     1     -43.570   2.902   4.775  1.00  0.00    -0.279 N 
ATOM     11  H7  UNL     1     -44.303   2.325   4.363  1.00  0.00     0.184 HD
HETATM   12  C6  UNL     1     -42.384   2.450   5.216  1.00  0.00     0.118 A 
ENDROOT
BRANCH   1  13
HETATM   13  C2  UNL     1     -41.949  -0.078   5.023  1.00  0.00     0.156 C 
BRANCH  13  14
HETATM   14  N1  UNL     1     -42.130  -0.720   6.326  1.00  0.00    -0.415 N 
HETATM   15  C1  UNL     1     -41.161  -1.695   6.662  1.00  0.00     0.140 C 
ATOM     16  H1  UNL     1     -42.902  -0.481   6.948  1.00  0.00     0.153 HD
ENDBRANCH  13  14
BRANCH  13  17
HETATM   17  C3  UNL     1     -40.751  -0.744   4.361  1.00  0.00     0.260 C 
BRANCH  17  18
HETATM   18  N2  UNL     1     -40.830  -0.595   2.907  1.00  0.00    -0.077 N 
ATOM     19  H23 UNL     1     -41.531   0.093   2.632  1.00  0.00     0.274 HD
ATOM     20  H22 UNL     1     -40.006  -0.130   2.525  1.00  0.00     0.274 HD
ATOM     21  H21 UNL     1     -40.995  -1.501   2.469  1.00  0.00     0.274 HD
ENDBRANCH  17  18
ENDBRANCH  13  17
ENDBRANCH   1  13
TORSDOF 4
ENDMDL
MODEL 4
REMARK VINA RESULT: -6.125075979      1.185      2.523
REMARK  4 active torsions:
REMARK  status: ('A' for Active; 'I' for Inactive)
REMARK    1  A    between atoms: N1_2  and  C2_4 
REMARK    2  A    between atoms: C2_4  and  C3_5 
REMARK    3  A    between atoms: C2_4  and  C4_10 
REMARK    4  A    between atoms: C3_5  and  N2_6 
ROOT
HETATM    1  C4  UNL     1     -41.516   0.783   5.433  1.00  0.00     0.081 A 
HETATM    2  N3  UNL     1     -41.375   0.800   4.100  1.00  0.00    -0.299 N 
ATOM      3  H3  UNL     1     -41.628   1.586   3.501  1.00  0.00     0.186 HD
HETATM    4  N4  UNL     1     -40.862  -0.343   3.663  1.00  0.00    -0.282 N 
ATOM      5  H4  UNL     1     -40.661  -0.570   2.690  1.00  0.00     0.188 HD
HETATM    6  C5  UNL     1     -40.649  -1.161   4.730  1.00  0.00     0.163 A 
HETATM    7  N5  UNL     1     -40.198  -2.380   5.155  1.00  0.00    -0.266 N 
ATOM      8  H5  UNL     1     -39.828  -3.133   4.576  1.00  0.00     0.186 HD
HETATM    9  N6  UNL     1     -40.343  -2.381   6.484  1.00  0.00    -0.020 NA
HETATM   10  N7  UNL     1     -40.855  -1.232   6.889  1.00  0.00    -0.279 N 
ATOM     11  H7  UNL     1     -41.059  -0.988   7.858  1.00  0.00     0.184 HD
HETATM   12  C6  UNL     1     -41.065  -0.434   5.828  1.00  0.00     0.118 A 
ENDROOT
BRANCH   1  13
HETATM   13  C2  UNL     1     -42.087   1.881   6.288  1.00  0.00     0.156 C 
BRANCH  13  14
HETATM   14  N1  UNL     1     -43.482   1.972   5.852  1.00  0.00    -0.415 N 
HETATM   15  C1  UNL     1     -43.814   3.135   5.117  1.00  0.00     0.140 C 
ATOM     16  H1  UNL     1     -44.167   1.247   6.064  1.00  0.00     0.153 HD
ENDBRANCH  13  14
BRANCH  13  17
HETATM   17  C3  UNL     1     -41.424   3.205   5.935  1.00  0.00     0.260 C 
BRANCH  17  18
HETATM   18  N2  UNL     1     -39.986   3.135   6.200  1.00  0.00    -0.077 N 
ATOM     19  H23 UNL     1     -39.749   2.356   6.814  1.00  0.00     0.274 HD
ATOM     20  H22 UNL     1     -39.460   2.842   5.377  1.00  0.00     0.274 HD
ATOM     21  H21 UNL     1     -39.653   4.025   6.570  1.00  0.00     0.274 HD
ENDBRANCH  17  18
ENDBRANCH  13  17
ENDBRANCH   1  13
TORSDOF 4
ENDMDL
MODEL 5
REMARK VINA RESULT: -6.001477950      1.449      1.737
REMARK  4 active torsions:
REMARK  status: ('A' for Active; 'I' for Inactive)
REMARK    1  A    between atoms: N1_2  and  C2_4 
REMARK    2  A    between atoms: C2_4  and  C3_5 
REMARK    3  A    between atoms: C2_4  and  C4_10 
REMARK    4  A    between atoms: C3_5  and  N2_6 
ROOT
HETATM    1  C4  UNL     1     -42.317   1.501   5.398  1.00  0.00     0.081 A 
HETATM    2  N3  UNL     1     -43.111   1.085   6.395  1.00  0.00    -0.299 N 
ATOM      3  H3  UNL     1     -43.734   1.691   6.929  1.00  0.00     0.186 HD
HETATM    4  N4  UNL     1     -42.978  -0.219   6.594  1.00  0.00    -0.282 N 
ATOM      5  H4  UNL     1     -43.476  -0.767   7.295  1.00  0.00     0.188 HD
HETATM    6  C5  UNL     1     -42.066  -0.705   5.706  1.00  0.00     0.163 A 
HETATM    7  N5  UNL     1     -41.400  -1.808   5.252  1.00  0.00    -0.266 N 
ATOM      8  H5  UNL     1     -41.485  -2.763   5.600  1.00  0.00     0.186 HD
HETATM    9  N6  UNL     1     -40.616  -1.380   4.258  1.00  0.00    -0.020 NA
HETATM   10  N7  UNL     1     -40.770  -0.078   4.084  1.00  0.00    -0.279 N 
ATOM     11  H7  UNL     1     -40.282   0.483   3.387  1.00  0.00     0.184 HD
HETATM   12  C6  UNL     1     -41.668   0.391   4.967  1.00  0.00     0.118 A 
ENDROOT
BRANCH   1  13
HETATM   13  C2  UNL     1     -42.169   2.913   4.899  1.00  0.00     0.156 C 
BRANCH  13  14
HETATM   14  N1  UNL     1     -41.573   3.622   6.032  1.00  0.00    -0.415 N 
HETATM   15  C1  UNL     1     -40.223   3.301   6.308  1.00  0.00     0.140 C 
ATOM     16  H1  UNL     1     -42.095   4.301   6.586  1.00  0.00     0.153 HD
ENDBRANCH  13  14
BRANCH  13  17
HETATM   17  C3  UNL     1     -43.544   3.523   4.666  1.00  0.00     0.260 C 
BRANCH  17  18
HETATM   18  N2  UNL     1     -43.433   4.976   4.520  1.00  0.00    -0.077 N 
ATOM     19  H23 UNL     1     -43.426   5.450   5.423  1.00  0.00     0.274 HD
ATOM     20  H22 UNL     1     -42.507   5.257   4.196  1.00  0.00     0.274 HD
ATOM     21  H21 UNL     1     -44.174   5.326   3.913  1.00  0.00     0.274 HD
ENDBRANCH  17  18
ENDBRANCH  13  17
ENDBRANCH   1  13
TORSDOF 4
ENDMDL
