MODEL 1
REMARK VINA RESULT: -8.250036694      0.000      0.000
REMARK  8 active torsions:
REMARK  status: ('A' for Active; 'I' for Inactive)
REMARK    1  A    between atoms: N1_1  and  C1_5 
REMARK    2  A    between atoms: C1_5  and  N2_6 
REMARK    3  A    between atoms: C1_5  and  C2_10 
REMARK    4  A    between atoms: C3_13  and  C4_14 
REMARK       I    between atoms: C4_14  and  N4_16 
REMARK    5  A    between atoms: C5_18  and  C6_19 
REMARK    6  A    between atoms: C7_22  and  N5_23 
REMARK    7  A    between atoms: N5_23  and  N6_25 
REMARK    8  A    between atoms: N6_25  and  C8_26 
ROOT
HETATM    1  C2  UNL     1      12.784   1.130  -4.540  1.00  0.00     0.111 A 
HETATM    2  N3  UNL     1      11.671   1.254  -3.860  1.00  0.00    -0.344 N 
ATOM      3  H3  UNL     1      11.243   0.432  -3.435  1.00  0.00     0.166 HD
HETATM    4  C3  UNL     1      11.109   2.420  -3.725  1.00  0.00     0.137 A 
HETATM    5  C7  UNL     1      11.717   3.492  -4.309  1.00  0.00     0.120 A 
HETATM    6  S1  UNL     1      13.097   2.725  -5.038  1.00  0.00    -0.052 SA
ENDROOT
BRANCH   5   7
HETATM    7  N5  UNL     1      11.388   4.885  -4.362  1.00  0.00    -0.293 N 
ATOM      8  H5  UNL     1      10.789   5.238  -5.108  1.00  0.00     0.183 HD
BRANCH   7   9
HETATM    9  N6  UNL     1      11.893   5.771  -3.384  1.00  0.00    -0.107 NA
BRANCH   9  10
HETATM   10  C8  UNL     1      12.434   6.903  -4.119  1.00  0.00     0.306 C 
HETATM   11  N7  UNL     1      11.598   7.150  -5.307  1.00  0.00    -0.091 NA
HETATM   12  N8  UNL     1      12.019   8.306  -5.921  1.00  0.00    -0.230 N 
HETATM   13  N9  UNL     1      13.363   8.385  -6.191  1.00  0.00    -0.228 N 
ATOM     14  H8  UNL     1      11.373   9.058  -6.160  1.00  0.00     0.205 HD
HETATM   15  N10 UNL     1      14.098   7.255  -5.894  1.00  0.00    -0.252 N 
ATOM     16  H9  UNL     1      13.789   9.222  -6.586  1.00  0.00     0.209 HD
HETATM   17  C9  UNL     1      13.784   6.559  -4.692  1.00  0.00     0.275 C 
ATOM     18  H10 UNL     1      14.840   6.930  -6.513  1.00  0.00     0.191 HD
HETATM   19  O4  UNL     1      14.553   5.737  -4.155  1.00  0.00    -0.268 OA
ENDBRANCH   9  10
ENDBRANCH   7   9
ENDBRANCH   5   7
BRANCH   4  20
HETATM   20  C4  UNL     1       9.842   2.557  -2.950  1.00  0.00     0.275 C 
HETATM   21  O1  UNL     1       9.015   3.456  -3.149  1.00  0.00    -0.266 OA
HETATM   22  N4  UNL     1       9.518   1.623  -1.911  1.00  0.00    -0.325 N 
HETATM   23  C5  UNL     1       9.827   1.854  -0.697  1.00  0.00     0.175 C 
ATOM     24  H4  UNL     1       9.031   0.759  -2.148  1.00  0.00     0.168 HD
BRANCH  23  25
HETATM   25  C6  UNL     1       9.502   0.917   0.344  1.00  0.00     0.214 C 
HETATM   26  O2  UNL     1       8.325   0.816   0.747  1.00  0.00    -0.643 OA
HETATM   27  O3  UNL     1      10.500   0.110   0.916  1.00  0.00    -0.643 OA
ENDBRANCH  23  25
ENDBRANCH   4  20
BRANCH   1  28
HETATM   28  C1  UNL     1      13.582  -0.121  -4.813  1.00  0.00     0.434 C 
BRANCH  28  29
HETATM   29  N1  UNL     1      14.579   0.100  -5.814  1.00  0.00    -0.044 N 
ATOM     30  H13 UNL     1      15.214   0.865  -5.584  1.00  0.00     0.277 HD
ATOM     31  H12 UNL     1      15.277  -0.642  -5.855  1.00  0.00     0.277 HD
ATOM     32  H11 UNL     1      14.092   0.239  -6.699  1.00  0.00     0.277 HD
ENDBRANCH  28  29
BRANCH  28  33
HETATM   33  N2  UNL     1      14.276  -0.519  -3.595  1.00  0.00    -0.044 N 
ATOM     34  H23 UNL     1      13.652  -0.627  -2.796  1.00  0.00     0.277 HD
ATOM     35  H22 UNL     1      14.617  -1.480  -3.625  1.00  0.00     0.277 HD
ATOM     36  H21 UNL     1      15.017   0.163  -3.434  1.00  0.00     0.277 HD
ENDBRANCH  28  33
ENDBRANCH   1  28
TORSDOF 8
ENDMDL
MODEL 2
REMARK VINA RESULT: -8.198716289      4.634      8.960
REMARK  8 active torsions:
REMARK  status: ('A' for Active; 'I' for Inactive)
REMARK    1  A    between atoms: N1_1  and  C1_5 
REMARK    2  A    between atoms: C1_5  and  N2_6 
REMARK    3  A    between atoms: C1_5  and  C2_10 
REMARK    4  A    between atoms: C3_13  and  C4_14 
REMARK       I    between atoms: C4_14  and  N4_16 
REMARK    5  A    between atoms: C5_18  and  C6_19 
REMARK    6  A    between atoms: C7_22  and  N5_23 
REMARK    7  A    between atoms: N5_23  and  N6_25 
REMARK    8  A    between atoms: N6_25  and  C8_26 
ROOT
HETATM    1  C2  UNL     1       8.847   2.168  -0.132  1.00  0.00     0.111 A 
HETATM    2  N3  UNL     1       9.743   1.850  -1.033  1.00  0.00    -0.344 N 
ATOM      3  H3  UNL     1       9.611   2.139  -2.002  1.00  0.00     0.166 HD
HETATM    4  C3  UNL     1      10.799   1.167  -0.698  1.00  0.00     0.137 A 
HETATM    5  C7  UNL     1      10.934   0.802   0.608  1.00  0.00     0.120 A 
HETATM    6  S1  UNL     1       9.487   1.487   1.287  1.00  0.00    -0.052 SA
ENDROOT
BRANCH   5   7
HETATM    7  N5  UNL     1      11.941   0.067   1.313  1.00  0.00    -0.293 N 
ATOM      8  H5  UNL     1      12.927   0.249   1.128  1.00  0.00     0.183 HD
BRANCH   7   9
HETATM    9  N6  UNL     1      11.572  -0.911   2.263  1.00  0.00    -0.107 NA
BRANCH   9  10
HETATM   10  C8  UNL     1      12.242  -0.534   3.498  1.00  0.00     0.306 C 
HETATM   11  N7  UNL     1      12.859  -1.730   4.096  1.00  0.00    -0.091 NA
HETATM   12  N8  UNL     1      13.614  -1.351   5.181  1.00  0.00    -0.230 N 
HETATM   13  N9  UNL     1      12.979  -0.562   6.107  1.00  0.00    -0.228 N 
ATOM     14  H8  UNL     1      14.587  -1.639   5.290  1.00  0.00     0.205 HD
HETATM   15  N10 UNL     1      11.639  -0.329   5.872  1.00  0.00    -0.252 N 
ATOM     16  H9  UNL     1      13.465  -0.174   6.915  1.00  0.00     0.209 HD
HETATM   17  C9  UNL     1      11.234  -0.093   4.527  1.00  0.00     0.275 C 
ATOM     18  H10 UNL     1      10.962  -0.326   6.635  1.00  0.00     0.191 HD
HETATM   19  O4  UNL     1      10.145   0.433   4.221  1.00  0.00    -0.268 OA
ENDBRANCH   9  10
ENDBRANCH   7   9
ENDBRANCH   5   7
BRANCH   4  20
HETATM   20  C4  UNL     1      11.816   0.806  -1.727  1.00  0.00     0.275 C 
HETATM   21  O1  UNL     1      12.720  -0.016  -1.533  1.00  0.00    -0.266 OA
HETATM   22  N4  UNL     1      11.788   1.414  -3.026  1.00  0.00    -0.325 N 
HETATM   23  C5  UNL     1      12.471   2.459  -3.280  1.00  0.00     0.175 C 
ATOM     24  H4  UNL     1      11.210   1.003  -3.760  1.00  0.00     0.168 HD
BRANCH  23  25
HETATM   25  C6  UNL     1      12.442   3.068  -4.582  1.00  0.00     0.214 C 
HETATM   26  O2  UNL     1      13.507   3.276  -5.198  1.00  0.00    -0.643 OA
HETATM   27  O3  UNL     1      11.220   3.434  -5.172  1.00  0.00    -0.643 OA
ENDBRANCH  23  25
ENDBRANCH   4  20
BRANCH   1  28
HETATM   28  C1  UNL     1       7.566   2.944  -0.316  1.00  0.00     0.434 C 
BRANCH  28  29
HETATM   29  N1  UNL     1       7.011   3.347   0.940  1.00  0.00    -0.044 N 
ATOM     30  H13 UNL     1       7.423   4.207   1.301  1.00  0.00     0.277 HD
ATOM     31  H12 UNL     1       6.052   3.683   0.863  1.00  0.00     0.277 HD
ATOM     32  H11 UNL     1       7.109   2.558   1.579  1.00  0.00     0.277 HD
ENDBRANCH  28  29
BRANCH  28  33
HETATM   33  N2  UNL     1       7.848   4.158  -1.071  1.00  0.00    -0.044 N 
ATOM     34  H23 UNL     1       7.005   4.642  -1.379  1.00  0.00     0.277 HD
ATOM     35  H22 UNL     1       8.226   4.909  -0.494  1.00  0.00     0.277 HD
ATOM     36  H21 UNL     1       8.464   3.898  -1.841  1.00  0.00     0.277 HD
ENDBRANCH  28  33
ENDBRANCH   1  28
TORSDOF 8
ENDMDL
MODEL 3
REMARK VINA RESULT: -8.159017200      4.739      8.989
REMARK  8 active torsions:
REMARK  status: ('A' for Active; 'I' for Inactive)
REMARK    1  A    between atoms: N1_1  and  C1_5 
REMARK    2  A    between atoms: C1_5  and  N2_6 
REMARK    3  A    between atoms: C1_5  and  C2_10 
REMARK    4  A    between atoms: C3_13  and  C4_14 
REMARK       I    between atoms: C4_14  and  N4_16 
REMARK    5  A    between atoms: C5_18  and  C6_19 
REMARK    6  A    between atoms: C7_22  and  N5_23 
REMARK    7  A    between atoms: N5_23  and  N6_25 
REMARK    8  A    between atoms: N6_25  and  C8_26 
ROOT
HETATM    1  C2  UNL     1       8.599   2.162   0.015  1.00  0.00     0.111 A 
HETATM    2  N3  UNL     1       9.674   1.936  -0.697  1.00  0.00    -0.344 N 
ATOM      3  H3  UNL     1       9.777   2.374  -1.612  1.00  0.00     0.166 HD
HETATM    4  C3  UNL     1      10.612   1.156  -0.243  1.00  0.00     0.137 A 
HETATM    5  C7  UNL     1      10.433   0.593   0.985  1.00  0.00     0.120 A 
HETATM    6  S1  UNL     1       8.879   1.243   1.417  1.00  0.00    -0.052 SA
ENDROOT
BRANCH   5   7
HETATM    7  N5  UNL     1      11.237  -0.292   1.775  1.00  0.00    -0.293 N 
ATOM      8  H5  UNL     1      11.132  -1.301   1.674  1.00  0.00     0.183 HD
BRANCH   7   9
HETATM    9  N6  UNL     1      12.175   0.231   2.693  1.00  0.00    -0.107 NA
BRANCH   9  10
HETATM   10  C8  UNL     1      11.590   0.031   4.010  1.00  0.00     0.306 C 
HETATM   11  N7  UNL     1      11.895   1.198   4.855  1.00  0.00    -0.091 NA
HETATM   12  N8  UNL     1      11.222   1.078   6.047  1.00  0.00    -0.230 N 
HETATM   13  N9  UNL     1      11.385  -0.113   6.710  1.00  0.00    -0.228 N 
ATOM     14  H8  UNL     1      10.637   1.828   6.417  1.00  0.00     0.205 HD
HETATM   15  N10 UNL     1      12.276  -0.997   6.135  1.00  0.00    -0.252 N 
ATOM     16  H9  UNL     1      10.881  -0.330   7.569  1.00  0.00     0.209 HD
HETATM   17  C9  UNL     1      12.270  -1.114   4.716  1.00  0.00     0.275 C 
ATOM     18  H10 UNL     1      12.916  -1.548   6.707  1.00  0.00     0.191 HD
HETATM   19  O4  UNL     1      12.778  -2.075   4.105  1.00  0.00    -0.268 OA
ENDBRANCH   9  10
ENDBRANCH   7   9
ENDBRANCH   5   7
BRANCH   4  20
HETATM   20  C4  UNL     1      11.835   0.900  -1.058  1.00  0.00     0.275 C 
HETATM   21  O1  UNL     1      12.857   0.370  -0.605  1.00  0.00    -0.266 OA
HETATM   22  N4  UNL     1      11.879   1.268  -2.444  1.00  0.00    -0.325 N 
HETATM   23  C5  UNL     1      12.344   2.396  -2.811  1.00  0.00     0.175 C 
ATOM     24  H4  UNL     1      11.532   0.616  -3.147  1.00  0.00     0.168 HD
BRANCH  23  25
HETATM   25  C6  UNL     1      12.387   2.765  -4.200  1.00  0.00     0.214 C 
HETATM   26  O2  UNL     1      13.477   2.783  -4.808  1.00  0.00    -0.643 OA
HETATM   27  O3  UNL     1      11.209   3.106  -4.886  1.00  0.00    -0.643 OA
ENDBRANCH  23  25
ENDBRANCH   4  20
BRANCH   1  28
HETATM   28  C1  UNL     1       7.409   3.023  -0.331  1.00  0.00     0.434 C 
BRANCH  28  29
HETATM   29  N1  UNL     1       6.747   3.500   0.845  1.00  0.00    -0.044 N 
ATOM     30  H13 UNL     1       7.372   3.994   1.482  1.00  0.00     0.277 HD
ATOM     31  H12 UNL     1       6.111   4.275   0.658  1.00  0.00     0.277 HD
ATOM     32  H11 UNL     1       6.287   2.700   1.277  1.00  0.00     0.277 HD
ENDBRANCH  28  29
BRANCH  28  33
HETATM   33  N2  UNL     1       7.865   4.192  -1.072  1.00  0.00    -0.044 N 
ATOM     34  H23 UNL     1       7.474   5.065  -0.721  1.00  0.00     0.277 HD
ATOM     35  H22 UNL     1       8.847   4.412  -0.906  1.00  0.00     0.277 HD
ATOM     36  H21 UNL     1       7.653   4.026  -2.056  1.00  0.00     0.277 HD
ENDBRANCH  28  33
ENDBRANCH   1  28
TORSDOF 8
ENDMDL
MODEL 4
REMARK VINA RESULT: -8.076248843      5.203      9.142
REMARK  8 active torsions:
REMARK  status: ('A' for Active; 'I' for Inactive)
REMARK    1  A    between atoms: N1_1  and  C1_5 
REMARK    2  A    between atoms: C1_5  and  N2_6 
REMARK    3  A    between atoms: C1_5  and  C2_10 
REMARK    4  A    between atoms: C3_13  and  C4_14 
REMARK       I    between atoms: C4_14  and  N4_16 
REMARK    5  A    between atoms: C5_18  and  C6_19 
REMARK    6  A    between atoms: C7_22  and  N5_23 
REMARK    7  A    between atoms: N5_23  and  N6_25 
REMARK    8  A    between atoms: N6_25  and  C8_26 
ROOT
HETATM    1  C2  UNL     1       8.492   2.325   0.450  1.00  0.00     0.111 A 
HETATM    2  N3  UNL     1       9.623   1.844  -0.004  1.00  0.00    -0.344 N 
ATOM      3  H3  UNL     1       9.815   1.862  -1.005  1.00  0.00     0.166 HD
HETATM    4  C3  UNL     1      10.500   1.341   0.815  1.00  0.00     0.137 A 
HETATM    5  C7  UNL     1      10.201   1.338   2.145  1.00  0.00     0.120 A 
HETATM    6  S1  UNL     1       8.628   2.079   2.125  1.00  0.00    -0.052 SA
ENDROOT
BRANCH   5   7
HETATM    7  N5  UNL     1      10.912   0.877   3.300  1.00  0.00    -0.293 N 
ATOM      8  H5  UNL     1      11.899   1.108   3.416  1.00  0.00     0.183 HD
BRANCH   7   9
HETATM    9  N6  UNL     1      10.250   0.104   4.280  1.00  0.00    -0.107 NA
BRANCH   9  10
HETATM   10  C8  UNL     1      11.268  -0.249   5.258  1.00  0.00     0.306 C 
HETATM   11  N7  UNL     1      11.807   0.984   5.858  1.00  0.00    -0.091 NA
HETATM   12  N8  UNL     1      12.660   0.649   6.883  1.00  0.00    -0.230 N 
HETATM   13  N9  UNL     1      13.638  -0.262   6.573  1.00  0.00    -0.228 N 
ATOM     14  H8  UNL     1      12.570   1.053   7.815  1.00  0.00     0.205 HD
HETATM   15  N10 UNL     1      13.693  -0.653   5.250  1.00  0.00    -0.252 N 
ATOM     16  H9  UNL     1      14.283  -0.627   7.274  1.00  0.00     0.209 HD
HETATM   17  C9  UNL     1      12.458  -0.868   4.573  1.00  0.00     0.275 C 
ATOM     18  H10 UNL     1      14.585  -0.783   4.774  1.00  0.00     0.191 HD
HETATM   19  O4  UNL     1      12.364  -1.513   3.509  1.00  0.00    -0.268 OA
ENDBRANCH   9  10
ENDBRANCH   7   9
ENDBRANCH   5   7
BRANCH   4  20
HETATM   20  C4  UNL     1      11.786   0.793   0.294  1.00  0.00     0.275 C 
HETATM   21  O1  UNL     1      12.760   0.540   1.014  1.00  0.00    -0.266 OA
HETATM   22  N4  UNL     1      11.951   0.526  -1.105  1.00  0.00    -0.325 N 
HETATM   23  C5  UNL     1      12.456   1.396  -1.887  1.00  0.00     0.175 C 
ATOM     24  H4  UNL     1      11.659  -0.377  -1.482  1.00  0.00     0.168 HD
BRANCH  23  25
HETATM   25  C6  UNL     1      12.621   1.127  -3.290  1.00  0.00     0.214 C 
HETATM   26  O2  UNL     1      11.750   1.499  -4.103  1.00  0.00    -0.643 OA
HETATM   27  O3  UNL     1      13.759   0.449  -3.759  1.00  0.00    -0.643 OA
ENDBRANCH  23  25
ENDBRANCH   4  20
BRANCH   1  28
HETATM   28  C1  UNL     1       7.356   2.942  -0.329  1.00  0.00     0.434 C 
BRANCH  28  29
HETATM   29  N1  UNL     1       6.333   3.436   0.540  1.00  0.00    -0.044 N 
ATOM     30  H13 UNL     1       6.525   4.374   0.891  1.00  0.00     0.277 HD
ATOM     31  H12 UNL     1       5.465   3.654   0.052  1.00  0.00     0.277 HD
ATOM     32  H11 UNL     1       6.211   2.749   1.284  1.00  0.00     0.277 HD
ENDBRANCH  28  29
BRANCH  28  33
HETATM   33  N2  UNL     1       7.860   4.078  -1.090  1.00  0.00    -0.044 N 
ATOM     34  H23 UNL     1       8.336   3.803  -1.949  1.00  0.00     0.277 HD
ATOM     35  H22 UNL     1       7.119   4.630  -1.521  1.00  0.00     0.277 HD
ATOM     36  H21 UNL     1       8.450   4.623  -0.462  1.00  0.00     0.277 HD
ENDBRANCH  28  33
ENDBRANCH   1  28
TORSDOF 8
ENDMDL
MODEL 5
REMARK VINA RESULT: -8.047944990      1.506      1.798
REMARK  8 active torsions:
REMARK  status: ('A' for Active; 'I' for Inactive)
REMARK    1  A    between atoms: N1_1  and  C1_5 
REMARK    2  A    between atoms: C1_5  and  N2_6 
REMARK    3  A    between atoms: C1_5  and  C2_10 
REMARK    4  A    between atoms: C3_13  and  C4_14 
REMARK       I    between atoms: C4_14  and  N4_16 
REMARK    5  A    between atoms: C5_18  and  C6_19 
REMARK    6  A    between atoms: C7_22  and  N5_23 
REMARK    7  A    between atoms: N5_23  and  N6_25 
REMARK    8  A    between atoms: N6_25  and  C8_26 
ROOT
HETATM    1  C2  UNL     1      13.041   0.439  -3.452  1.00  0.00     0.111 A 
HETATM    2  N3  UNL     1      12.144   0.568  -2.506  1.00  0.00    -0.344 N 
ATOM      3  H3  UNL     1      11.896  -0.236  -1.930  1.00  0.00     0.166 HD
HETATM    4  C3  UNL     1      11.568   1.716  -2.298  1.00  0.00     0.137 A 
HETATM    5  C7  UNL     1      11.931   2.764  -3.091  1.00  0.00     0.120 A 
HETATM    6  S1  UNL     1      13.112   2.002  -4.115  1.00  0.00    -0.052 SA
ENDROOT
BRANCH   5   7
HETATM    7  N5  UNL     1      11.514   4.134  -3.142  1.00  0.00    -0.293 N 
ATOM      8  H5  UNL     1      10.704   4.399  -3.702  1.00  0.00     0.183 HD
BRANCH   7   9
HETATM    9  N6  UNL     1      12.224   5.118  -2.418  1.00  0.00    -0.107 NA
BRANCH   9  10
HETATM   10  C8  UNL     1      12.261   6.290  -3.279  1.00  0.00     0.306 C 
HETATM   11  N7  UNL     1      10.959   6.435  -3.952  1.00  0.00    -0.091 NA
HETATM   12  N8  UNL     1      10.942   7.620  -4.649  1.00  0.00    -0.230 N 
HETATM   13  N9  UNL     1      12.003   7.831  -5.495  1.00  0.00    -0.228 N 
ATOM     14  H8  UNL     1      10.189   8.299  -4.545  1.00  0.00     0.205 HD
HETATM   15  N10 UNL     1      12.898   6.786  -5.601  1.00  0.00    -0.252 N 
ATOM     16  H9  UNL     1      12.121   8.703  -6.011  1.00  0.00     0.209 HD
HETATM   17  C9  UNL     1      13.231   6.077  -4.411  1.00  0.00     0.275 C 
ATOM     18  H10 UNL     1      13.307   6.530  -6.500  1.00  0.00     0.191 HD
HETATM   19  O4  UNL     1      14.236   5.345  -4.308  1.00  0.00    -0.268 OA
ENDBRANCH   9  10
ENDBRANCH   7   9
ENDBRANCH   5   7
BRANCH   4  20
HETATM   20  C4  UNL     1      10.546   1.859  -1.221  1.00  0.00     0.275 C 
HETATM   21  O1  UNL     1       9.768   2.818  -1.142  1.00  0.00    -0.266 OA
HETATM   22  N4  UNL     1      10.417   0.859  -0.201  1.00  0.00    -0.325 N 
HETATM   23  C5  UNL     1      11.034   0.965   0.908  1.00  0.00     0.175 C 
ATOM     24  H4  UNL     1       9.820   0.048  -0.367  1.00  0.00     0.168 HD
BRANCH  23  25
HETATM   25  C6  UNL     1      10.904  -0.038   1.930  1.00  0.00     0.214 C 
HETATM   26  O2  UNL     1      10.222   0.194   2.950  1.00  0.00    -0.643 OA
HETATM   27  O3  UNL     1      11.539  -1.284   1.793  1.00  0.00    -0.643 OA
ENDBRANCH  23  25
ENDBRANCH   4  20
BRANCH   1  28
HETATM   28  C1  UNL     1      13.814  -0.795  -3.849  1.00  0.00     0.434 C 
BRANCH  28  29
HETATM   29  N1  UNL     1      13.000  -1.969  -3.779  1.00  0.00    -0.044 N 
ATOM     30  H13 UNL     1      12.813  -2.381  -4.693  1.00  0.00     0.277 HD
ATOM     31  H12 UNL     1      13.485  -2.767  -3.371  1.00  0.00     0.277 HD
ATOM     32  H11 UNL     1      12.150  -1.717  -3.273  1.00  0.00     0.277 HD
ENDBRANCH  28  29
BRANCH  28  33
HETATM   33  N2  UNL     1      14.253  -0.658  -5.232  1.00  0.00    -0.044 N 
ATOM     34  H23 UNL     1      13.558  -0.212  -5.830  1.00  0.00     0.277 HD
ATOM     35  H22 UNL     1      14.992   0.035  -5.350  1.00  0.00     0.277 HD
ATOM     36  H21 UNL     1      14.522  -1.587  -5.556  1.00  0.00     0.277 HD
ENDBRANCH  28  33
ENDBRANCH   1  28
TORSDOF 8
ENDMDL
