MODEL 1
REMARK VINA RESULT: -7.396750906      0.000      0.000
REMARK  11 active torsions:
REMARK  status: ('A' for Active; 'I' for Inactive)
REMARK       I    between atoms: C2_2  and  N1_4 
REMARK    1  A    between atoms: N1_4  and  C3_6 
REMARK    2  A    between atoms: C3_6  and  C4_7 
REMARK    3  A    between atoms: C3_6  and  C5_14 
REMARK    4  A    between atoms: C4_7  and  N2_8 
REMARK    5  A    between atoms: C4_7  and  O2_12 
REMARK    6  A    between atoms: C5_14  and  O3_15 
REMARK    7  A    between atoms: C5_14  and  N3_17 
REMARK    8  A    between atoms: C7_19  and  C8_20 
REMARK    9  A    between atoms: C8_20  and  N4_21 
REMARK   10  A    between atoms: C8_20  and  O4_25 
REMARK   11  A    between atoms: C9_29  and  C10_30 
ROOT
HETATM    1  N3  UNL     1      11.173   1.984  -3.225  1.00  0.00    -0.310 N 
HETATM    2  C6  UNL     1      11.637   0.857  -3.836  1.00  0.00     0.125 A 
HETATM    3  C7  UNL     1      12.871   1.106  -4.383  1.00  0.00     0.083 A 
HETATM    4  N5  UNL     1      13.119   2.389  -4.084  1.00  0.00    -0.339 N 
ATOM      5  H5  UNL     1      13.966   2.892  -4.350  1.00  0.00     0.167 HD
HETATM    6  C9  UNL     1      12.097   2.926  -3.385  1.00  0.00     0.143 A 
ENDROOT
BRANCH   1   7
HETATM    7  C5  UNL     1       9.941   2.082  -2.564  1.00  0.00     0.253 C 
BRANCH   7   8
HETATM    8  C3  UNL     1       9.982   2.178  -1.070  1.00  0.00     0.189 C 
BRANCH   8   9
HETATM    9  N1  UNL     1      10.543   1.009  -0.435  1.00  0.00    -0.348 N 
HETATM   10  C2  UNL     1      11.148   1.040   0.853  1.00  0.00     0.214 C 
HETATM   11  C1  UNL     1      11.724  -0.133   1.517  1.00  0.00     0.117 C 
HETATM   12  O1  UNL     1      11.202   2.148   1.484  1.00  0.00    -0.274 OA
ATOM     13  H1  UNL     1      10.505   0.120  -0.933  1.00  0.00     0.163 HD
ENDBRANCH   8   9
BRANCH   8  14
HETATM   14  C4  UNL     1       8.675   2.589  -0.430  1.00  0.00     0.343 C 
BRANCH  14  15
HETATM   15  N2  UNL     1       8.043   3.586  -1.263  1.00  0.00    -0.051 N 
ATOM     16  H23 UNL     1       8.696   4.020  -1.915  1.00  0.00     0.277 HD
ATOM     17  H22 UNL     1       7.409   3.176  -1.949  1.00  0.00     0.277 HD
ATOM     18  H21 UNL     1       7.580   4.268  -0.662  1.00  0.00     0.277 HD
ENDBRANCH  14  15
BRANCH  14  19
HETATM   19  O2  UNL     1       7.813   1.509  -0.345  1.00  0.00    -0.368 OA
ATOM     20  H2  UNL     1       7.027   1.667  -0.856  1.00  0.00     0.212 HD
ENDBRANCH  14  19
ENDBRANCH   8  14
ENDBRANCH   7   8
BRANCH   7  21
HETATM   21  O3  UNL     1       9.136   0.953  -2.859  1.00  0.00    -0.374 OA
ATOM     22  H3  UNL     1       8.306   1.299  -3.168  1.00  0.00     0.212 HD
ENDBRANCH   7  21
ENDBRANCH   1   7
BRANCH   6  23
HETATM   23  C10 UNL     1      12.141   4.341  -2.939  1.00  0.00     0.146 A 
HETATM   24  N6  UNL     1      13.024   4.874  -2.068  1.00  0.00    -0.234 N 
HETATM   25  O5  UNL     1      12.743   6.117  -1.936  1.00  0.00    -0.155 OA
ATOM     26  H6  UNL     1      13.780   4.376  -1.599  1.00  0.00     0.197 HD
HETATM   27  N7  UNL     1      11.734   6.461  -2.655  1.00  0.00    -0.224 N 
HETATM   28  C11 UNL     1      11.302   5.341  -3.331  1.00  0.00     0.154 A 
ATOM     29  H7  UNL     1      11.328   7.395  -2.714  1.00  0.00     0.198 HD
HETATM   30  N8  UNL     1      10.315   5.320  -4.138  1.00  0.00    -0.382 N 
ATOM     31  H82 UNL     1       9.995   4.491  -4.638  1.00  0.00     0.157 HD
ATOM     32  H81 UNL     1       9.687   6.069  -4.431  1.00  0.00     0.157 HD
ENDBRANCH   6  23
BRANCH   3  33
HETATM   33  C8  UNL     1      13.759   0.160  -5.151  1.00  0.00     0.368 C 
BRANCH  33  34
HETATM   34  N4  UNL     1      14.630   0.925  -6.040  1.00  0.00    -0.047 N 
ATOM     35  H43 UNL     1      14.111   1.596  -6.606  1.00  0.00     0.277 HD
ATOM     36  H42 UNL     1      15.216   1.588  -5.531  1.00  0.00     0.277 HD
ATOM     37  H41 UNL     1      15.180   0.283  -6.611  1.00  0.00     0.277 HD
ENDBRANCH  33  34
BRANCH  33  38
HETATM   38  O4  UNL     1      14.483  -0.642  -4.307  1.00  0.00    -0.365 OA
ATOM     39  H4  UNL     1      14.466  -1.549  -4.591  1.00  0.00     0.212 HD
ENDBRANCH  33  38
ENDBRANCH   3  33
TORSDOF 11
ENDMDL
MODEL 2
REMARK VINA RESULT: -7.207734969      2.368      5.175
REMARK  11 active torsions:
REMARK  status: ('A' for Active; 'I' for Inactive)
REMARK       I    between atoms: C2_2  and  N1_4 
REMARK    1  A    between atoms: N1_4  and  C3_6 
REMARK    2  A    between atoms: C3_6  and  C4_7 
REMARK    3  A    between atoms: C3_6  and  C5_14 
REMARK    4  A    between atoms: C4_7  and  N2_8 
REMARK    5  A    between atoms: C4_7  and  O2_12 
REMARK    6  A    between atoms: C5_14  and  O3_15 
REMARK    7  A    between atoms: C5_14  and  N3_17 
REMARK    8  A    between atoms: C7_19  and  C8_20 
REMARK    9  A    between atoms: C8_20  and  N4_21 
REMARK   10  A    between atoms: C8_20  and  O4_25 
REMARK   11  A    between atoms: C9_29  and  C10_30 
ROOT
HETATM    1  N3  UNL     1      10.247   3.227  -3.006  1.00  0.00    -0.310 N 
HETATM    2  C6  UNL     1      11.009   2.346  -3.717  1.00  0.00     0.125 A 
HETATM    3  C7  UNL     1      10.822   1.078  -3.227  1.00  0.00     0.083 A 
HETATM    4  N5  UNL     1       9.946   1.230  -2.224  1.00  0.00    -0.339 N 
ATOM      5  H5  UNL     1       9.592   0.469  -1.644  1.00  0.00     0.167 HD
HETATM    6  C9  UNL     1       9.594   2.526  -2.084  1.00  0.00     0.143 A 
ENDROOT
BRANCH   1   7
HETATM    7  C5  UNL     1      10.197   4.607  -3.241  1.00  0.00     0.253 C 
BRANCH   7   8
HETATM    8  C3  UNL     1      11.383   5.221  -3.918  1.00  0.00     0.189 C 
BRANCH   8   9
HETATM    9  N1  UNL     1      12.313   5.837  -2.999  1.00  0.00    -0.348 N 
HETATM   10  C2  UNL     1      13.724   5.784  -3.173  1.00  0.00     0.214 C 
HETATM   11  C1  UNL     1      14.687   6.401  -2.254  1.00  0.00     0.117 C 
HETATM   12  O1  UNL     1      14.201   5.167  -4.183  1.00  0.00    -0.274 OA
ATOM     13  H1  UNL     1      11.940   6.331  -2.189  1.00  0.00     0.163 HD
ENDBRANCH   8   9
BRANCH   8  14
HETATM   14  C4  UNL     1      11.045   6.141  -5.070  1.00  0.00     0.343 C 
BRANCH  14  15
HETATM   15  N2  UNL     1      11.086   7.506  -4.602  1.00  0.00    -0.051 N 
ATOM     16  H23 UNL     1      10.167   7.949  -4.610  1.00  0.00     0.277 HD
ATOM     17  H22 UNL     1      11.265   7.570  -3.599  1.00  0.00     0.277 HD
ATOM     18  H21 UNL     1      11.772   8.021  -5.154  1.00  0.00     0.277 HD
ENDBRANCH  14  15
BRANCH  14  19
HETATM   19  O2  UNL     1      11.981   6.018  -6.083  1.00  0.00    -0.368 OA
ATOM     20  H2  UNL     1      12.173   6.867  -6.465  1.00  0.00     0.212 HD
ENDBRANCH  14  19
ENDBRANCH   8  14
ENDBRANCH   7   8
BRANCH   7  21
HETATM   21  O3  UNL     1      10.042   5.307  -2.018  1.00  0.00    -0.374 OA
ATOM     22  H3  UNL     1      10.264   4.686  -1.333  1.00  0.00     0.212 HD
ENDBRANCH   7  21
ENDBRANCH   1   7
BRANCH   6  23
HETATM   23  C10 UNL     1       8.632   2.944  -1.036  1.00  0.00     0.146 A 
HETATM   24  N6  UNL     1       7.785   3.993  -1.105  1.00  0.00    -0.234 N 
HETATM   25  O5  UNL     1       7.118   4.032  -0.012  1.00  0.00    -0.155 OA
ATOM     26  H6  UNL     1       7.692   4.640  -1.888  1.00  0.00     0.197 HD
HETATM   27  N7  UNL     1       7.453   3.085   0.790  1.00  0.00    -0.224 N 
HETATM   28  C11 UNL     1       8.436   2.344   0.172  1.00  0.00     0.154 A 
ATOM     29  H7  UNL     1       7.060   2.913   1.716  1.00  0.00     0.198 HD
HETATM   30  N8  UNL     1       9.003   1.323   0.686  1.00  0.00    -0.382 N 
ATOM     31  H82 UNL     1       9.731   0.774   0.229  1.00  0.00     0.157 HD
ATOM     32  H81 UNL     1       8.856   0.873   1.590  1.00  0.00     0.157 HD
ENDBRANCH   6  23
BRANCH   3  33
HETATM   33  C8  UNL     1      11.454  -0.206  -3.699  1.00  0.00     0.368 C 
BRANCH  33  34
HETATM   34  N4  UNL     1      12.312   0.069  -4.851  1.00  0.00    -0.047 N 
ATOM     35  H43 UNL     1      11.817  -0.044  -5.735  1.00  0.00     0.277 HD
ATOM     36  H42 UNL     1      12.537   1.060  -4.936  1.00  0.00     0.277 HD
ATOM     37  H41 UNL     1      13.147  -0.514  -4.798  1.00  0.00     0.277 HD
ENDBRANCH  33  34
BRANCH  33  38
HETATM   38  O4  UNL     1      12.151  -0.822  -2.691  1.00  0.00    -0.365 OA
ATOM     39  H4  UNL     1      11.642  -0.856  -1.889  1.00  0.00     0.212 HD
ENDBRANCH  33  38
ENDBRANCH   3  33
TORSDOF 11
ENDMDL
MODEL 3
REMARK VINA RESULT: -7.165446271      1.824      3.936
REMARK  11 active torsions:
REMARK  status: ('A' for Active; 'I' for Inactive)
REMARK       I    between atoms: C2_2  and  N1_4 
REMARK    1  A    between atoms: N1_4  and  C3_6 
REMARK    2  A    between atoms: C3_6  and  C4_7 
REMARK    3  A    between atoms: C3_6  and  C5_14 
REMARK    4  A    between atoms: C4_7  and  N2_8 
REMARK    5  A    between atoms: C4_7  and  O2_12 
REMARK    6  A    between atoms: C5_14  and  O3_15 
REMARK    7  A    between atoms: C5_14  and  N3_17 
REMARK    8  A    between atoms: C7_19  and  C8_20 
REMARK    9  A    between atoms: C8_20  and  N4_21 
REMARK   10  A    between atoms: C8_20  and  O4_25 
REMARK   11  A    between atoms: C9_29  and  C10_30 
ROOT
HETATM    1  N3  UNL     1      10.380   2.981  -2.779  1.00  0.00    -0.310 N 
HETATM    2  C6  UNL     1      10.288   4.248  -3.276  1.00  0.00     0.125 A 
HETATM    3  C7  UNL     1      11.501   4.626  -3.795  1.00  0.00     0.083 A 
HETATM    4  N5  UNL     1      12.299   3.567  -3.595  1.00  0.00    -0.339 N 
ATOM      5  H5  UNL     1      13.280   3.521  -3.869  1.00  0.00     0.167 HD
HETATM    6  C9  UNL     1      11.628   2.569  -2.981  1.00  0.00     0.143 A 
ENDROOT
BRANCH   1   7
HETATM    7  C5  UNL     1       9.325   2.284  -2.176  1.00  0.00     0.253 C 
BRANCH   7   8
HETATM    8  C3  UNL     1       9.090   2.542  -0.719  1.00  0.00     0.189 C 
BRANCH   8   9
HETATM    9  N1  UNL     1       9.259   1.368   0.105  1.00  0.00    -0.348 N 
HETATM   10  C2  UNL     1      10.379   1.176   0.962  1.00  0.00     0.214 C 
HETATM   11  C1  UNL     1      10.572  -0.006   1.807  1.00  0.00     0.117 C 
HETATM   12  O1  UNL     1      11.282   2.077   1.010  1.00  0.00    -0.274 OA
ATOM     13  H1  UNL     1       8.542   0.643   0.072  1.00  0.00     0.163 HD
ENDBRANCH   8   9
BRANCH   8  14
HETATM   14  C4  UNL     1       7.797   3.262  -0.409  1.00  0.00     0.343 C 
BRANCH  14  15
HETATM   15  N2  UNL     1       7.519   3.129   1.002  1.00  0.00    -0.051 N 
ATOM     16  H23 UNL     1       7.393   2.157   1.285  1.00  0.00     0.277 HD
ATOM     17  H22 UNL     1       8.332   3.341   1.582  1.00  0.00     0.277 HD
ATOM     18  H21 UNL     1       6.713   3.710   1.234  1.00  0.00     0.277 HD
ENDBRANCH  14  15
BRANCH  14  19
HETATM   19  O2  UNL     1       7.914   4.614  -0.686  1.00  0.00    -0.368 OA
ATOM     20  H2  UNL     1       7.081   5.054  -0.560  1.00  0.00     0.212 HD
ENDBRANCH  14  19
ENDBRANCH   8  14
ENDBRANCH   7   8
BRANCH   7  21
HETATM   21  O3  UNL     1       9.531   0.886  -2.294  1.00  0.00    -0.374 OA
ATOM     22  H3  UNL     1      10.460   0.773  -2.456  1.00  0.00     0.212 HD
ENDBRANCH   7  21
ENDBRANCH   1   7
BRANCH   6  23
HETATM   23  C10 UNL     1      12.302   1.289  -2.651  1.00  0.00     0.146 A 
HETATM   24  N6  UNL     1      12.507   0.793  -1.413  1.00  0.00    -0.234 N 
HETATM   25  O5  UNL     1      13.117  -0.327  -1.535  1.00  0.00    -0.155 OA
ATOM     26  H6  UNL     1      12.224   1.230  -0.536  1.00  0.00     0.197 HD
HETATM   27  N7  UNL     1      13.340  -0.622  -2.766  1.00  0.00    -0.224 N 
HETATM   28  C11 UNL     1      12.829   0.398  -3.538  1.00  0.00     0.154 A 
ATOM     29  H7  UNL     1      13.811  -1.460  -3.109  1.00  0.00     0.198 HD
HETATM   30  N8  UNL     1      12.876   0.434  -4.812  1.00  0.00    -0.382 N 
ATOM     31  H82 UNL     1      12.497   1.189  -5.384  1.00  0.00     0.157 HD
ATOM     32  H81 UNL     1      13.269  -0.233  -5.476  1.00  0.00     0.157 HD
ENDBRANCH   6  23
BRANCH   3  33
HETATM   33  C8  UNL     1      11.869   5.935  -4.447  1.00  0.00     0.368 C 
BRANCH  33  34
HETATM   34  N4  UNL     1      12.027   5.734  -5.886  1.00  0.00    -0.047 N 
ATOM     35  H43 UNL     1      12.595   4.915  -6.101  1.00  0.00     0.277 HD
ATOM     36  H42 UNL     1      11.161   5.430  -6.331  1.00  0.00     0.277 HD
ATOM     37  H41 UNL     1      12.400   6.584  -6.308  1.00  0.00     0.277 HD
ENDBRANCH  33  34
BRANCH  33  38
HETATM   38  O4  UNL     1      10.942   6.907  -4.174  1.00  0.00    -0.365 OA
ATOM     39  H4  UNL     1      11.359   7.737  -3.975  1.00  0.00     0.212 HD
ENDBRANCH  33  38
ENDBRANCH   3  33
TORSDOF 11
ENDMDL
MODEL 4
REMARK VINA RESULT: -7.162324713      2.005      5.928
REMARK  11 active torsions:
REMARK  status: ('A' for Active; 'I' for Inactive)
REMARK       I    between atoms: C2_2  and  N1_4 
REMARK    1  A    between atoms: N1_4  and  C3_6 
REMARK    2  A    between atoms: C3_6  and  C4_7 
REMARK    3  A    between atoms: C3_6  and  C5_14 
REMARK    4  A    between atoms: C4_7  and  N2_8 
REMARK    5  A    between atoms: C4_7  and  O2_12 
REMARK    6  A    between atoms: C5_14  and  O3_15 
REMARK    7  A    between atoms: C5_14  and  N3_17 
REMARK    8  A    between atoms: C7_19  and  C8_20 
REMARK    9  A    between atoms: C8_20  and  N4_21 
REMARK   10  A    between atoms: C8_20  and  O4_25 
REMARK   11  A    between atoms: C9_29  and  C10_30 
ROOT
HETATM    1  N3  UNL     1      10.214   2.405  -2.803  1.00  0.00    -0.310 N 
HETATM    2  C6  UNL     1       9.370   2.652  -1.760  1.00  0.00     0.125 A 
HETATM    3  C7  UNL     1       9.509   1.666  -0.815  1.00  0.00     0.083 A 
HETATM    4  N5  UNL     1      10.440   0.844  -1.320  1.00  0.00    -0.339 N 
ATOM      5  H5  UNL     1      10.779   0.000  -0.858  1.00  0.00     0.167 HD
HETATM    6  C9  UNL     1      10.871   1.285  -2.521  1.00  0.00     0.143 A 
ENDROOT
BRANCH   1   7
HETATM    7  C5  UNL     1      10.330   3.214  -3.941  1.00  0.00     0.253 C 
BRANCH   7   8
HETATM    8  C3  UNL     1      11.540   4.092  -4.026  1.00  0.00     0.189 C 
BRANCH   8   9
HETATM    9  N1  UNL     1      11.234   5.501  -3.927  1.00  0.00    -0.348 N 
HETATM   10  C2  UNL     1      11.689   6.320  -2.856  1.00  0.00     0.214 C 
HETATM   11  C1  UNL     1      11.392   7.751  -2.735  1.00  0.00     0.117 C 
HETATM   12  O1  UNL     1      12.400   5.795  -1.934  1.00  0.00    -0.274 OA
ATOM     13  H1  UNL     1      10.667   5.927  -4.659  1.00  0.00     0.163 HD
ENDBRANCH   8   9
BRANCH   8  14
HETATM   14  C4  UNL     1      12.451   3.798  -5.197  1.00  0.00     0.343 C 
BRANCH  14  15
HETATM   15  N2  UNL     1      12.510   4.967  -6.043  1.00  0.00    -0.051 N 
ATOM     16  H23 UNL     1      12.039   5.772  -5.631  1.00  0.00     0.277 HD
ATOM     17  H22 UNL     1      13.449   5.364  -6.095  1.00  0.00     0.277 HD
ATOM     18  H21 UNL     1      12.138   4.726  -6.962  1.00  0.00     0.277 HD
ENDBRANCH  14  15
BRANCH  14  19
HETATM   19  O2  UNL     1      13.737   3.534  -4.759  1.00  0.00    -0.368 OA
ATOM     20  H2  UNL     1      13.859   3.847  -3.870  1.00  0.00     0.212 HD
ENDBRANCH  14  19
ENDBRANCH   8  14
ENDBRANCH   7   8
BRANCH   7  21
HETATM   21  O3  UNL     1       9.213   4.081  -4.042  1.00  0.00    -0.374 OA
ATOM     22  H3  UNL     1       9.533   4.870  -4.466  1.00  0.00     0.212 HD
ENDBRANCH   7  21
ENDBRANCH   1   7
BRANCH   6  23
HETATM   23  C10 UNL     1      11.906   0.539  -3.279  1.00  0.00     0.146 A 
HETATM   24  N6  UNL     1      13.199   0.895  -3.421  1.00  0.00    -0.234 N 
HETATM   25  O5  UNL     1      13.775   0.004  -4.139  1.00  0.00    -0.155 OA
ATOM     26  H6  UNL     1      13.641   1.725  -3.026  1.00  0.00     0.197 HD
HETATM   27  N7  UNL     1      12.963  -0.928  -4.492  1.00  0.00    -0.224 N 
HETATM   28  C11 UNL     1      11.729  -0.630  -3.957  1.00  0.00     0.154 A 
ATOM     29  H7  UNL     1      13.192  -1.741  -5.064  1.00  0.00     0.198 HD
HETATM   30  N8  UNL     1      10.683  -1.344  -4.109  1.00  0.00    -0.382 N 
ATOM     31  H82 UNL     1       9.769  -1.124  -3.713  1.00  0.00     0.157 HD
ATOM     32  H81 UNL     1      10.551  -2.219  -4.617  1.00  0.00     0.157 HD
ENDBRANCH   6  23
BRANCH   3  33
HETATM   33  C8  UNL     1       8.783   1.525   0.498  1.00  0.00     0.368 C 
BRANCH  33  34
HETATM   34  N4  UNL     1       9.446   0.509   1.314  1.00  0.00    -0.047 N 
ATOM     35  H43 UNL     1       9.496  -0.393   0.841  1.00  0.00     0.277 HD
ATOM     36  H42 UNL     1      10.448   0.680   1.404  1.00  0.00     0.277 HD
ATOM     37  H41 UNL     1       8.982   0.445   2.220  1.00  0.00     0.277 HD
ENDBRANCH  33  34
BRANCH  33  38
HETATM   38  O4  UNL     1       8.704   2.724   1.158  1.00  0.00    -0.365 OA
ATOM     39  H4  UNL     1       9.529   2.947   1.572  1.00  0.00     0.212 HD
ENDBRANCH  33  38
ENDBRANCH   3  33
TORSDOF 11
ENDMDL
MODEL 5
REMARK VINA RESULT: -7.113457426      2.249      5.195
REMARK  11 active torsions:
REMARK  status: ('A' for Active; 'I' for Inactive)
REMARK       I    between atoms: C2_2  and  N1_4 
REMARK    1  A    between atoms: N1_4  and  C3_6 
REMARK    2  A    between atoms: C3_6  and  C4_7 
REMARK    3  A    between atoms: C3_6  and  C5_14 
REMARK    4  A    between atoms: C4_7  and  N2_8 
REMARK    5  A    between atoms: C4_7  and  O2_12 
REMARK    6  A    between atoms: C5_14  and  O3_15 
REMARK    7  A    between atoms: C5_14  and  N3_17 
REMARK    8  A    between atoms: C7_19  and  C8_20 
REMARK    9  A    between atoms: C8_20  and  N4_21 
REMARK   10  A    between atoms: C8_20  and  O4_25 
REMARK   11  A    between atoms: C9_29  and  C10_30 
ROOT
HETATM    1  N3  UNL     1      12.287   3.824  -3.375  1.00  0.00    -0.310 N 
HETATM    2  C6  UNL     1      13.177   3.214  -4.209  1.00  0.00     0.125 A 
HETATM    3  C7  UNL     1      12.794   1.913  -4.417  1.00  0.00     0.083 A 
HETATM    4  N5  UNL     1      11.673   1.772  -3.695  1.00  0.00    -0.339 N 
ATOM      5  H5  UNL     1      11.129   0.911  -3.633  1.00  0.00     0.167 HD
HETATM    6  C9  UNL     1      11.361   2.923  -3.063  1.00  0.00     0.143 A 
ENDROOT
BRANCH   1   7
HETATM    7  C5  UNL     1      12.375   5.157  -2.952  1.00  0.00     0.253 C 
BRANCH   7   8
HETATM    8  C3  UNL     1      12.933   6.141  -3.933  1.00  0.00     0.189 C 
BRANCH   8   9
HETATM    9  N1  UNL     1      13.699   7.197  -3.313  1.00  0.00    -0.348 N 
HETATM   10  C2  UNL     1      15.107   7.124  -3.120  1.00  0.00     0.214 C 
HETATM   11  C1  UNL     1      15.905   8.183  -2.494  1.00  0.00     0.117 C 
HETATM   12  O1  UNL     1      15.732   6.082  -3.510  1.00  0.00    -0.274 OA
ATOM     13  H1  UNL     1      13.207   8.034  -2.998  1.00  0.00     0.163 HD
ENDBRANCH   8   9
BRANCH   8  14
HETATM   14  C4  UNL     1      11.926   6.686  -4.921  1.00  0.00     0.343 C 
BRANCH  14  15
HETATM   15  N2  UNL     1      12.393   7.966  -5.400  1.00  0.00    -0.051 N 
ATOM     16  H23 UNL     1      12.583   8.621  -4.642  1.00  0.00     0.277 HD
ATOM     17  H22 UNL     1      13.336   7.918  -5.786  1.00  0.00     0.277 HD
ATOM     18  H21 UNL     1      11.716   8.331  -6.071  1.00  0.00     0.277 HD
ENDBRANCH  14  15
BRANCH  14  19
HETATM   19  O2  UNL     1      11.813   5.846  -6.015  1.00  0.00    -0.368 OA
ATOM     20  H2  UNL     1      11.211   6.209  -6.655  1.00  0.00     0.212 HD
ENDBRANCH  14  19
ENDBRANCH   8  14
ENDBRANCH   7   8
BRANCH   7  21
HETATM   21  O3  UNL     1      13.193   5.252  -1.799  1.00  0.00    -0.374 OA
ATOM     22  H3  UNL     1      12.670   4.913  -1.080  1.00  0.00     0.212 HD
ENDBRANCH   7  21
ENDBRANCH   1   7
BRANCH   6  23
HETATM   23  C10 UNL     1      10.157   3.014  -2.200  1.00  0.00     0.146 A 
HETATM   24  N6  UNL     1       9.896   2.254  -1.115  1.00  0.00    -0.234 N 
HETATM   25  O5  UNL     1       8.767   2.627  -0.637  1.00  0.00    -0.155 OA
ATOM     26  H6  UNL     1      10.491   1.515  -0.742  1.00  0.00     0.197 HD
HETATM   27  N7  UNL     1       8.248   3.584  -1.321  1.00  0.00    -0.224 N 
HETATM   28  C11 UNL     1       9.113   3.877  -2.352  1.00  0.00     0.154 A 
ATOM     29  H7  UNL     1       7.356   4.043  -1.133  1.00  0.00     0.198 HD
HETATM   30  N8  UNL     1       8.912   4.779  -3.231  1.00  0.00    -0.382 N 
ATOM     31  H82 UNL     1       9.552   4.996  -3.995  1.00  0.00     0.157 HD
ATOM     32  H81 UNL     1       8.131   5.425  -3.345  1.00  0.00     0.157 HD
ENDBRANCH   6  23
BRANCH   3  33
HETATM   33  C8  UNL     1      13.472   0.865  -5.263  1.00  0.00     0.368 C 
BRANCH  33  34
HETATM   34  N4  UNL     1      14.212   1.517  -6.342  1.00  0.00    -0.047 N 
ATOM     35  H43 UNL     1      14.537   0.852  -7.043  1.00  0.00     0.277 HD
ATOM     36  H42 UNL     1      13.607   2.076  -6.943  1.00  0.00     0.277 HD
ATOM     37  H41 UNL     1      14.976   2.065  -5.946  1.00  0.00     0.277 HD
ENDBRANCH  33  34
BRANCH  33  38
HETATM   38  O4  UNL     1      14.288   0.063  -4.508  1.00  0.00    -0.365 OA
ATOM     39  H4  UNL     1      14.673  -0.630  -5.031  1.00  0.00     0.212 HD
ENDBRANCH  33  38
ENDBRANCH   3  33
TORSDOF 11
ENDMDL
