MODEL 1
REMARK VINA RESULT: -7.787242131      0.000      0.000
REMARK  7 active torsions:
REMARK  status: ('A' for Active; 'I' for Inactive)
REMARK    1  A    between atoms: N1_1  and  C1_4 
REMARK    2  A    between atoms: C3_10  and  N4_11 
REMARK    3  A    between atoms: C4_16  and  N6_17 
REMARK    4  A    between atoms: N6_17  and  N7_19 
REMARK    5  A    between atoms: C5_21  and  C6_22 
REMARK    6  A    between atoms: C6_22  and  O1_23 
REMARK    7  A    between atoms: C6_22  and  C7_25 
ROOT
HETATM    1  C1  UNL     1      64.978  87.872  55.533  1.00  0.00     0.706 A 
HETATM    2  N2  UNL     1      64.194  88.665  56.286  1.00  0.00    -0.018 N 
ATOM      3  H2  UNL     1      63.552  89.371  55.925  1.00  0.00     0.203 HD
HETATM    4  C2  UNL     1      64.385  88.381  57.594  1.00  0.00     0.748 A 
HETATM    5  N3  UNL     1      63.849  88.887  58.719  1.00  0.00    -0.019 N 
ATOM      6  H3  UNL     1      63.155  89.633  58.670  1.00  0.00     0.203 HD
HETATM    7  C3  UNL     1      64.240  88.397  59.915  1.00  0.00     0.705 A 
HETATM    8  N5  UNL     1      65.156  87.417  59.938  1.00  0.00    -0.018 N 
ATOM      9  H5  UNL     1      65.444  87.052  60.847  1.00  0.00     0.203 HD
HETATM   10  C4  UNL     1      65.715  86.885  58.841  1.00  0.00     0.748 A 
HETATM   11  N8  UNL     1      65.312  87.388  57.652  1.00  0.00     0.107 N 
HETATM   12  N9  UNL     1      65.648  87.103  56.409  1.00  0.00    -0.096 N 
ATOM     13  H9  UNL     1      66.328  86.391  56.145  1.00  0.00     0.207 HD
ENDROOT
BRANCH  10  14
HETATM   14  N6  UNL     1      66.580  85.958  58.857  1.00  0.00    -0.130 N 
ATOM     15  H6  UNL     1      66.459  85.205  58.180  1.00  0.00     0.205 HD
BRANCH  14  16
HETATM   16  N7  UNL     1      67.667  85.867  59.696  1.00  0.00    -0.298 N 
HETATM   17  C5  UNL     1      67.576  85.227  60.809  1.00  0.00     0.123 C 
ATOM     18  H7  UNL     1      68.548  86.309  59.436  1.00  0.00     0.186 HD
BRANCH  17  19
HETATM   19  C6  UNL     1      68.717  85.096  61.754  1.00  0.00     0.258 C 
BRANCH  19  20
HETATM   20  O1  UNL     1      69.165  86.332  62.214  1.00  0.00    -0.380 OA
ATOM     21  H1  UNL     1      69.715  86.252  62.984  1.00  0.00     0.211 HD
ENDBRANCH  19  20
BRANCH  19  22
HETATM   22  C7  UNL     1      69.821  84.304  61.162  1.00  0.00     0.208 C 
HETATM   23  O2  UNL     1      70.637  84.873  60.400  1.00  0.00    -0.646 OA
HETATM   24  O3  UNL     1      69.974  82.961  61.427  1.00  0.00    -0.646 OA
ENDBRANCH  19  22
ENDBRANCH  17  19
ENDBRANCH  14  16
ENDBRANCH  10  14
BRANCH   7  25
HETATM   25  N4  UNL     1      63.707  88.905  60.969  1.00  0.00    -0.234 N 
ATOM     26  H42 UNL     1      63.000  89.640  60.952  1.00  0.00     0.174 HD
ATOM     27  H41 UNL     1      64.015  88.546  61.873  1.00  0.00     0.174 HD
ENDBRANCH   7  25
BRANCH   1  28
HETATM   28  N1  UNL     1      65.094  87.826  54.237  1.00  0.00    -0.233 N 
ATOM     29  H12 UNL     1      64.517  88.335  53.568  1.00  0.00     0.174 HD
ATOM     30  H11 UNL     1      65.755  87.295  53.670  1.00  0.00     0.174 HD
ENDBRANCH   1  28
TORSDOF 7
ENDMDL
MODEL 2
REMARK VINA RESULT: -7.640027652      0.925      3.299
REMARK  7 active torsions:
REMARK  status: ('A' for Active; 'I' for Inactive)
REMARK    1  A    between atoms: N1_1  and  C1_4 
REMARK    2  A    between atoms: C3_10  and  N4_11 
REMARK    3  A    between atoms: C4_16  and  N6_17 
REMARK    4  A    between atoms: N6_17  and  N7_19 
REMARK    5  A    between atoms: C5_21  and  C6_22 
REMARK    6  A    between atoms: C6_22  and  O1_23 
REMARK    7  A    between atoms: C6_22  and  C7_25 
ROOT
HETATM    1  C1  UNL     1      64.159  88.665  60.333  1.00  0.00     0.706 A 
HETATM    2  N2  UNL     1      63.841  89.211  59.145  1.00  0.00    -0.018 N 
ATOM      3  H2  UNL     1      63.268  90.045  59.016  1.00  0.00     0.203 HD
HETATM    4  C2  UNL     1      64.398  88.486  58.148  1.00  0.00     0.748 A 
HETATM    5  N3  UNL     1      64.375  88.617  56.810  1.00  0.00    -0.019 N 
ATOM      6  H3  UNL     1      63.863  89.385  56.376  1.00  0.00     0.203 HD
HETATM    7  C3  UNL     1      65.038  87.721  56.047  1.00  0.00     0.705 A 
HETATM    8  N5  UNL     1      65.700  86.726  56.656  1.00  0.00    -0.018 N 
ATOM      9  H5  UNL     1      66.198  86.055  56.072  1.00  0.00     0.203 HD
HETATM   10  C4  UNL     1      65.747  86.558  57.987  1.00  0.00     0.748 A 
HETATM   11  N8  UNL     1      65.077  87.464  58.735  1.00  0.00     0.107 N 
HETATM   12  N9  UNL     1      64.919  87.595  60.037  1.00  0.00    -0.096 N 
ATOM     13  H9  UNL     1      65.321  86.966  60.732  1.00  0.00     0.207 HD
ENDROOT
BRANCH  10  14
HETATM   14  N6  UNL     1      66.371  85.619  58.567  1.00  0.00    -0.130 N 
ATOM     15  H6  UNL     1      65.959  84.688  58.506  1.00  0.00     0.205 HD
BRANCH  14  16
HETATM   16  N7  UNL     1      67.547  85.732  59.272  1.00  0.00    -0.298 N 
HETATM   17  C5  UNL     1      67.741  85.024  60.329  1.00  0.00     0.123 C 
ATOM     18  H7  UNL     1      68.269  86.379  58.955  1.00  0.00     0.186 HD
BRANCH  17  19
HETATM   19  C6  UNL     1      68.992  85.105  61.129  1.00  0.00     0.258 C 
BRANCH  19  20
HETATM   20  O1  UNL     1      70.108  84.688  60.407  1.00  0.00    -0.380 OA
ATOM     21  H1  UNL     1      70.775  84.304  60.965  1.00  0.00     0.211 HD
ENDBRANCH  19  20
BRANCH  19  22
HETATM   22  C7  UNL     1      68.865  84.366  62.408  1.00  0.00     0.208 C 
HETATM   23  O2  UNL     1      67.784  84.423  63.038  1.00  0.00    -0.646 OA
HETATM   24  O3  UNL     1      69.903  83.619  62.921  1.00  0.00    -0.646 OA
ENDBRANCH  19  22
ENDBRANCH  17  19
ENDBRANCH  14  16
ENDBRANCH  10  14
BRANCH   7  25
HETATM   25  N4  UNL     1      64.994  87.878  54.772  1.00  0.00    -0.234 N 
ATOM     26  H42 UNL     1      64.471  88.620  54.307  1.00  0.00     0.174 HD
ATOM     27  H41 UNL     1      65.517  87.217  54.197  1.00  0.00     0.174 HD
ENDBRANCH   7  25
BRANCH   1  28
HETATM   28  N1  UNL     1      63.827  89.054  61.530  1.00  0.00    -0.233 N 
ATOM     29  H12 UNL     1      63.204  89.829  61.753  1.00  0.00     0.174 HD
ATOM     30  H11 UNL     1      64.113  88.673  62.431  1.00  0.00     0.174 HD
ENDBRANCH   1  28
TORSDOF 7
ENDMDL
MODEL 3
REMARK VINA RESULT: -7.142880577      3.311      5.098
REMARK  7 active torsions:
REMARK  status: ('A' for Active; 'I' for Inactive)
REMARK    1  A    between atoms: N1_1  and  C1_4 
REMARK    2  A    between atoms: C3_10  and  N4_11 
REMARK    3  A    between atoms: C4_16  and  N6_17 
REMARK    4  A    between atoms: N6_17  and  N7_19 
REMARK    5  A    between atoms: C5_21  and  C6_22 
REMARK    6  A    between atoms: C6_22  and  O1_23 
REMARK    7  A    between atoms: C6_22  and  C7_25 
ROOT
HETATM    1  C1  UNL     1      66.777  85.741  58.904  1.00  0.00     0.706 A 
HETATM    2  N2  UNL     1      66.504  86.445  60.017  1.00  0.00    -0.018 N 
ATOM      3  H2  UNL     1      65.843  87.221  60.075  1.00  0.00     0.203 HD
HETATM    4  C2  UNL     1      67.237  85.968  61.049  1.00  0.00     0.748 A 
HETATM    5  N3  UNL     1      67.323  86.326  62.342  1.00  0.00    -0.019 N 
ATOM      6  H3  UNL     1      66.761  87.097  62.702  1.00  0.00     0.203 HD
HETATM    7  C3  UNL     1      68.162  85.652  63.159  1.00  0.00     0.705 A 
HETATM    8  N5  UNL     1      68.884  84.644  62.647  1.00  0.00    -0.018 N 
ATOM      9  H5  UNL     1      69.514  84.142  63.272  1.00  0.00     0.203 HD
HETATM   10  C4  UNL     1      68.829  84.256  61.364  1.00  0.00     0.748 A 
HETATM   11  N8  UNL     1      67.985  84.941  60.560  1.00  0.00     0.107 N 
HETATM   12  N9  UNL     1      67.690  84.827  59.280  1.00  0.00    -0.096 N 
ATOM     13  H9  UNL     1      68.101  84.135  58.654  1.00  0.00     0.207 HD
ENDROOT
BRANCH  10  14
HETATM   14  N6  UNL     1      69.509  83.305  60.875  1.00  0.00    -0.130 N 
ATOM     15  H6  UNL     1      69.741  83.368  59.884  1.00  0.00     0.205 HD
BRANCH  14  16
HETATM   16  N7  UNL     1      69.965  82.194  61.548  1.00  0.00    -0.298 N 
HETATM   17  C5  UNL     1      69.142  81.439  62.187  1.00  0.00     0.123 C 
ATOM     18  H7  UNL     1      70.959  81.969  61.540  1.00  0.00     0.186 HD
BRANCH  17  19
HETATM   19  C6  UNL     1      69.579  80.228  62.931  1.00  0.00     0.258 C 
BRANCH  19  20
HETATM   20  O1  UNL     1      70.300  80.545  64.080  1.00  0.00    -0.380 OA
ATOM     21  H1  UNL     1      70.478  81.476  64.148  1.00  0.00     0.211 HD
ENDBRANCH  19  20
BRANCH  19  22
HETATM   22  C7  UNL     1      70.333  79.299  62.056  1.00  0.00     0.208 C 
HETATM   23  O2  UNL     1      71.084  78.445  62.581  1.00  0.00    -0.646 OA
HETATM   24  O3  UNL     1      70.229  79.350  60.683  1.00  0.00    -0.646 OA
ENDBRANCH  19  22
ENDBRANCH  17  19
ENDBRANCH  14  16
ENDBRANCH  10  14
BRANCH   7  25
HETATM   25  N4  UNL     1      68.218  86.023  64.389  1.00  0.00    -0.234 N 
ATOM     26  H42 UNL     1      67.421  86.008  65.025  1.00  0.00     0.174 HD
ATOM     27  H41 UNL     1      69.118  86.350  64.742  1.00  0.00     0.174 HD
ENDBRANCH   7  25
BRANCH   1  28
HETATM   28  N1  UNL     1      66.288  85.878  57.706  1.00  0.00    -0.233 N 
ATOM     29  H12 UNL     1      65.869  86.727  57.327  1.00  0.00     0.174 HD
ATOM     30  H11 UNL     1      66.234  85.194  56.952  1.00  0.00     0.174 HD
ENDBRANCH   1  28
TORSDOF 7
ENDMDL
MODEL 4
REMARK VINA RESULT: -6.710094152      9.214     12.580
REMARK  7 active torsions:
REMARK  status: ('A' for Active; 'I' for Inactive)
REMARK    1  A    between atoms: N1_1  and  C1_4 
REMARK    2  A    between atoms: C3_10  and  N4_11 
REMARK    3  A    between atoms: C4_16  and  N6_17 
REMARK    4  A    between atoms: N6_17  and  N7_19 
REMARK    5  A    between atoms: C5_21  and  C6_22 
REMARK    6  A    between atoms: C6_22  and  O1_23 
REMARK    7  A    between atoms: C6_22  and  C7_25 
ROOT
HETATM    1  C1  UNL     1      73.896  75.070  63.730  1.00  0.00     0.706 A 
HETATM    2  N2  UNL     1      74.888  75.394  62.881  1.00  0.00    -0.018 N 
ATOM      3  H2  UNL     1      75.830  75.000  62.898  1.00  0.00     0.203 HD
HETATM    4  C2  UNL     1      74.447  76.320  62.000  1.00  0.00     0.748 A 
HETATM    5  N3  UNL     1      75.045  76.953  60.975  1.00  0.00    -0.019 N 
ATOM      6  H3  UNL     1      76.019  76.758  60.745  1.00  0.00     0.203 HD
HETATM    7  C3  UNL     1      74.340  77.851  60.252  1.00  0.00     0.705 A 
HETATM    8  N5  UNL     1      73.061  78.080  60.585  1.00  0.00    -0.018 N 
ATOM      9  H5  UNL     1      72.537  78.759  60.033  1.00  0.00     0.203 HD
HETATM   10  C4  UNL     1      72.428  77.472  61.600  1.00  0.00     0.748 A 
HETATM   11  N8  UNL     1      73.148  76.577  62.312  1.00  0.00     0.107 N 
HETATM   12  N9  UNL     1      72.846  75.817  63.347  1.00  0.00    -0.096 N 
ATOM     13  H9  UNL     1      71.932  75.799  63.800  1.00  0.00     0.207 HD
ENDROOT
BRANCH  10  14
HETATM   14  N6  UNL     1      71.220  77.685  61.919  1.00  0.00    -0.130 N 
ATOM     15  H6  UNL     1      70.535  76.995  61.610  1.00  0.00     0.205 HD
BRANCH  14  16
HETATM   16  N7  UNL     1      70.739  78.754  62.639  1.00  0.00    -0.298 N 
HETATM   17  C5  UNL     1      69.858  79.539  62.127  1.00  0.00     0.123 C 
ATOM     18  H7  UNL     1      71.084  78.926  63.583  1.00  0.00     0.186 HD
BRANCH  17  19
HETATM   19  C6  UNL     1      69.304  80.709  62.860  1.00  0.00     0.258 C 
BRANCH  19  20
HETATM   20  O1  UNL     1      67.915  80.772  62.781  1.00  0.00    -0.380 OA
ATOM     21  H1  UNL     1      67.497  80.028  63.198  1.00  0.00     0.211 HD
ENDBRANCH  19  20
BRANCH  19  22
HETATM   22  C7  UNL     1      69.932  81.974  62.411  1.00  0.00     0.208 C 
HETATM   23  O2  UNL     1      69.978  82.228  61.185  1.00  0.00    -0.646 OA
HETATM   24  O3  UNL     1      70.465  82.877  63.305  1.00  0.00    -0.646 OA
ENDBRANCH  19  22
ENDBRANCH  17  19
ENDBRANCH  14  16
ENDBRANCH  10  14
BRANCH   7  25
HETATM   25  N4  UNL     1      74.944  78.436  59.280  1.00  0.00    -0.234 N 
ATOM     26  H42 UNL     1      75.223  77.968  58.417  1.00  0.00     0.174 HD
ATOM     27  H41 UNL     1      75.154  79.429  59.385  1.00  0.00     0.174 HD
ENDBRANCH   7  25
BRANCH   1  28
HETATM   28  N1  UNL     1      73.907  74.224  64.719  1.00  0.00    -0.233 N 
ATOM     29  H12 UNL     1      74.602  74.187  65.464  1.00  0.00     0.174 HD
ATOM     30  H11 UNL     1      73.251  73.472  64.929  1.00  0.00     0.174 HD
ENDBRANCH   1  28
TORSDOF 7
ENDMDL
MODEL 5
REMARK VINA RESULT: -6.617958244      9.636     12.944
REMARK  7 active torsions:
REMARK  status: ('A' for Active; 'I' for Inactive)
REMARK    1  A    between atoms: N1_1  and  C1_4 
REMARK    2  A    between atoms: C3_10  and  N4_11 
REMARK    3  A    between atoms: C4_16  and  N6_17 
REMARK    4  A    between atoms: N6_17  and  N7_19 
REMARK    5  A    between atoms: C5_21  and  C6_22 
REMARK    6  A    between atoms: C6_22  and  O1_23 
REMARK    7  A    between atoms: C6_22  and  C7_25 
ROOT
HETATM    1  C1  UNL     1      73.981  75.054  63.837  1.00  0.00     0.706 A 
HETATM    2  N2  UNL     1      75.084  75.329  63.116  1.00  0.00    -0.018 N 
ATOM      3  H2  UNL     1      76.015  74.956  63.302  1.00  0.00     0.203 HD
HETATM    4  C2  UNL     1      74.769  76.175  62.109  1.00  0.00     0.748 A 
HETATM    5  N3  UNL     1      75.504  76.737  61.134  1.00  0.00    -0.019 N 
ATOM      6  H3  UNL     1      76.504  76.543  61.064  1.00  0.00     0.203 HD
HETATM    7  C3  UNL     1      74.906  77.561  60.247  1.00  0.00     0.705 A 
HETATM    8  N5  UNL     1      73.590  77.791  60.372  1.00  0.00    -0.018 N 
ATOM      9  H5  UNL     1      73.147  78.415  59.697  1.00  0.00     0.203 HD
HETATM   10  C4  UNL     1      72.821  77.253  61.330  1.00  0.00     0.748 A 
HETATM   11  N8  UNL     1      73.436  76.430  62.209  1.00  0.00     0.107 N 
HETATM   12  N9  UNL     1      72.992  75.748  63.247  1.00  0.00    -0.096 N 
ATOM     13  H9  UNL     1      72.022  75.748  63.563  1.00  0.00     0.207 HD
ENDROOT
BRANCH  10  14
HETATM   14  N6  UNL     1      71.577  77.466  61.453  1.00  0.00    -0.130 N 
ATOM     15  H6  UNL     1      70.950  76.815  60.980  1.00  0.00     0.205 HD
BRANCH  14  16
HETATM   16  N7  UNL     1      70.988  78.490  62.160  1.00  0.00    -0.298 N 
HETATM   17  C5  UNL     1      70.780  79.629  61.600  1.00  0.00     0.123 C 
ATOM     18  H7  UNL     1      70.717  78.344  63.132  1.00  0.00     0.186 HD
BRANCH  17  19
HETATM   19  C6  UNL     1      70.148  80.770  62.316  1.00  0.00     0.258 C 
BRANCH  19  20
HETATM   20  O1  UNL     1      71.088  81.594  62.928  1.00  0.00    -0.380 OA
ATOM     21  H1  UNL     1      70.798  82.498  62.975  1.00  0.00     0.211 HD
ENDBRANCH  19  20
BRANCH  19  22
HETATM   22  C7  UNL     1      69.124  80.302  63.281  1.00  0.00     0.208 C 
HETATM   23  O2  UNL     1      69.484  79.958  64.430  1.00  0.00    -0.646 OA
HETATM   24  O3  UNL     1      67.789  80.235  62.947  1.00  0.00    -0.646 OA
ENDBRANCH  19  22
ENDBRANCH  17  19
ENDBRANCH  14  16
ENDBRANCH  10  14
BRANCH   7  25
HETATM   25  N4  UNL     1      75.641  78.080  59.328  1.00  0.00    -0.234 N 
ATOM     26  H42 UNL     1      76.057  77.549  58.564  1.00  0.00     0.174 HD
ATOM     27  H41 UNL     1      75.812  79.085  59.374  1.00  0.00     0.174 HD
ENDBRANCH   7  25
BRANCH   1  28
HETATM   28  N1  UNL     1      73.854  74.288  64.882  1.00  0.00    -0.233 N 
ATOM     29  H12 UNL     1      74.187  73.328  64.961  1.00  0.00     0.174 HD
ATOM     30  H11 UNL     1      73.417  74.495  65.780  1.00  0.00     0.174 HD
ENDBRANCH   1  28
TORSDOF 7
ENDMDL
