MODEL 1
REMARK VINA RESULT: -5.099236548      0.000      0.000
REMARK  4 active torsions:
REMARK  status: ('A' for Active; 'I' for Inactive)
REMARK    1  A    between atoms: N1_7  and  C7_8 
REMARK    2  A    between atoms: C7_8  and  C8_9 
REMARK    3  A    between atoms: C8_9  and  N2_10 
REMARK    4  A    between atoms: C8_9  and  N3_14 
ROOT
HETATM    1  C7  UNL     1     -24.262   6.323 -11.881  1.00  0.00     0.189 C 
ENDROOT
BRANCH   1   2
HETATM    2  N1  UNL     1     -24.182   7.238 -12.986  1.00  0.00    -0.369 N 
HETATM    3  C6  UNL     1     -22.866   7.415 -13.446  1.00  0.00     0.063 C 
HETATM    4  C5  UNL     1     -22.717   8.664 -14.301  1.00  0.00     0.046 C 
HETATM    5  C4  UNL     1     -23.032   9.809 -13.332  1.00  0.00     0.019 C 
HETATM    6  C2  UNL     1     -24.494   9.697 -13.003  1.00  0.00    -0.015 C 
HETATM    7  C1  UNL     1     -25.238  10.441 -14.126  1.00  0.00     0.020 C 
HETATM    8  C3  UNL     1     -24.714  10.590 -11.770  1.00  0.00     0.020 C 
HETATM    9  C9  UNL     1     -25.016   8.339 -12.801  1.00  0.00     0.072 C 
ENDBRANCH   1   2
BRANCH   1  10
HETATM   10  C8  UNL     1     -24.472   4.893 -12.287  1.00  0.00     0.395 C 
BRANCH  10  11
HETATM   11  N2  UNL     1     -25.555   4.249 -11.605  1.00  0.00    -0.049 N 
ATOM     12  H23 UNL     1     -26.204   4.941 -11.230  1.00  0.00     0.276 HD
ATOM     13  H22 UNL     1     -26.170   3.780 -12.270  1.00  0.00     0.276 HD
ATOM     14  H21 UNL     1     -25.257   3.603 -10.875  1.00  0.00     0.276 HD
ENDBRANCH  10  11
BRANCH  10  15
HETATM   15  N3  UNL     1     -23.235   4.178 -11.968  1.00  0.00    -0.049 N 
ATOM     16  H33 UNL     1     -23.058   3.385 -12.585  1.00  0.00     0.276 HD
ATOM     17  H32 UNL     1     -22.394   4.708 -12.196  1.00  0.00     0.276 HD
ATOM     18  H31 UNL     1     -23.292   3.916 -10.984  1.00  0.00     0.276 HD
ENDBRANCH  10  15
ENDBRANCH   1  10
TORSDOF 4
ENDMDL
MODEL 2
REMARK VINA RESULT: -5.081503971      1.527      2.663
REMARK  4 active torsions:
REMARK  status: ('A' for Active; 'I' for Inactive)
REMARK    1  A    between atoms: N1_7  and  C7_8 
REMARK    2  A    between atoms: C7_8  and  C8_9 
REMARK    3  A    between atoms: C8_9  and  N2_10 
REMARK    4  A    between atoms: C8_9  and  N3_14 
ROOT
HETATM    1  C7  UNL     1     -22.797   5.838 -13.662  1.00  0.00     0.189 C 
ENDROOT
BRANCH   1   2
HETATM    2  N1  UNL     1     -23.049   6.971 -12.814  1.00  0.00    -0.369 N 
HETATM    3  C6  UNL     1     -24.251   6.850 -12.097  1.00  0.00     0.063 C 
HETATM    4  C5  UNL     1     -24.729   8.185 -11.546  1.00  0.00     0.046 C 
HETATM    5  C4  UNL     1     -25.015   9.017 -12.800  1.00  0.00     0.019 C 
HETATM    6  C2  UNL     1     -23.685   9.282 -13.446  1.00  0.00    -0.015 C 
HETATM    7  C1  UNL     1     -23.116  10.529 -12.748  1.00  0.00     0.020 C 
HETATM    8  C3  UNL     1     -24.002   9.777 -14.868  1.00  0.00     0.020 C 
HETATM    9  C9  UNL     1     -22.727   8.168 -13.451  1.00  0.00     0.072 C 
ENDBRANCH   1   2
BRANCH   1  10
HETATM   10  C8  UNL     1     -21.815   4.855 -13.090  1.00  0.00     0.395 C 
BRANCH  10  11
HETATM   11  N2  UNL     1     -21.182   4.029 -14.074  1.00  0.00    -0.049 N 
ATOM     12  H23 UNL     1     -20.493   3.416 -13.638  1.00  0.00     0.276 HD
ATOM     13  H22 UNL     1     -21.835   3.329 -14.428  1.00  0.00     0.276 HD
ATOM     14  H21 UNL     1     -20.764   4.550 -14.843  1.00  0.00     0.276 HD
ENDBRANCH  10  11
BRANCH  10  15
HETATM   15  N3  UNL     1     -22.567   3.993 -12.176  1.00  0.00    -0.049 N 
ATOM     16  H33 UNL     1     -22.094   3.842 -11.285  1.00  0.00     0.276 HD
ATOM     17  H32 UNL     1     -23.406   4.436 -11.803  1.00  0.00     0.276 HD
ATOM     18  H31 UNL     1     -22.759   3.127 -12.680  1.00  0.00     0.276 HD
ENDBRANCH  10  15
ENDBRANCH   1  10
TORSDOF 4
ENDMDL
MODEL 3
REMARK VINA RESULT: -5.077373280      2.138      5.042
REMARK  4 active torsions:
REMARK  status: ('A' for Active; 'I' for Inactive)
REMARK    1  A    between atoms: N1_7  and  C7_8 
REMARK    2  A    between atoms: C7_8  and  C8_9 
REMARK    3  A    between atoms: C8_9  and  N2_10 
REMARK    4  A    between atoms: C8_9  and  N3_14 
ROOT
HETATM    1  C7  UNL     1     -23.312   8.393 -12.380  1.00  0.00     0.189 C 
ENDROOT
BRANCH   1   2
HETATM    2  N1  UNL     1     -23.798   7.127 -12.854  1.00  0.00    -0.369 N 
HETATM    3  C6  UNL     1     -24.498   6.414 -11.866  1.00  0.00     0.063 C 
HETATM    4  C5  UNL     1     -24.639   4.939 -12.211  1.00  0.00     0.046 C 
HETATM    5  C4  UNL     1     -23.195   4.427 -12.221  1.00  0.00     0.019 C 
HETATM    6  C2  UNL     1     -22.524   5.072 -13.401  1.00  0.00    -0.015 C 
HETATM    7  C1  UNL     1     -22.850   4.180 -14.612  1.00  0.00     0.020 C 
HETATM    8  C3  UNL     1     -21.015   4.860 -13.191  1.00  0.00     0.020 C 
HETATM    9  C9  UNL     1     -22.854   6.481 -13.650  1.00  0.00     0.072 C 
ENDBRANCH   1   2
BRANCH   1  10
HETATM   10  C8  UNL     1     -22.484   9.143 -13.384  1.00  0.00     0.395 C 
BRANCH  10  11
HETATM   11  N2  UNL     1     -21.259   9.661 -12.854  1.00  0.00    -0.049 N 
ATOM     12  H23 UNL     1     -21.161  10.651 -13.080  1.00  0.00     0.276 HD
ATOM     13  H22 UNL     1     -21.305   9.721 -11.837  1.00  0.00     0.276 HD
ATOM     14  H21 UNL     1     -20.431   9.142 -13.146  1.00  0.00     0.276 HD
ENDBRANCH  10  11
BRANCH  10  15
HETATM   15  N3  UNL     1     -23.300  10.268 -13.847  1.00  0.00    -0.049 N 
ATOM     16  H33 UNL     1     -23.263  11.075 -13.224  1.00  0.00     0.276 HD
ATOM     17  H32 UNL     1     -22.920  10.727 -14.675  1.00  0.00     0.276 HD
ATOM     18  H31 UNL     1     -24.244   9.909 -13.984  1.00  0.00     0.276 HD
ENDBRANCH  10  15
ENDBRANCH   1  10
TORSDOF 4
ENDMDL
MODEL 4
REMARK VINA RESULT: -4.995475225      7.029      8.585
REMARK  4 active torsions:
REMARK  status: ('A' for Active; 'I' for Inactive)
REMARK    1  A    between atoms: N1_7  and  C7_8 
REMARK    2  A    between atoms: C7_8  and  C8_9 
REMARK    3  A    between atoms: C8_9  and  N2_10 
REMARK    4  A    between atoms: C8_9  and  N3_14 
ROOT
HETATM    1  C7  UNL     1     -27.341  14.543  -7.055  1.00  0.00     0.189 C 
ENDROOT
BRANCH   1   2
HETATM    2  N1  UNL     1     -26.477  14.010  -8.072  1.00  0.00    -0.369 N 
HETATM    3  C6  UNL     1     -27.188  13.379  -9.107  1.00  0.00     0.063 C 
HETATM    4  C5  UNL     1     -26.302  12.466  -9.940  1.00  0.00     0.046 C 
HETATM    5  C4  UNL     1     -25.860  11.384  -8.950  1.00  0.00     0.019 C 
HETATM    6  C2  UNL     1     -24.952  12.058  -7.961  1.00  0.00    -0.015 C 
HETATM    7  C1  UNL     1     -23.552  12.050  -8.597  1.00  0.00     0.020 C 
HETATM    8  C3  UNL     1     -24.819  11.080  -6.781  1.00  0.00     0.020 C 
HETATM    9  C9  UNL     1     -25.350  13.402  -7.520  1.00  0.00     0.072 C 
ENDBRANCH   1   2
BRANCH   1  10
HETATM   10  C8  UNL     1     -28.070  13.495  -6.264  1.00  0.00     0.395 C 
BRANCH  10  11
HETATM   11  N2  UNL     1     -29.494  13.650  -6.270  1.00  0.00    -0.049 N 
ATOM     12  H23 UNL     1     -29.819  13.939  -7.192  1.00  0.00     0.276 HD
ATOM     13  H22 UNL     1     -29.954  12.742  -6.203  1.00  0.00     0.276 HD
ATOM     14  H21 UNL     1     -29.843  14.283  -5.551  1.00  0.00     0.276 HD
ENDBRANCH  10  11
BRANCH  10  15
HETATM   15  N3  UNL     1     -27.599  13.606  -4.882  1.00  0.00    -0.049 N 
ATOM     16  H33 UNL     1     -27.932  12.851  -4.281  1.00  0.00     0.276 HD
ATOM     17  H32 UNL     1     -26.601  13.420  -4.780  1.00  0.00     0.276 HD
ATOM     18  H31 UNL     1     -27.872  14.532  -4.552  1.00  0.00     0.276 HD
ENDBRANCH  10  15
ENDBRANCH   1  10
TORSDOF 4
ENDMDL
MODEL 5
REMARK VINA RESULT: -4.951893329      1.513      1.933
REMARK  4 active torsions:
REMARK  status: ('A' for Active; 'I' for Inactive)
REMARK    1  A    between atoms: N1_7  and  C7_8 
REMARK    2  A    between atoms: C7_8  and  C8_9 
REMARK    3  A    between atoms: C8_9  and  N2_10 
REMARK    4  A    between atoms: C8_9  and  N3_14 
ROOT
HETATM    1  C7  UNL     1     -22.336   6.107 -12.962  1.00  0.00     0.189 C 
ENDROOT
BRANCH   1   2
HETATM    2  N1  UNL     1     -23.411   7.050 -13.112  1.00  0.00    -0.369 N 
HETATM    3  C6  UNL     1     -23.781   7.235 -14.455  1.00  0.00     0.063 C 
HETATM    4  C5  UNL     1     -24.593   8.505 -14.659  1.00  0.00     0.046 C 
HETATM    5  C4  UNL     1     -23.617   9.625 -14.285  1.00  0.00     0.019 C 
HETATM    6  C2  UNL     1     -23.384   9.510 -12.805  1.00  0.00    -0.015 C 
HETATM    7  C1  UNL     1     -24.531  10.284 -12.134  1.00  0.00     0.020 C 
HETATM    8  C3  UNL     1     -22.144  10.371 -12.509  1.00  0.00     0.020 C 
HETATM    9  C9  UNL     1     -23.250   8.148 -12.270  1.00  0.00     0.072 C 
ENDBRANCH   1   2
BRANCH   1  10
HETATM   10  C8  UNL     1     -22.745   4.677 -13.173  1.00  0.00     0.395 C 
BRANCH  10  11
HETATM   11  N2  UNL     1     -23.099   3.991 -11.967  1.00  0.00    -0.049 N 
ATOM     12  H23 UNL     1     -22.593   4.380 -11.171  1.00  0.00     0.276 HD
ATOM     13  H22 UNL     1     -24.054   4.219 -11.691  1.00  0.00     0.276 HD
ATOM     14  H21 UNL     1     -22.971   2.980 -12.015  1.00  0.00     0.276 HD
ENDBRANCH  10  11
BRANCH  10  15
HETATM   15  N3  UNL     1     -21.597   3.995 -13.773  1.00  0.00    -0.049 N 
ATOM     16  H33 UNL     1     -21.862   3.279 -14.449  1.00  0.00     0.276 HD
ATOM     17  H32 UNL     1     -21.067   4.587 -14.414  1.00  0.00     0.276 HD
ATOM     18  H31 UNL     1     -21.035   3.633 -13.003  1.00  0.00     0.276 HD
ENDBRANCH  10  15
ENDBRANCH   1  10
TORSDOF 4
ENDMDL
