MODEL 1
REMARK VINA RESULT: -5.787399936      0.000      0.000
REMARK  1 active torsions:
REMARK  status: ('A' for Active; 'I' for Inactive)
REMARK    1  A    between atoms: C8_9  and  N1_10 
ROOT
HETATM    1  C1  UNL     1      25.385  -2.105  11.264  1.00  0.00     0.051 C 
HETATM    2  C2  UNL     1      24.252  -1.195  10.978  1.00  0.00     0.120 C 
HETATM    3  O1  UNL     1      24.183  -0.804   9.649  1.00  0.00    -0.342 OA
HETATM    4  C3  UNL     1      24.042   0.578   9.623  1.00  0.00     0.286 C 
HETATM    5  C4  UNL     1      22.613   0.869   9.328  1.00  0.00     0.029 C 
HETATM    6  C5  UNL     1      21.636   0.844  10.227  1.00  0.00    -0.025 C 
HETATM    7  C6  UNL     1      21.635   0.551  11.664  1.00  0.00     0.037 C 
HETATM    8  C7  UNL     1      22.742  -0.314  12.140  1.00  0.00     0.060 C 
HETATM    9  C8  UNL     1      22.891  -1.651  11.453  1.00  0.00     0.227 C 
HETATM   10  C9  UNL     1      24.110   0.047  11.786  1.00  0.00     0.099 C 
HETATM   11  C10 UNL     1      25.012   0.202  12.981  1.00  0.00     0.050 C 
HETATM   12  O2  UNL     1      24.320   1.046  10.886  1.00  0.00    -0.344 OA
ENDROOT
BRANCH   9  13
HETATM   13  N1  UNL     1      23.045  -2.787  12.342  1.00  0.00    -0.072 N 
ATOM     14  H13 UNL     1      22.380  -3.532  12.135  1.00  0.00     0.274 HD
ATOM     15  H12 UNL     1      23.904  -3.306  12.160  1.00  0.00     0.274 HD
ATOM     16  H11 UNL     1      22.983  -2.471  13.310  1.00  0.00     0.274 HD
ENDBRANCH   9  13
TORSDOF 1
ENDMDL
MODEL 2
REMARK VINA RESULT: -5.773518034      2.223      3.365
REMARK  1 active torsions:
REMARK  status: ('A' for Active; 'I' for Inactive)
REMARK    1  A    between atoms: C8_9  and  N1_10 
ROOT
HETATM    1  C1  UNL     1      22.816  -3.676   9.714  1.00  0.00     0.051 C 
HETATM    2  C2  UNL     1      22.758  -2.355  10.381  1.00  0.00     0.120 C 
HETATM    3  O1  UNL     1      22.331  -2.423  11.699  1.00  0.00    -0.342 OA
HETATM    4  C3  UNL     1      21.331  -1.474  11.868  1.00  0.00     0.286 C 
HETATM    5  C4  UNL     1      21.936  -0.319  12.583  1.00  0.00     0.029 C 
HETATM    6  C5  UNL     1      22.660   0.632  12.004  1.00  0.00    -0.025 C 
HETATM    7  C6  UNL     1      23.065   0.842  10.610  1.00  0.00     0.037 C 
HETATM    8  C7  UNL     1      23.127  -0.380   9.772  1.00  0.00     0.060 C 
HETATM    9  C8  UNL     1      24.001  -1.501  10.285  1.00  0.00     0.227 C 
HETATM   10  C9  UNL     1      21.969  -1.266   9.744  1.00  0.00     0.099 C 
HETATM   11  C10 UNL     1      21.443  -1.512   8.355  1.00  0.00     0.050 C 
HETATM   12  O2  UNL     1      20.948  -1.049  10.617  1.00  0.00    -0.344 OA
ENDROOT
BRANCH   9  13
HETATM   13  N1  UNL     1      24.906  -2.073   9.306  1.00  0.00    -0.072 N 
ATOM     14  H13 UNL     1      24.410  -2.562   8.561  1.00  0.00     0.274 HD
ATOM     15  H12 UNL     1      25.359  -1.360   8.735  1.00  0.00     0.274 HD
ATOM     16  H11 UNL     1      25.582  -2.674   9.780  1.00  0.00     0.274 HD
ENDBRANCH   9  13
TORSDOF 1
ENDMDL
MODEL 3
REMARK VINA RESULT: -5.746403429      2.033      3.345
REMARK  1 active torsions:
REMARK  status: ('A' for Active; 'I' for Inactive)
REMARK    1  A    between atoms: C8_9  and  N1_10 
ROOT
HETATM    1  C1  UNL     1      21.640  -1.716   8.877  1.00  0.00     0.051 C 
HETATM    2  C2  UNL     1      22.046  -1.305  10.241  1.00  0.00     0.120 C 
HETATM    3  O1  UNL     1      21.215  -1.802  11.235  1.00  0.00    -0.342 OA
HETATM    4  C3  UNL     1      20.867  -0.742  12.063  1.00  0.00     0.286 C 
HETATM    5  C4  UNL     1      21.688  -0.860  13.298  1.00  0.00     0.029 C 
HETATM    6  C5  UNL     1      22.948  -0.459  13.409  1.00  0.00    -0.025 C 
HETATM    7  C6  UNL     1      23.862   0.173  12.451  1.00  0.00     0.037 C 
HETATM    8  C7  UNL     1      23.571  -0.092  11.021  1.00  0.00     0.060 C 
HETATM    9  C8  UNL     1      23.492  -1.544  10.611  1.00  0.00     0.227 C 
HETATM   10  C9  UNL     1      22.219   0.145  10.529  1.00  0.00     0.099 C 
HETATM   11  C10 UNL     1      22.169   1.094   9.362  1.00  0.00     0.050 C 
HETATM   12  O2  UNL     1      21.229   0.420  11.422  1.00  0.00    -0.344 OA
ENDROOT
BRANCH   9  13
HETATM   13  N1  UNL     1      24.244  -1.890   9.420  1.00  0.00    -0.072 N 
ATOM     14  H13 UNL     1      24.739  -1.088   9.029  1.00  0.00     0.274 HD
ATOM     15  H12 UNL     1      25.055  -2.471   9.631  1.00  0.00     0.274 HD
ATOM     16  H11 UNL     1      23.621  -2.328   8.740  1.00  0.00     0.274 HD
ENDBRANCH   9  13
TORSDOF 1
ENDMDL
MODEL 4
REMARK VINA RESULT: -5.693722647      1.812      2.721
REMARK  1 active torsions:
REMARK  status: ('A' for Active; 'I' for Inactive)
REMARK    1  A    between atoms: C8_9  and  N1_10 
ROOT
HETATM    1  C1  UNL     1      24.310  -1.778  13.556  1.00  0.00     0.051 C 
HETATM    2  C2  UNL     1      23.699  -1.079  12.402  1.00  0.00     0.120 C 
HETATM    3  O1  UNL     1      22.316  -1.176  12.370  1.00  0.00    -0.342 OA
HETATM    4  C3  UNL     1      21.950  -1.573  11.091  1.00  0.00     0.286 C 
HETATM    5  C4  UNL     1      21.444  -0.366  10.383  1.00  0.00     0.029 C 
HETATM    6  C5  UNL     1      22.215   0.554   9.815  1.00  0.00    -0.025 C 
HETATM    7  C6  UNL     1      23.672   0.678   9.704  1.00  0.00     0.037 C 
HETATM    8  C7  UNL     1      24.454  -0.011  10.760  1.00  0.00     0.060 C 
HETATM    9  C8  UNL     1      24.122   0.356  12.187  1.00  0.00     0.227 C 
HETATM   10  C9  UNL     1      24.172  -1.416  11.031  1.00  0.00     0.099 C 
HETATM   11  C10 UNL     1      25.385  -2.299  10.913  1.00  0.00     0.050 C 
HETATM   12  O2  UNL     1      23.089  -1.998  10.447  1.00  0.00    -0.344 OA
ENDROOT
BRANCH   9  13
HETATM   13  N1  UNL     1      25.265   0.654  13.029  1.00  0.00    -0.072 N 
ATOM     14  H13 UNL     1      26.149   0.431  12.572  1.00  0.00     0.274 HD
ATOM     15  H12 UNL     1      25.409   1.658  13.141  1.00  0.00     0.274 HD
ATOM     16  H11 UNL     1      25.161   0.176  13.924  1.00  0.00     0.274 HD
ENDBRANCH   9  13
TORSDOF 1
ENDMDL
MODEL 5
REMARK VINA RESULT: -5.653898222      1.868      2.480
REMARK  1 active torsions:
REMARK  status: ('A' for Active; 'I' for Inactive)
REMARK    1  A    between atoms: C8_9  and  N1_10 
ROOT
HETATM    1  C1  UNL     1      21.297  -3.294  12.305  1.00  0.00     0.051 C 
HETATM    2  C2  UNL     1      21.533  -1.992  11.638  1.00  0.00     0.120 C 
HETATM    3  O1  UNL     1      21.388  -2.047  10.259  1.00  0.00    -0.342 OA
HETATM    4  C3  UNL     1      22.505  -1.446   9.693  1.00  0.00     0.286 C 
HETATM    5  C4  UNL     1      22.094  -0.088   9.244  1.00  0.00     0.029 C 
HETATM    6  C5  UNL     1      21.995   0.972  10.037  1.00  0.00    -0.025 C 
HETATM    7  C6  UNL     1      22.235   1.146  11.473  1.00  0.00     0.037 C 
HETATM    8  C7  UNL     1      22.091  -0.079  12.298  1.00  0.00     0.060 C 
HETATM    9  C8  UNL     1      20.773  -0.809  12.190  1.00  0.00     0.227 C 
HETATM   10  C9  UNL     1      22.814  -1.280  11.893  1.00  0.00     0.099 C 
HETATM   11  C10 UNL     1      23.708  -1.827  12.974  1.00  0.00     0.050 C 
HETATM   12  O2  UNL     1      23.444  -1.299  10.687  1.00  0.00    -0.344 OA
ENDROOT
BRANCH   9  13
HETATM   13  N1  UNL     1      20.165  -1.173  13.456  1.00  0.00    -0.072 N 
ATOM     14  H13 UNL     1      19.154  -1.038  13.452  1.00  0.00     0.274 HD
ATOM     15  H12 UNL     1      20.176  -2.181  13.613  1.00  0.00     0.274 HD
ATOM     16  H11 UNL     1      20.620  -0.660  14.211  1.00  0.00     0.274 HD
ENDBRANCH   9  13
TORSDOF 1
ENDMDL
