MODEL 1
REMARK VINA RESULT: -6.759864281      0.000      0.000
REMARK  10 active torsions:
REMARK  status: ('A' for Active; 'I' for Inactive)
REMARK    1  A    between atoms: N5_15  and  C6_16 
REMARK    2  A    between atoms: C7_18  and  C8_19 
REMARK    3  A    between atoms: C8_19  and  O2_20 
REMARK    4  A    between atoms: C9_22  and  C10_23 
REMARK    5  A    between atoms: C10_23  and  C11_24 
REMARK    6  A    between atoms: C10_23  and  N7_29 
REMARK    7  A    between atoms: C11_24  and  N6_25 
REMARK    8  A    between atoms: N7_29  and  C12_31 
REMARK    9  A    between atoms: C12_31  and  C13_32 
REMARK   10  A    between atoms: C13_32  and  N8_33 
ROOT
HETATM    1  C6  UNL     1      -5.409  -3.808  -8.256  1.00  0.00     0.380 C 
HETATM    2  O1  UNL     1      -5.079  -5.154  -8.238  1.00  0.00    -0.333 OA
HETATM    3  C7  UNL     1      -6.318  -5.776  -8.103  1.00  0.00     0.181 C 
HETATM    4  C9  UNL     1      -7.255  -4.898  -8.861  1.00  0.00     0.181 C 
HETATM    5  O3  UNL     1      -6.480  -3.780  -9.162  1.00  0.00    -0.333 OA
ENDROOT
BRANCH   1   6
HETATM    6  N5  UNL     1      -4.316  -2.982  -8.701  1.00  0.00    -0.277 N 
HETATM    7  C3  UNL     1      -3.124  -2.890  -8.086  1.00  0.00     0.144 A 
HETATM    8  N3  UNL     1      -2.611  -3.461  -6.986  1.00  0.00    -0.336 N 
HETATM    9  C4  UNL     1      -2.327  -2.005  -8.796  1.00  0.00     0.122 A 
HETATM   10  C2  UNL     1      -1.372  -3.232  -6.527  1.00  0.00     0.183 A 
ATOM     11  H3  UNL     1      -3.200  -4.111  -6.466  1.00  0.00     0.168 HD
HETATM   12  N2  UNL     1      -0.606  -2.379  -7.213  1.00  0.00    -0.337 N 
HETATM   13  C1  UNL     1      -1.056  -1.767  -8.328  1.00  0.00     0.131 A 
ATOM     14  H2  UNL     1       0.340  -2.185  -6.886  1.00  0.00     0.168 HD
HETATM   15  N1  UNL     1      -0.276  -0.943  -8.964  1.00  0.00    -0.383 N 
ATOM     16  H12 UNL     1       0.667  -0.767  -8.618  1.00  0.00     0.157 HD
ATOM     17  H11 UNL     1      -0.615  -0.481  -9.807  1.00  0.00     0.157 HD
HETATM   18  N4  UNL     1      -3.065  -1.578  -9.839  1.00  0.00    -0.346 N 
HETATM   19  C5  UNL     1      -4.269  -2.175  -9.772  1.00  0.00     0.190 A 
ATOM     20  H4  UNL     1      -2.763  -0.916 -10.554  1.00  0.00     0.167 HD
ENDBRANCH   1   6
BRANCH   3  21
HETATM   21  C8  UNL     1      -6.203  -7.168  -8.706  1.00  0.00     0.199 C 
BRANCH  21  22
HETATM   22  O2  UNL     1      -7.034  -7.310  -9.810  1.00  0.00    -0.398 OA
ATOM     23  H2  UNL     1      -7.877  -6.898  -9.663  1.00  0.00     0.209 HD
ENDBRANCH  21  22
ENDBRANCH   3  21
BRANCH   4  24
HETATM   24  C10 UNL     1      -8.470  -4.467  -8.035  1.00  0.00     0.133 C 
BRANCH  24  25
HETATM   25  C11 UNL     1      -8.282  -4.833  -6.591  1.00  0.00     0.256 C 
BRANCH  25  26
HETATM   26  N6  UNL     1      -8.315  -3.598  -5.824  1.00  0.00    -0.077 N 
ATOM     27  H63 UNL     1      -7.533  -3.511  -5.176  1.00  0.00     0.274 HD
ATOM     28  H62 UNL     1      -8.112  -2.773  -6.388  1.00  0.00     0.274 HD
ATOM     29  H61 UNL     1      -9.223  -3.552  -5.361  1.00  0.00     0.274 HD
ENDBRANCH  25  26
ENDBRANCH  24  25
BRANCH  24  30
HETATM   30  N7  UNL     1      -9.620  -5.148  -8.542  1.00  0.00    -0.411 N 
ATOM     31  H7  UNL     1      -9.967  -5.001  -9.490  1.00  0.00     0.153 HD
BRANCH  30  32
HETATM   32  C12 UNL     1     -10.252  -6.047  -7.633  1.00  0.00     0.141 C 
BRANCH  32  33
HETATM   33  C13 UNL     1     -10.827  -7.218  -8.415  1.00  0.00     0.248 C 
BRANCH  33  34
HETATM   34  N8  UNL     1      -9.944  -7.645  -9.461  1.00  0.00    -0.078 N 
ATOM     35  H83 UNL     1      -9.948  -8.660  -9.560  1.00  0.00     0.274 HD
ATOM     36  H82 UNL     1     -10.309  -7.394 -10.380  1.00  0.00     0.274 HD
ATOM     37  H81 UNL     1      -8.998  -7.288  -9.328  1.00  0.00     0.274 HD
ENDBRANCH  33  34
ENDBRANCH  32  33
ENDBRANCH  30  32
ENDBRANCH  24  30
ENDBRANCH   4  24
TORSDOF 10
ENDMDL
MODEL 2
REMARK VINA RESULT: -6.749792241      1.681      3.011
REMARK  10 active torsions:
REMARK  status: ('A' for Active; 'I' for Inactive)
REMARK    1  A    between atoms: N5_15  and  C6_16 
REMARK    2  A    between atoms: C7_18  and  C8_19 
REMARK    3  A    between atoms: C8_19  and  O2_20 
REMARK    4  A    between atoms: C9_22  and  C10_23 
REMARK    5  A    between atoms: C10_23  and  C11_24 
REMARK    6  A    between atoms: C10_23  and  N7_29 
REMARK    7  A    between atoms: C11_24  and  N6_25 
REMARK    8  A    between atoms: N7_29  and  C12_31 
REMARK    9  A    between atoms: C12_31  and  C13_32 
REMARK   10  A    between atoms: C13_32  and  N8_33 
ROOT
HETATM    1  C6  UNL     1      -5.028  -4.590  -6.494  1.00  0.00     0.380 C 
HETATM    2  O1  UNL     1      -5.171  -5.560  -7.474  1.00  0.00    -0.333 OA
HETATM    3  C7  UNL     1      -6.547  -5.773  -7.503  1.00  0.00     0.181 C 
HETATM    4  C9  UNL     1      -7.133  -4.434  -7.208  1.00  0.00     0.181 C 
HETATM    5  O3  UNL     1      -6.026  -3.669  -6.845  1.00  0.00    -0.333 OA
ENDROOT
BRANCH   1   6
HETATM    6  N5  UNL     1      -3.720  -3.987  -6.507  1.00  0.00    -0.277 N 
HETATM    7  C3  UNL     1      -3.217  -3.270  -7.527  1.00  0.00     0.144 A 
HETATM    8  N3  UNL     1      -3.698  -2.917  -8.728  1.00  0.00    -0.336 N 
HETATM    9  C4  UNL     1      -1.940  -2.850  -7.185  1.00  0.00     0.122 A 
HETATM   10  C2  UNL     1      -3.023  -2.182  -9.623  1.00  0.00     0.183 A 
ATOM     11  H3  UNL     1      -4.638  -3.227  -8.976  1.00  0.00     0.168 HD
HETATM   12  N2  UNL     1      -1.793  -1.779  -9.291  1.00  0.00    -0.337 N 
HETATM   13  C1  UNL     1      -1.245  -2.096  -8.100  1.00  0.00     0.131 A 
ATOM     14  H2  UNL     1      -1.256  -1.219  -9.954  1.00  0.00     0.168 HD
HETATM   15  N1  UNL     1      -0.043  -1.683  -7.820  1.00  0.00    -0.383 N 
ATOM     16  H12 UNL     1       0.473  -1.124  -8.499  1.00  0.00     0.157 HD
ATOM     17  H11 UNL     1       0.372  -1.923  -6.920  1.00  0.00     0.157 HD
HETATM   18  N4  UNL     1      -1.698  -3.329  -5.950  1.00  0.00    -0.346 N 
HETATM   19  C5  UNL     1      -2.783  -4.018  -5.547  1.00  0.00     0.190 A 
ATOM     20  H4  UNL     1      -0.841  -3.195  -5.413  1.00  0.00     0.167 HD
ENDBRANCH   1   6
BRANCH   3  21
HETATM   21  C8  UNL     1      -6.906  -6.276  -8.893  1.00  0.00     0.199 C 
BRANCH  21  22
HETATM   22  O2  UNL     1      -6.070  -7.312  -9.287  1.00  0.00    -0.398 OA
ATOM     23  H2  UNL     1      -5.760  -7.186 -10.176  1.00  0.00     0.209 HD
ENDBRANCH  21  22
ENDBRANCH   3  21
BRANCH   4  24
HETATM   24  C10 UNL     1      -8.132  -4.462  -6.049  1.00  0.00     0.133 C 
BRANCH  24  25
HETATM   25  C11 UNL     1      -8.914  -5.744  -6.057  1.00  0.00     0.256 C 
BRANCH  25  26
HETATM   26  N6  UNL     1     -10.010  -5.577  -6.998  1.00  0.00    -0.077 N 
ATOM     27  H63 UNL     1     -10.295  -4.604  -7.109  1.00  0.00     0.274 HD
ATOM     28  H62 UNL     1      -9.735  -5.746  -7.965  1.00  0.00     0.274 HD
ATOM     29  H61 UNL     1     -10.771  -6.181  -6.688  1.00  0.00     0.274 HD
ENDBRANCH  25  26
ENDBRANCH  24  25
BRANCH  24  30
HETATM   30  N7  UNL     1      -9.035  -3.365  -6.210  1.00  0.00    -0.411 N 
ATOM     31  H7  UNL     1      -9.397  -3.087  -7.123  1.00  0.00     0.153 HD
BRANCH  30  32
HETATM   32  C12 UNL     1      -9.396  -2.686  -5.010  1.00  0.00     0.141 C 
BRANCH  32  33
HETATM   33  C13 UNL     1     -10.887  -2.869  -4.768  1.00  0.00     0.248 C 
BRANCH  33  34
HETATM   34  N8  UNL     1     -11.146  -3.879  -3.782  1.00  0.00    -0.078 N 
ATOM     35  H83 UNL     1     -11.157  -4.810  -4.199  1.00  0.00     0.274 HD
ATOM     36  H82 UNL     1     -10.352  -3.995  -3.152  1.00  0.00     0.274 HD
ATOM     37  H81 UNL     1     -12.006  -3.693  -3.266  1.00  0.00     0.274 HD
ENDBRANCH  33  34
ENDBRANCH  32  33
ENDBRANCH  30  32
ENDBRANCH  24  30
ENDBRANCH   4  24
TORSDOF 10
ENDMDL
MODEL 3
REMARK VINA RESULT: -6.733100611      1.790      2.944
REMARK  10 active torsions:
REMARK  status: ('A' for Active; 'I' for Inactive)
REMARK    1  A    between atoms: N5_15  and  C6_16 
REMARK    2  A    between atoms: C7_18  and  C8_19 
REMARK    3  A    between atoms: C8_19  and  O2_20 
REMARK    4  A    between atoms: C9_22  and  C10_23 
REMARK    5  A    between atoms: C10_23  and  C11_24 
REMARK    6  A    between atoms: C10_23  and  N7_29 
REMARK    7  A    between atoms: C11_24  and  N6_25 
REMARK    8  A    between atoms: N7_29  and  C12_31 
REMARK    9  A    between atoms: C12_31  and  C13_32 
REMARK   10  A    between atoms: C13_32  and  N8_33 
ROOT
HETATM    1  C6  UNL     1      -5.536  -3.400  -8.661  1.00  0.00     0.380 C 
HETATM    2  O1  UNL     1      -6.517  -2.537  -9.124  1.00  0.00    -0.333 OA
HETATM    3  C7  UNL     1      -7.687  -3.093  -8.612  1.00  0.00     0.181 C 
HETATM    4  C9  UNL     1      -7.278  -3.664  -7.297  1.00  0.00     0.181 C 
HETATM    5  O3  UNL     1      -5.890  -3.548  -7.311  1.00  0.00    -0.333 OA
ENDROOT
BRANCH   1   6
HETATM    6  N5  UNL     1      -4.212  -2.851  -8.805  1.00  0.00    -0.277 N 
HETATM    7  C3  UNL     1      -3.223  -2.987  -7.905  1.00  0.00     0.144 A 
HETATM    8  N3  UNL     1      -3.142  -3.599  -6.715  1.00  0.00    -0.336 N 
HETATM    9  C4  UNL     1      -2.099  -2.330  -8.380  1.00  0.00     0.122 A 
HETATM   10  C2  UNL     1      -2.040  -3.619  -5.952  1.00  0.00     0.183 A 
ATOM     11  H3  UNL     1      -3.971  -4.081  -6.368  1.00  0.00     0.168 HD
HETATM   12  N2  UNL     1      -0.957  -2.985  -6.412  1.00  0.00    -0.337 N 
HETATM   13  C1  UNL     1      -0.966  -2.347  -7.601  1.00  0.00     0.131 A 
ATOM     14  H2  UNL     1      -0.105  -2.983  -5.852  1.00  0.00     0.168 HD
HETATM   15  N1  UNL     1       0.111  -1.742  -8.010  1.00  0.00    -0.383 N 
ATOM     16  H12 UNL     1       0.951  -1.755  -7.432  1.00  0.00     0.157 HD
ATOM     17  H11 UNL     1       0.104  -1.260  -8.908  1.00  0.00     0.157 HD
HETATM   18  N4  UNL     1      -2.438  -1.806  -9.574  1.00  0.00    -0.346 N 
HETATM   19  C5  UNL     1      -3.721  -2.127  -9.823  1.00  0.00     0.190 A 
ATOM     20  H4  UNL     1      -1.828  -1.260 -10.183  1.00  0.00     0.167 HD
ENDBRANCH   1   6
BRANCH   3  21
HETATM   21  C8  UNL     1      -8.706  -1.972  -8.471  1.00  0.00     0.199 C 
BRANCH  21  22
HETATM   22  O2  UNL     1      -8.876  -1.608  -7.142  1.00  0.00    -0.398 OA
ATOM     23  H2  UNL     1      -9.513  -2.165  -6.710  1.00  0.00     0.209 HD
ENDBRANCH  21  22
ENDBRANCH   3  21
BRANCH   4  24
HETATM   24  C10 UNL     1      -7.662  -5.138  -7.141  1.00  0.00     0.133 C 
BRANCH  24  25
HETATM   25  C11 UNL     1      -8.396  -5.623  -8.357  1.00  0.00     0.256 C 
BRANCH  25  26
HETATM   26  N6  UNL     1      -7.518  -6.552  -9.051  1.00  0.00    -0.077 N 
ATOM     27  H63 UNL     1      -7.238  -6.221  -9.974  1.00  0.00     0.274 HD
ATOM     28  H62 UNL     1      -6.586  -6.602  -8.640  1.00  0.00     0.274 HD
ATOM     29  H61 UNL     1      -7.991  -7.455  -9.078  1.00  0.00     0.274 HD
ENDBRANCH  25  26
ENDBRANCH  24  25
BRANCH  24  30
HETATM   30  N7  UNL     1      -8.518  -5.259  -6.002  1.00  0.00    -0.411 N 
ATOM     31  H7  UNL     1      -8.159  -5.466  -5.070  1.00  0.00     0.153 HD
BRANCH  30  32
HETATM   32  C12 UNL     1      -9.908  -5.071  -6.256  1.00  0.00     0.141 C 
BRANCH  32  33
HETATM   33  C13 UNL     1     -10.521  -4.293  -5.101  1.00  0.00     0.248 C 
BRANCH  33  34
HETATM   34  N8  UNL     1      -9.711  -3.170  -4.726  1.00  0.00    -0.078 N 
ATOM     35  H83 UNL     1     -10.124  -2.659  -3.946  1.00  0.00     0.274 HD
ATOM     36  H82 UNL     1      -8.845  -3.471  -4.280  1.00  0.00     0.274 HD
ATOM     37  H81 UNL     1      -9.528  -2.554  -5.518  1.00  0.00     0.274 HD
ENDBRANCH  33  34
ENDBRANCH  32  33
ENDBRANCH  30  32
ENDBRANCH  24  30
ENDBRANCH   4  24
TORSDOF 10
ENDMDL
MODEL 4
REMARK VINA RESULT: -6.728574410      2.974      6.215
REMARK  10 active torsions:
REMARK  status: ('A' for Active; 'I' for Inactive)
REMARK    1  A    between atoms: N5_15  and  C6_16 
REMARK    2  A    between atoms: C7_18  and  C8_19 
REMARK    3  A    between atoms: C8_19  and  O2_20 
REMARK    4  A    between atoms: C9_22  and  C10_23 
REMARK    5  A    between atoms: C10_23  and  C11_24 
REMARK    6  A    between atoms: C10_23  and  N7_29 
REMARK    7  A    between atoms: C11_24  and  N6_25 
REMARK    8  A    between atoms: N7_29  and  C12_31 
REMARK    9  A    between atoms: C12_31  and  C13_32 
REMARK   10  A    between atoms: C13_32  and  N8_33 
ROOT
HETATM    1  C6  UNL     1      -4.230  -3.317  -9.990  1.00  0.00     0.380 C 
HETATM    2  O1  UNL     1      -5.253  -4.201  -9.683  1.00  0.00    -0.333 OA
HETATM    3  C7  UNL     1      -4.962  -4.571  -8.372  1.00  0.00     0.181 C 
HETATM    4  C9  UNL     1      -4.371  -3.344  -7.766  1.00  0.00     0.181 C 
HETATM    5  O3  UNL     1      -4.207  -2.491  -8.856  1.00  0.00    -0.333 OA
ENDROOT
BRANCH   1   6
HETATM    6  N5  UNL     1      -4.497  -2.565 -11.189  1.00  0.00    -0.277 N 
HETATM    7  C3  UNL     1      -5.567  -1.774 -11.375  1.00  0.00     0.144 A 
HETATM    8  N3  UNL     1      -6.620  -1.456 -10.607  1.00  0.00    -0.336 N 
HETATM    9  C4  UNL     1      -5.489  -1.216 -12.642  1.00  0.00     0.122 A 
HETATM   10  C2  UNL     1      -7.606  -0.629 -10.986  1.00  0.00     0.183 A 
ATOM     11  H3  UNL     1      -6.674  -1.869  -9.676  1.00  0.00     0.168 HD
HETATM   12  N2  UNL     1      -7.528  -0.092 -12.207  1.00  0.00    -0.337 N 
HETATM   13  C1  UNL     1      -6.498  -0.367 -13.034  1.00  0.00     0.131 A 
ATOM     14  H2  UNL     1      -8.264   0.540 -12.521  1.00  0.00     0.168 HD
HETATM   15  N1  UNL     1      -6.464   0.177 -14.215  1.00  0.00    -0.383 N 
ATOM     16  H12 UNL     1      -7.212   0.806 -14.506  1.00  0.00     0.157 HD
ATOM     17  H11 UNL     1      -5.686  -0.030 -14.840  1.00  0.00     0.157 HD
HETATM   18  N4  UNL     1      -4.358  -1.688 -13.200  1.00  0.00    -0.346 N 
HETATM   19  C5  UNL     1      -3.763  -2.506 -12.311  1.00  0.00     0.190 A 
ATOM     20  H4  UNL     1      -4.012  -1.465 -14.133  1.00  0.00     0.167 HD
ENDBRANCH   1   6
BRANCH   3  21
HETATM   21  C8  UNL     1      -6.268  -4.980  -7.709  1.00  0.00     0.199 C 
BRANCH  21  22
HETATM   22  O2  UNL     1      -6.057  -5.941  -6.728  1.00  0.00    -0.398 OA
ATOM     23  H2  UNL     1      -5.369  -5.676  -6.128  1.00  0.00     0.209 HD
ENDBRANCH  21  22
ENDBRANCH   3  21
BRANCH   4  24
HETATM   24  C10 UNL     1      -3.011  -3.598  -7.111  1.00  0.00     0.133 C 
BRANCH  24  25
HETATM   25  C11 UNL     1      -3.186  -4.051  -5.690  1.00  0.00     0.256 C 
BRANCH  25  26
HETATM   26  N6  UNL     1      -2.500  -5.325  -5.554  1.00  0.00    -0.077 N 
ATOM     27  H63 UNL     1      -3.107  -6.069  -5.210  1.00  0.00     0.274 HD
ATOM     28  H62 UNL     1      -2.266  -5.750  -6.452  1.00  0.00     0.274 HD
ATOM     29  H61 UNL     1      -1.684  -5.170  -4.961  1.00  0.00     0.274 HD
ENDBRANCH  25  26
ENDBRANCH  24  25
BRANCH  24  30
HETATM   30  N7  UNL     1      -2.273  -2.373  -7.121  1.00  0.00    -0.411 N 
ATOM     31  H7  UNL     1      -2.716  -1.469  -6.953  1.00  0.00     0.153 HD
BRANCH  30  32
HETATM   32  C12 UNL     1      -0.877  -2.499  -7.383  1.00  0.00     0.141 C 
BRANCH  32  33
HETATM   33  C13 UNL     1      -0.527  -1.666  -8.607  1.00  0.00     0.248 C 
BRANCH  33  34
HETATM   34  N8  UNL     1      -1.641  -0.881  -9.054  1.00  0.00    -0.078 N 
ATOM     35  H83 UNL     1      -2.059  -1.276  -9.896  1.00  0.00     0.274 HD
ATOM     36  H82 UNL     1      -2.437  -0.973  -8.423  1.00  0.00     0.274 HD
ATOM     37  H81 UNL     1      -1.385   0.097  -9.190  1.00  0.00     0.274 HD
ENDBRANCH  33  34
ENDBRANCH  32  33
ENDBRANCH  30  32
ENDBRANCH  24  30
ENDBRANCH   4  24
TORSDOF 10
ENDMDL
MODEL 5
REMARK VINA RESULT: -6.721250785      1.601      2.475
REMARK  10 active torsions:
REMARK  status: ('A' for Active; 'I' for Inactive)
REMARK    1  A    between atoms: N5_15  and  C6_16 
REMARK    2  A    between atoms: C7_18  and  C8_19 
REMARK    3  A    between atoms: C8_19  and  O2_20 
REMARK    4  A    between atoms: C9_22  and  C10_23 
REMARK    5  A    between atoms: C10_23  and  C11_24 
REMARK    6  A    between atoms: C10_23  and  N7_29 
REMARK    7  A    between atoms: C11_24  and  N6_25 
REMARK    8  A    between atoms: N7_29  and  C12_31 
REMARK    9  A    between atoms: C12_31  and  C13_32 
REMARK   10  A    between atoms: C13_32  and  N8_33 
ROOT
HETATM    1  C6  UNL     1      -4.942  -4.469  -6.608  1.00  0.00     0.380 C 
HETATM    2  O1  UNL     1      -5.139  -5.547  -7.457  1.00  0.00    -0.333 OA
HETATM    3  C7  UNL     1      -6.527  -5.622  -7.549  1.00  0.00     0.181 C 
HETATM    4  C9  UNL     1      -6.977  -4.203  -7.476  1.00  0.00     0.181 C 
HETATM    5  O3  UNL     1      -5.814  -3.510  -7.146  1.00  0.00    -0.333 OA
ENDROOT
BRANCH   1   6
HETATM    6  N5  UNL     1      -3.578  -4.009  -6.614  1.00  0.00    -0.277 N 
HETATM    7  C3  UNL     1      -3.052  -3.181  -7.534  1.00  0.00     0.144 A 
HETATM    8  N3  UNL     1      -3.554  -2.579  -8.622  1.00  0.00    -0.336 N 
HETATM    9  C4  UNL     1      -1.720  -2.960  -7.219  1.00  0.00     0.122 A 
HETATM   10  C2  UNL     1      -2.849  -1.773  -9.429  1.00  0.00     0.183 A 
ATOM     11  H3  UNL     1      -4.534  -2.745  -8.850  1.00  0.00     0.168 HD
HETATM   12  N2  UNL     1      -1.565  -1.561  -9.123  1.00  0.00    -0.337 N 
HETATM   13  C1  UNL     1      -0.994  -2.134  -8.044  1.00  0.00     0.131 A 
ATOM     14  H2  UNL     1      -1.005  -0.952  -9.720  1.00  0.00     0.168 HD
HETATM   15  N1  UNL     1       0.260  -1.900  -7.785  1.00  0.00    -0.383 N 
ATOM     16  H12 UNL     1       0.799  -1.287  -8.397  1.00  0.00     0.157 HD
ATOM     17  H11 UNL     1       0.693  -2.332  -6.969  1.00  0.00     0.157 HD
HETATM   18  N4  UNL     1      -1.468  -3.667  -6.101  1.00  0.00    -0.346 N 
HETATM   19  C5  UNL     1      -2.600  -4.301  -5.742  1.00  0.00     0.190 A 
ATOM     20  H4  UNL     1      -0.574  -3.716  -5.612  1.00  0.00     0.167 HD
ENDBRANCH   1   6
BRANCH   3  21
HETATM   21  C8  UNL     1      -6.866  -6.276  -8.880  1.00  0.00     0.199 C 
BRANCH  21  22
HETATM   22  O2  UNL     1      -6.003  -7.328  -9.160  1.00  0.00    -0.398 OA
ATOM     23  H2  UNL     1      -6.380  -7.923  -9.797  1.00  0.00     0.209 HD
ENDBRANCH  21  22
ENDBRANCH   3  21
BRANCH   4  24
HETATM   24  C10 UNL     1      -8.033  -3.966  -6.394  1.00  0.00     0.133 C 
BRANCH  24  25
HETATM   25  C11 UNL     1      -8.682  -5.261  -5.998  1.00  0.00     0.256 C 
BRANCH  25  26
HETATM   26  N6  UNL     1     -10.040  -4.955  -5.578  1.00  0.00    -0.077 N 
ATOM     27  H63 UNL     1     -10.731  -5.129  -6.307  1.00  0.00     0.274 HD
ATOM     28  H62 UNL     1     -10.403  -5.616  -4.891  1.00  0.00     0.274 HD
ATOM     29  H61 UNL     1     -10.045  -3.991  -5.245  1.00  0.00     0.274 HD
ENDBRANCH  25  26
ENDBRANCH  24  25
BRANCH  24  30
HETATM   30  N7  UNL     1      -9.030  -3.089  -6.925  1.00  0.00    -0.411 N 
ATOM     31  H7  UNL     1      -9.742  -2.655  -6.337  1.00  0.00     0.153 HD
BRANCH  30  32
HETATM   32  C12 UNL     1      -8.963  -2.864  -8.331  1.00  0.00     0.141 C 
BRANCH  32  33
HETATM   33  C13 UNL     1     -10.276  -3.299  -8.964  1.00  0.00     0.248 C 
BRANCH  33  34
HETATM   34  N8  UNL     1     -10.289  -4.704  -9.252  1.00  0.00    -0.078 N 
ATOM     35  H83 UNL     1     -10.705  -4.892 -10.164  1.00  0.00     0.274 HD
ATOM     36  H82 UNL     1      -9.348  -5.055  -9.431  1.00  0.00     0.274 HD
ATOM     37  H81 UNL     1     -10.751  -5.237  -8.516  1.00  0.00     0.274 HD
ENDBRANCH  33  34
ENDBRANCH  32  33
ENDBRANCH  30  32
ENDBRANCH  24  30
ENDBRANCH   4  24
TORSDOF 10
ENDMDL
