MODEL 1
REMARK VINA RESULT: -7.781999690      0.000      0.000
REMARK  13 active torsions:
REMARK  status: ('A' for Active; 'I' for Inactive)
REMARK    1  A    between atoms: C3_6  and  N2_7 
REMARK    2  A    between atoms: C4_10  and  C5_11 
REMARK    3  A    between atoms: C5_11  and  C6_12 
REMARK    4  A    between atoms: C6_12  and  O2_13 
REMARK    5  A    between atoms: C6_12  and  N3_15 
REMARK    6  A    between atoms: N3_15  and  C7_17 
REMARK    7  A    between atoms: C7_17  and  O3_18 
REMARK    8  A    between atoms: C7_17  and  C8_20 
REMARK    9  A    between atoms: C8_20  and  O4_21 
REMARK   10  A    between atoms: C8_20  and  C9_23 
REMARK   11  A    between atoms: C9_23  and  O5_24 
REMARK   12  A    between atoms: C9_23  and  N4_26 
REMARK   13  A    between atoms: N4_26  and  N5_28 
ROOT
HETATM    1  C7  UNL     1      -4.984  -4.793  -7.184  1.00  0.00     0.248 C 
ENDROOT
BRANCH   1   2
HETATM    2  N3  UNL     1      -5.090  -4.203  -8.451  1.00  0.00    -0.369 N 
ATOM      3  H3  UNL     1      -4.580  -4.627  -9.225  1.00  0.00     0.158 HD
BRANCH   2   4
HETATM    4  C6  UNL     1      -5.867  -3.053  -8.711  1.00  0.00     0.219 C 
BRANCH   4   5
HETATM    5  C5  UNL     1      -6.468  -3.243 -10.112  1.00  0.00     0.098 C 
BRANCH   5   6
HETATM    6  C4  UNL     1      -5.883  -2.353 -11.121  1.00  0.00     0.023 A 
HETATM    7  C2  UNL     1      -6.607  -1.311 -11.748  1.00  0.00     0.082 A 
HETATM    8  C1  UNL     1      -8.027  -1.017 -11.430  1.00  0.00     0.079 C 
HETATM    9  O1  UNL     1      -5.777  -0.758 -12.570  1.00  0.00    -0.240 OA
HETATM   10  N1  UNL     1      -4.614  -1.312 -12.549  1.00  0.00    -0.245 N 
HETATM   11  C3  UNL     1      -4.618  -2.345 -11.636  1.00  0.00     0.128 A 
ATOM     12  H1  UNL     1      -3.817  -1.032 -13.120  1.00  0.00     0.196 HD
BRANCH  11  13
HETATM   13  N2  UNL     1      -3.589  -3.074 -11.372  1.00  0.00    -0.384 N 
ATOM     14  H22 UNL     1      -2.652  -2.825 -11.056  1.00  0.00     0.157 HD
ATOM     15  H21 UNL     1      -3.570  -4.089 -11.474  1.00  0.00     0.157 HD
ENDBRANCH  11  13
ENDBRANCH   5   6
ENDBRANCH   4   5
BRANCH   4  16
HETATM   16  O2  UNL     1      -6.939  -2.851  -7.818  1.00  0.00    -0.377 OA
ATOM     17  H2  UNL     1      -7.477  -3.633  -7.838  1.00  0.00     0.212 HD
ENDBRANCH   4  16
ENDBRANCH   2   4
ENDBRANCH   1   2
BRANCH   1  18
HETATM   18  O3  UNL     1      -4.488  -6.127  -7.318  1.00  0.00    -0.374 OA
ATOM     19  H3  UNL     1      -5.093  -6.733  -6.907  1.00  0.00     0.212 HD
ENDBRANCH   1  18
BRANCH   1  20
HETATM   20  C8  UNL     1      -4.048  -4.142  -6.224  1.00  0.00     0.216 C 
BRANCH  20  21
HETATM   21  O4  UNL     1      -4.185  -4.408  -4.912  1.00  0.00    -0.387 OA
ATOM     22  H4  UNL     1      -3.741  -3.847  -4.287  1.00  0.00     0.210 HD
ENDBRANCH  20  21
BRANCH  20  23
HETATM   23  C9  UNL     1      -2.589  -4.449  -6.593  1.00  0.00     0.266 C 
BRANCH  23  24
HETATM   24  O5  UNL     1      -2.096  -5.393  -5.656  1.00  0.00    -0.373 OA
ATOM     25  H5  UNL     1      -1.294  -5.759  -6.008  1.00  0.00     0.212 HD
ENDBRANCH  23  24
BRANCH  23  26
HETATM   26  N4  UNL     1      -1.753  -3.284  -6.493  1.00  0.00    -0.297 N 
ATOM     27  H4  UNL     1      -1.323  -3.091  -5.588  1.00  0.00     0.183 HD
BRANCH  26  28
HETATM   28  N5  UNL     1      -1.481  -2.389  -7.544  1.00  0.00    -0.247 N 
HETATM   29  C10 UNL     1      -2.406  -1.771  -8.307  1.00  0.00     0.223 A 
HETATM   30  N6  UNL     1      -1.711  -0.995  -9.151  1.00  0.00    -0.293 N 
HETATM   31  N7  UNL     1      -0.433  -1.115  -8.934  1.00  0.00    -0.293 N 
ATOM     32  H6  UNL     1      -2.126  -0.395  -9.863  1.00  0.00     0.187 HD
HETATM   33  C11 UNL     1      -0.222  -2.002  -7.911  1.00  0.00     0.223 A 
ATOM     34  H7  UNL     1       0.299  -0.624  -9.448  1.00  0.00     0.187 HD
ENDBRANCH  26  28
ENDBRANCH  23  26
ENDBRANCH  20  23
ENDBRANCH   1  20
TORSDOF 13
ENDMDL
MODEL 2
REMARK VINA RESULT: -7.625986698      1.754      2.154
REMARK  13 active torsions:
REMARK  status: ('A' for Active; 'I' for Inactive)
REMARK    1  A    between atoms: C3_6  and  N2_7 
REMARK    2  A    between atoms: C4_10  and  C5_11 
REMARK    3  A    between atoms: C5_11  and  C6_12 
REMARK    4  A    between atoms: C6_12  and  O2_13 
REMARK    5  A    between atoms: C6_12  and  N3_15 
REMARK    6  A    between atoms: N3_15  and  C7_17 
REMARK    7  A    between atoms: C7_17  and  O3_18 
REMARK    8  A    between atoms: C7_17  and  C8_20 
REMARK    9  A    between atoms: C8_20  and  O4_21 
REMARK   10  A    between atoms: C8_20  and  C9_23 
REMARK   11  A    between atoms: C9_23  and  O5_24 
REMARK   12  A    between atoms: C9_23  and  N4_26 
REMARK   13  A    between atoms: N4_26  and  N5_28 
ROOT
HETATM    1  C7  UNL     1      -4.744  -4.561  -6.458  1.00  0.00     0.248 C 
ENDROOT
BRANCH   1   2
HETATM    2  N3  UNL     1      -5.361  -3.673  -7.348  1.00  0.00    -0.369 N 
ATOM      3  H3  UNL     1      -5.466  -2.699  -7.064  1.00  0.00     0.158 HD
BRANCH   2   4
HETATM    4  C6  UNL     1      -5.846  -4.056  -8.618  1.00  0.00     0.219 C 
BRANCH   4   5
HETATM    5  C5  UNL     1      -6.735  -2.904  -9.109  1.00  0.00     0.098 C 
BRANCH   5   6
HETATM    6  C4  UNL     1      -7.347  -3.158 -10.418  1.00  0.00     0.023 A 
HETATM    7  C2  UNL     1      -7.010  -2.431 -11.585  1.00  0.00     0.082 A 
HETATM    8  C1  UNL     1      -5.994  -1.347 -11.590  1.00  0.00     0.079 C 
HETATM    9  O1  UNL     1      -7.747  -2.924 -12.525  1.00  0.00    -0.240 OA
HETATM   10  N1  UNL     1      -8.512  -3.873 -12.110  1.00  0.00    -0.245 N 
HETATM   11  C3  UNL     1      -8.301  -4.073 -10.763  1.00  0.00     0.128 A 
ATOM     12  H1  UNL     1      -9.172  -4.394 -12.687  1.00  0.00     0.196 HD
BRANCH  11  13
HETATM   13  N2  UNL     1      -8.903  -4.974 -10.066  1.00  0.00    -0.384 N 
ATOM     14  H22 UNL     1      -8.598  -5.895  -9.751  1.00  0.00     0.157 HD
ATOM     15  H21 UNL     1      -9.860  -4.885  -9.725  1.00  0.00     0.157 HD
ENDBRANCH  11  13
ENDBRANCH   5   6
ENDBRANCH   4   5
BRANCH   4  16
HETATM   16  O2  UNL     1      -4.849  -4.262  -9.593  1.00  0.00    -0.377 OA
ATOM     17  H2  UNL     1      -4.745  -5.201  -9.698  1.00  0.00     0.212 HD
ENDBRANCH   4  16
ENDBRANCH   2   4
ENDBRANCH   1   2
BRANCH   1  18
HETATM   18  O3  UNL     1      -4.221  -5.677  -7.182  1.00  0.00    -0.374 OA
ATOM     19  H3  UNL     1      -4.055  -6.395  -6.583  1.00  0.00     0.212 HD
ENDBRANCH   1  18
BRANCH   1  20
HETATM   20  C8  UNL     1      -3.578  -4.034  -5.693  1.00  0.00     0.216 C 
BRANCH  20  21
HETATM   21  O4  UNL     1      -3.429  -4.408  -4.409  1.00  0.00    -0.387 OA
ATOM     22  H4  UNL     1      -3.125  -5.290  -4.226  1.00  0.00     0.210 HD
ENDBRANCH  20  21
BRANCH  20  23
HETATM   23  C9  UNL     1      -2.261  -4.364  -6.411  1.00  0.00     0.266 C 
BRANCH  23  24
HETATM   24  O5  UNL     1      -1.583  -5.344  -5.641  1.00  0.00    -0.373 OA
ATOM     25  H5  UNL     1      -0.748  -5.512  -6.059  1.00  0.00     0.212 HD
ENDBRANCH  23  24
BRANCH  23  26
HETATM   26  N4  UNL     1      -1.394  -3.221  -6.494  1.00  0.00    -0.297 N 
ATOM     27  H4  UNL     1      -0.791  -3.032  -5.694  1.00  0.00     0.183 HD
BRANCH  26  28
HETATM   28  N5  UNL     1      -1.310  -2.343  -7.590  1.00  0.00    -0.247 N 
HETATM   29  C10 UNL     1      -2.351  -1.928  -8.343  1.00  0.00     0.223 A 
HETATM   30  N6  UNL     1      -1.824  -1.086  -9.244  1.00  0.00    -0.293 N 
HETATM   31  N7  UNL     1      -0.539  -0.978  -9.071  1.00  0.00    -0.293 N 
ATOM     32  H6  UNL     1      -2.357  -0.599  -9.964  1.00  0.00     0.187 HD
HETATM   33  C11 UNL     1      -0.148  -1.767  -8.022  1.00  0.00     0.223 A 
ATOM     34  H7  UNL     1       0.083  -0.395  -9.633  1.00  0.00     0.187 HD
ENDBRANCH  26  28
ENDBRANCH  23  26
ENDBRANCH  20  23
ENDBRANCH   1  20
TORSDOF 13
ENDMDL
MODEL 3
REMARK VINA RESULT: -7.561128159      2.182      3.449
REMARK  13 active torsions:
REMARK  status: ('A' for Active; 'I' for Inactive)
REMARK    1  A    between atoms: C3_6  and  N2_7 
REMARK    2  A    between atoms: C4_10  and  C5_11 
REMARK    3  A    between atoms: C5_11  and  C6_12 
REMARK    4  A    between atoms: C6_12  and  O2_13 
REMARK    5  A    between atoms: C6_12  and  N3_15 
REMARK    6  A    between atoms: N3_15  and  C7_17 
REMARK    7  A    between atoms: C7_17  and  O3_18 
REMARK    8  A    between atoms: C7_17  and  C8_20 
REMARK    9  A    between atoms: C8_20  and  O4_21 
REMARK   10  A    between atoms: C8_20  and  C9_23 
REMARK   11  A    between atoms: C9_23  and  O5_24 
REMARK   12  A    between atoms: C9_23  and  N4_26 
REMARK   13  A    between atoms: N4_26  and  N5_28 
ROOT
HETATM    1  C7  UNL     1      -4.784  -4.635  -6.683  1.00  0.00     0.248 C 
ENDROOT
BRANCH   1   2
HETATM    2  N3  UNL     1      -5.245  -3.850  -7.748  1.00  0.00    -0.369 N 
ATOM      3  H3  UNL     1      -5.403  -2.857  -7.582  1.00  0.00     0.158 HD
BRANCH   2   4
HETATM    4  C6  UNL     1      -5.502  -4.363  -9.038  1.00  0.00     0.219 C 
BRANCH   4   5
HETATM    5  C5  UNL     1      -6.906  -3.880  -9.426  1.00  0.00     0.098 C 
BRANCH   5   6
HETATM    6  C4  UNL     1      -7.981  -4.600  -8.734  1.00  0.00     0.023 A 
HETATM    7  C2  UNL     1      -8.880  -3.974  -7.838  1.00  0.00     0.082 A 
HETATM    8  C1  UNL     1      -8.822  -2.523  -7.526  1.00  0.00     0.079 C 
HETATM    9  O1  UNL     1      -9.668  -4.912  -7.426  1.00  0.00    -0.240 OA
HETATM   10  N1  UNL     1      -9.389  -6.058  -7.943  1.00  0.00    -0.245 N 
HETATM   11  C3  UNL     1      -8.313  -5.923  -8.795  1.00  0.00     0.128 A 
ATOM     12  H1  UNL     1      -9.884  -6.928  -7.752  1.00  0.00     0.196 HD
BRANCH  11  13
HETATM   13  N2  UNL     1      -7.815  -6.892  -9.482  1.00  0.00    -0.384 N 
ATOM     14  H22 UNL     1      -8.008  -7.212 -10.431  1.00  0.00     0.157 HD
ATOM     15  H21 UNL     1      -7.111  -7.539  -9.126  1.00  0.00     0.157 HD
ENDBRANCH  11  13
ENDBRANCH   5   6
ENDBRANCH   4   5
BRANCH   4  16
HETATM   16  O2  UNL     1      -4.612  -3.918 -10.038  1.00  0.00    -0.377 OA
ATOM     17  H2  UNL     1      -3.874  -4.516 -10.048  1.00  0.00     0.212 HD
ENDBRANCH   4  16
ENDBRANCH   2   4
ENDBRANCH   1   2
BRANCH   1  18
HETATM   18  O3  UNL     1      -4.252  -5.862  -7.189  1.00  0.00    -0.374 OA
ATOM     19  H3  UNL     1      -3.323  -5.909  -6.995  1.00  0.00     0.212 HD
ENDBRANCH   1  18
BRANCH   1  20
HETATM   20  C8  UNL     1      -3.680  -4.061  -5.862  1.00  0.00     0.216 C 
BRANCH  20  21
HETATM   21  O4  UNL     1      -3.590  -4.415  -4.567  1.00  0.00    -0.387 OA
ATOM     22  H4  UNL     1      -2.947  -5.069  -4.320  1.00  0.00     0.210 HD
ENDBRANCH  20  21
BRANCH  20  23
HETATM   23  C9  UNL     1      -2.315  -4.355  -6.502  1.00  0.00     0.266 C 
BRANCH  23  24
HETATM   24  O5  UNL     1      -1.666  -5.332  -5.705  1.00  0.00    -0.373 OA
ATOM     25  H5  UNL     1      -2.098  -6.163  -5.858  1.00  0.00     0.212 HD
ENDBRANCH  23  24
BRANCH  23  26
HETATM   26  N4  UNL     1      -1.468  -3.194  -6.518  1.00  0.00    -0.297 N 
ATOM     27  H4  UNL     1      -0.920  -3.003  -5.679  1.00  0.00     0.183 HD
BRANCH  26  28
HETATM   28  N5  UNL     1      -1.334  -2.301  -7.596  1.00  0.00    -0.247 N 
HETATM   29  C10 UNL     1      -2.348  -1.815  -8.342  1.00  0.00     0.223 A 
HETATM   30  N6  UNL     1      -1.774  -0.986  -9.226  1.00  0.00    -0.293 N 
HETATM   31  N7  UNL     1      -0.485  -0.952  -9.050  1.00  0.00    -0.293 N 
ATOM     32  H6  UNL     1      -2.278  -0.456  -9.937  1.00  0.00     0.187 HD
HETATM   33  C11 UNL     1      -0.140  -1.781  -8.015  1.00  0.00     0.223 A 
ATOM     34  H7  UNL     1       0.169  -0.394  -9.599  1.00  0.00     0.187 HD
ENDBRANCH  26  28
ENDBRANCH  23  26
ENDBRANCH  20  23
ENDBRANCH   1  20
TORSDOF 13
ENDMDL
MODEL 4
REMARK VINA RESULT: -7.486656555      1.300      1.372
REMARK  13 active torsions:
REMARK  status: ('A' for Active; 'I' for Inactive)
REMARK    1  A    between atoms: C3_6  and  N2_7 
REMARK    2  A    between atoms: C4_10  and  C5_11 
REMARK    3  A    between atoms: C5_11  and  C6_12 
REMARK    4  A    between atoms: C6_12  and  O2_13 
REMARK    5  A    between atoms: C6_12  and  N3_15 
REMARK    6  A    between atoms: N3_15  and  C7_17 
REMARK    7  A    between atoms: C7_17  and  O3_18 
REMARK    8  A    between atoms: C7_17  and  C8_20 
REMARK    9  A    between atoms: C8_20  and  O4_21 
REMARK   10  A    between atoms: C8_20  and  C9_23 
REMARK   11  A    between atoms: C9_23  and  O5_24 
REMARK   12  A    between atoms: C9_23  and  N4_26 
REMARK   13  A    between atoms: N4_26  and  N5_28 
ROOT
HETATM    1  C7  UNL     1      -4.750  -4.543  -6.575  1.00  0.00     0.248 C 
ENDROOT
BRANCH   1   2
HETATM    2  N3  UNL     1      -5.258  -3.627  -7.504  1.00  0.00    -0.369 N 
ATOM      3  H3  UNL     1      -5.179  -2.632  -7.295  1.00  0.00     0.158 HD
BRANCH   2   4
HETATM    4  C6  UNL     1      -5.875  -4.008  -8.717  1.00  0.00     0.219 C 
BRANCH   4   5
HETATM    5  C5  UNL     1      -6.727  -2.812  -9.165  1.00  0.00     0.098 C 
BRANCH   5   6
HETATM    6  C4  UNL     1      -6.713  -2.599 -10.617  1.00  0.00     0.023 A 
HETATM    7  C2  UNL     1      -7.778  -2.981 -11.466  1.00  0.00     0.082 A 
HETATM    8  C1  UNL     1      -9.017  -3.624 -10.960  1.00  0.00     0.079 C 
HETATM    9  O1  UNL     1      -7.408  -2.646 -12.659  1.00  0.00    -0.240 OA
HETATM   10  N1  UNL     1      -6.243  -2.100 -12.682  1.00  0.00    -0.245 N 
HETATM   11  C3  UNL     1      -5.742  -2.039 -11.398  1.00  0.00     0.128 A 
ATOM     12  H1  UNL     1      -5.764  -1.765 -13.517  1.00  0.00     0.196 HD
BRANCH  11  13
HETATM   13  N2  UNL     1      -4.603  -1.520 -11.095  1.00  0.00    -0.384 N 
ATOM     14  H22 UNL     1      -3.873  -1.114 -11.679  1.00  0.00     0.157 HD
ATOM     15  H21 UNL     1      -4.239  -1.463 -10.143  1.00  0.00     0.157 HD
ENDBRANCH  11  13
ENDBRANCH   5   6
ENDBRANCH   4   5
BRANCH   4  16
HETATM   16  O2  UNL     1      -4.981  -4.305  -9.765  1.00  0.00    -0.377 OA
ATOM     17  H2  UNL     1      -4.112  -4.048  -9.479  1.00  0.00     0.212 HD
ENDBRANCH   4  16
ENDBRANCH   2   4
ENDBRANCH   1   2
BRANCH   1  18
HETATM   18  O3  UNL     1      -4.241  -5.689  -7.263  1.00  0.00    -0.374 OA
ATOM     19  H3  UNL     1      -4.303  -6.451  -6.700  1.00  0.00     0.212 HD
ENDBRANCH   1  18
BRANCH   1  20
HETATM   20  C8  UNL     1      -3.611  -4.077  -5.734  1.00  0.00     0.216 C 
BRANCH  20  21
HETATM   21  O4  UNL     1      -3.491  -4.566  -4.487  1.00  0.00    -0.387 OA
ATOM     22  H4  UNL     1      -3.908  -5.395  -4.282  1.00  0.00     0.210 HD
ENDBRANCH  20  21
BRANCH  20  23
HETATM   23  C9  UNL     1      -2.272  -4.327  -6.444  1.00  0.00     0.266 C 
BRANCH  23  24
HETATM   24  O5  UNL     1      -1.571  -5.316  -5.708  1.00  0.00    -0.373 OA
ATOM     25  H5  UNL     1      -2.159  -5.652  -5.043  1.00  0.00     0.212 HD
ENDBRANCH  23  24
BRANCH  23  26
HETATM   26  N4  UNL     1      -1.446  -3.151  -6.460  1.00  0.00    -0.297 N 
ATOM     27  H4  UNL     1      -0.922  -2.935  -5.612  1.00  0.00     0.183 HD
BRANCH  26  28
HETATM   28  N5  UNL     1      -1.302  -2.274  -7.551  1.00  0.00    -0.247 N 
HETATM   29  C10 UNL     1      -2.313  -1.762  -8.283  1.00  0.00     0.223 A 
HETATM   30  N6  UNL     1      -1.729  -0.963  -9.187  1.00  0.00    -0.293 N 
HETATM   31  N7  UNL     1      -0.436  -0.970  -9.035  1.00  0.00    -0.293 N 
ATOM     32  H6  UNL     1      -2.228  -0.424  -9.895  1.00  0.00     0.187 HD
HETATM   33  C11 UNL     1      -0.100  -1.799  -7.998  1.00  0.00     0.223 A 
ATOM     34  H7  UNL     1       0.225  -0.440  -9.603  1.00  0.00     0.187 HD
ENDBRANCH  26  28
ENDBRANCH  23  26
ENDBRANCH  20  23
ENDBRANCH   1  20
TORSDOF 13
ENDMDL
MODEL 5
REMARK VINA RESULT: -7.435599896      2.460      3.151
REMARK  13 active torsions:
REMARK  status: ('A' for Active; 'I' for Inactive)
REMARK    1  A    between atoms: C3_6  and  N2_7 
REMARK    2  A    between atoms: C4_10  and  C5_11 
REMARK    3  A    between atoms: C5_11  and  C6_12 
REMARK    4  A    between atoms: C6_12  and  O2_13 
REMARK    5  A    between atoms: C6_12  and  N3_15 
REMARK    6  A    between atoms: N3_15  and  C7_17 
REMARK    7  A    between atoms: C7_17  and  O3_18 
REMARK    8  A    between atoms: C7_17  and  C8_20 
REMARK    9  A    between atoms: C8_20  and  O4_21 
REMARK   10  A    between atoms: C8_20  and  C9_23 
REMARK   11  A    between atoms: C9_23  and  O5_24 
REMARK   12  A    between atoms: C9_23  and  N4_26 
REMARK   13  A    between atoms: N4_26  and  N5_28 
ROOT
HETATM    1  C7  UNL     1      -4.686  -4.541  -6.523  1.00  0.00     0.248 C 
ENDROOT
BRANCH   1   2
HETATM    2  N3  UNL     1      -5.266  -3.623  -7.408  1.00  0.00    -0.369 N 
ATOM      3  H3  UNL     1      -4.649  -3.018  -7.950  1.00  0.00     0.158 HD
BRANCH   2   4
HETATM    4  C6  UNL     1      -6.661  -3.491  -7.590  1.00  0.00     0.219 C 
BRANCH   4   5
HETATM    5  C5  UNL     1      -6.935  -3.788  -9.072  1.00  0.00     0.098 C 
BRANCH   5   6
HETATM    6  C4  UNL     1      -7.758  -4.985  -9.282  1.00  0.00     0.023 A 
HETATM    7  C2  UNL     1      -9.120  -4.931  -9.663  1.00  0.00     0.082 A 
HETATM    8  C1  UNL     1      -9.838  -3.651  -9.896  1.00  0.00     0.079 C 
HETATM    9  O1  UNL     1      -9.507  -6.161  -9.743  1.00  0.00    -0.240 OA
HETATM   10  N1  UNL     1      -8.567  -6.996  -9.462  1.00  0.00    -0.245 N 
HETATM   11  C3  UNL     1      -7.416  -6.301  -9.159  1.00  0.00     0.128 A 
ATOM     12  H1  UNL     1      -8.660  -8.011  -9.464  1.00  0.00     0.196 HD
BRANCH  11  13
HETATM   13  N2  UNL     1      -6.295  -6.862  -8.860  1.00  0.00    -0.384 N 
ATOM     14  H22 UNL     1      -6.041  -7.491  -8.099  1.00  0.00     0.157 HD
ATOM     15  H21 UNL     1      -5.431  -6.721  -9.382  1.00  0.00     0.157 HD
ENDBRANCH  11  13
ENDBRANCH   5   6
ENDBRANCH   4   5
BRANCH   4  16
HETATM   16  O2  UNL     1      -7.441  -4.386  -6.830  1.00  0.00    -0.377 OA
ATOM     17  H2  UNL     1      -8.015  -3.865  -6.280  1.00  0.00     0.212 HD
ENDBRANCH   4  16
ENDBRANCH   2   4
ENDBRANCH   1   2
BRANCH   1  18
HETATM   18  O3  UNL     1      -4.167  -5.651  -7.259  1.00  0.00    -0.374 OA
ATOM     19  H3  UNL     1      -3.395  -5.379  -7.741  1.00  0.00     0.212 HD
ENDBRANCH   1  18
BRANCH   1  20
HETATM   20  C8  UNL     1      -3.529  -4.052  -5.720  1.00  0.00     0.216 C 
BRANCH  20  21
HETATM   21  O4  UNL     1      -3.384  -4.504  -4.462  1.00  0.00    -0.387 OA
ATOM     22  H4  UNL     1      -2.782  -4.050  -3.883  1.00  0.00     0.210 HD
ENDBRANCH  20  21
BRANCH  20  23
HETATM   23  C9  UNL     1      -2.206  -4.325  -6.450  1.00  0.00     0.266 C 
BRANCH  23  24
HETATM   24  O5  UNL     1      -1.498  -5.305  -5.708  1.00  0.00    -0.373 OA
ATOM     25  H5  UNL     1      -0.943  -4.851  -5.086  1.00  0.00     0.212 HD
ENDBRANCH  23  24
BRANCH  23  26
HETATM   26  N4  UNL     1      -1.372  -3.156  -6.505  1.00  0.00    -0.297 N 
ATOM     27  H4  UNL     1      -0.801  -2.949  -5.685  1.00  0.00     0.183 HD
BRANCH  26  28
HETATM   28  N5  UNL     1      -1.279  -2.275  -7.598  1.00  0.00    -0.247 N 
HETATM   29  C10 UNL     1      -2.318  -1.829  -8.335  1.00  0.00     0.223 A 
HETATM   30  N6  UNL     1      -1.781  -0.997  -9.239  1.00  0.00    -0.293 N 
HETATM   31  N7  UNL     1      -0.491  -0.924  -9.083  1.00  0.00    -0.293 N 
ATOM     32  H6  UNL     1      -2.310  -0.492  -9.950  1.00  0.00     0.187 HD
HETATM   33  C11 UNL     1      -0.107  -1.728  -8.042  1.00  0.00     0.223 A 
ATOM     34  H7  UNL     1       0.138  -0.355  -9.650  1.00  0.00     0.187 HD
ENDBRANCH  26  28
ENDBRANCH  23  26
ENDBRANCH  20  23
ENDBRANCH   1  20
TORSDOF 13
ENDMDL
