MODEL 1
REMARK VINA RESULT: -6.747619697      0.000      0.000
REMARK  11 active torsions:
REMARK  status: ('A' for Active; 'I' for Inactive)
REMARK    1  A    between atoms: C2_2  and  O1_3 
REMARK    2  A    between atoms: C2_2  and  N1_5 
REMARK    3  A    between atoms: N1_5  and  C3_7 
REMARK    4  A    between atoms: N6_21  and  C8_22 
REMARK    5  A    between atoms: C8_22  and  O2_23 
REMARK    6  A    between atoms: O2_23  and  C9_24 
REMARK    7  A    between atoms: C9_24  and  O3_25 
REMARK    8  A    between atoms: O3_25  and  C10_26 
REMARK    9  A    between atoms: C10_26  and  N7_28 
REMARK   10  A    between atoms: C10_26  and  N8_32 
REMARK   11  A    between atoms: N8_32  and  N9_33 
ROOT
HETATM    1  C3  UNL     1      -3.503  -2.637  -9.219  1.00  0.00     0.149 A 
HETATM    2  N2  UNL     1      -4.022  -3.202  -8.143  1.00  0.00    -0.175 N 
ATOM      3  H2  UNL     1      -3.411  -3.379  -7.346  1.00  0.00     0.186 HD
HETATM    4  C4  UNL     1      -5.331  -3.559  -8.044  1.00  0.00     0.679 A 
HETATM    5  N3  UNL     1      -5.730  -4.109  -6.931  1.00  0.00    -0.234 N 
ATOM      6  H31 UNL     1      -6.711  -4.376  -6.857  1.00  0.00     0.174 HD
ATOM      7  H32 UNL     1      -5.089  -4.269  -6.155  1.00  0.00     0.174 HD
HETATM    8  N4  UNL     1      -6.175  -3.348  -9.066  1.00  0.00    -0.174 N 
ATOM      9  H4  UNL     1      -7.157  -3.616  -8.994  1.00  0.00     0.186 HD
HETATM   10  C5  UNL     1      -5.699  -2.776 -10.186  1.00  0.00     0.160 A 
HETATM   11  C6  UNL     1      -4.379  -2.413 -10.292  1.00  0.00     0.123 A 
HETATM   12  N5  UNL     1      -4.240  -1.883 -11.509  1.00  0.00    -0.346 N 
ATOM     13  H5  UNL     1      -3.372  -1.514 -11.898  1.00  0.00     0.167 HD
HETATM   14  C7  UNL     1      -5.424  -1.914 -12.140  1.00  0.00     0.192 A 
HETATM   15  N6  UNL     1      -6.354  -2.465 -11.341  1.00  0.00    -0.282 N 
ENDROOT
BRANCH  15  16
HETATM   16  C8  UNL     1      -7.745  -2.703 -11.591  1.00  0.00     0.238 C 
BRANCH  16  17
HETATM   17  O2  UNL     1      -8.046  -3.940 -12.096  1.00  0.00    -0.321 OA
BRANCH  17  18
HETATM   18  C9  UNL     1      -8.788  -4.737 -11.226  1.00  0.00     0.350 C 
BRANCH  18  19
HETATM   19  O3  UNL     1      -7.988  -5.656 -10.561  1.00  0.00    -0.316 OA
BRANCH  19  20
HETATM   20  C10 UNL     1      -8.506  -6.043  -9.334  1.00  0.00     0.314 C 
HETATM   21  C11 UNL     1      -9.288  -4.964  -8.656  1.00  0.00     0.101 C 
BRANCH  20  22
HETATM   22  N7  UNL     1      -9.301  -7.264  -9.447  1.00  0.00    -0.030 N 
ATOM     23  H73 UNL     1      -9.993  -7.190 -10.193  1.00  0.00     0.279 HD
ATOM     24  H72 UNL     1      -8.749  -8.036  -9.820  1.00  0.00     0.279 HD
ATOM     25  H71 UNL     1      -9.736  -7.513  -8.558  1.00  0.00     0.279 HD
ENDBRANCH  20  22
BRANCH  20  26
HETATM   26  N8  UNL     1      -7.375  -6.374  -8.485  1.00  0.00    -0.081 NA
BRANCH  26  27
HETATM   27  N9  UNL     1      -6.377  -7.063  -9.165  1.00  0.00    -0.344 N 
ATOM     28  H92 UNL     1      -6.578  -7.768  -9.874  1.00  0.00     0.172 HD
ATOM     29  H91 UNL     1      -5.440  -6.785  -8.875  1.00  0.00     0.172 HD
ENDBRANCH  26  27
ENDBRANCH  20  26
ENDBRANCH  19  20
ENDBRANCH  18  19
ENDBRANCH  17  18
ENDBRANCH  16  17
ENDBRANCH  15  16
BRANCH   1  30
HETATM   30  N1  UNL     1      -2.170  -2.241  -9.415  1.00  0.00    -0.348 N 
ATOM     31  H1  UNL     1      -1.619  -2.676 -10.155  1.00  0.00     0.163 HD
BRANCH  30  32
HETATM   32  C2  UNL     1      -1.569  -1.228  -8.583  1.00  0.00     0.215 C 
HETATM   33  C1  UNL     1      -0.302  -1.746  -7.956  1.00  0.00     0.063 C 
BRANCH  32  34
HETATM   34  O1  UNL     1      -1.267  -0.074  -9.318  1.00  0.00    -0.377 OA
ATOM     35  H1  UNL     1      -2.031   0.491  -9.325  1.00  0.00     0.212 HD
ENDBRANCH  32  34
ENDBRANCH  30  32
ENDBRANCH   1  30
TORSDOF 11
ENDMDL
MODEL 2
REMARK VINA RESULT: -6.561310519      1.524      3.037
REMARK  11 active torsions:
REMARK  status: ('A' for Active; 'I' for Inactive)
REMARK    1  A    between atoms: C2_2  and  O1_3 
REMARK    2  A    between atoms: C2_2  and  N1_5 
REMARK    3  A    between atoms: N1_5  and  C3_7 
REMARK    4  A    between atoms: N6_21  and  C8_22 
REMARK    5  A    between atoms: C8_22  and  O2_23 
REMARK    6  A    between atoms: O2_23  and  C9_24 
REMARK    7  A    between atoms: C9_24  and  O3_25 
REMARK    8  A    between atoms: O3_25  and  C10_26 
REMARK    9  A    between atoms: C10_26  and  N7_28 
REMARK   10  A    between atoms: C10_26  and  N8_32 
REMARK   11  A    between atoms: N8_32  and  N9_33 
ROOT
HETATM    1  C3  UNL     1      -3.488  -2.522  -9.452  1.00  0.00     0.149 A 
HETATM    2  N2  UNL     1      -4.338  -2.271 -10.433  1.00  0.00    -0.175 N 
ATOM      3  H2  UNL     1      -3.978  -1.851 -11.290  1.00  0.00     0.186 HD
HETATM    4  C4  UNL     1      -5.668  -2.545 -10.358  1.00  0.00     0.679 A 
HETATM    5  N3  UNL     1      -6.409  -2.254 -11.390  1.00  0.00    -0.234 N 
ATOM      6  H31 UNL     1      -7.407  -2.459 -11.333  1.00  0.00     0.174 HD
ATOM      7  H32 UNL     1      -6.013  -1.835 -12.231  1.00  0.00     0.174 HD
HETATM    8  N4  UNL     1      -6.189  -3.096  -9.250  1.00  0.00    -0.174 N 
ATOM      9  H4  UNL     1      -7.187  -3.301  -9.191  1.00  0.00     0.186 HD
HETATM   10  C5  UNL     1      -5.370  -3.371  -8.221  1.00  0.00     0.160 A 
HETATM   11  C6  UNL     1      -4.026  -3.098  -8.292  1.00  0.00     0.123 A 
HETATM   12  N5  UNL     1      -3.510  -3.486  -7.123  1.00  0.00    -0.346 N 
ATOM     13  H5  UNL     1      -2.528  -3.417  -6.858  1.00  0.00     0.167 HD
HETATM   14  C7  UNL     1      -4.490  -3.982  -6.353  1.00  0.00     0.192 A 
HETATM   15  N6  UNL     1      -5.662  -3.924  -7.009  1.00  0.00    -0.282 N 
ENDROOT
BRANCH  15  16
HETATM   16  C8  UNL     1      -6.966  -4.335  -6.582  1.00  0.00     0.238 C 
BRANCH  16  17
HETATM   17  O2  UNL     1      -8.009  -3.805  -7.295  1.00  0.00    -0.321 OA
BRANCH  17  18
HETATM   18  C9  UNL     1      -8.948  -4.750  -7.705  1.00  0.00     0.350 C 
BRANCH  18  19
HETATM   19  O3  UNL     1      -8.347  -5.951  -8.060  1.00  0.00    -0.316 OA
BRANCH  19  20
HETATM   20  C10 UNL     1      -8.576  -6.306  -9.380  1.00  0.00     0.314 C 
HETATM   21  C11 UNL     1      -9.812  -7.127  -9.567  1.00  0.00     0.101 C 
BRANCH  20  22
HETATM   22  N7  UNL     1      -8.598  -5.136 -10.256  1.00  0.00    -0.030 N 
ATOM     23  H73 UNL     1      -8.702  -5.405 -11.234  1.00  0.00     0.279 HD
ATOM     24  H72 UNL     1      -9.460  -4.603 -10.145  1.00  0.00     0.279 HD
ATOM     25  H71 UNL     1      -7.776  -4.547 -10.116  1.00  0.00     0.279 HD
ENDBRANCH  20  22
BRANCH  20  26
HETATM   26  N8  UNL     1      -7.441  -7.107  -9.804  1.00  0.00    -0.081 NA
BRANCH  26  27
HETATM   27  N9  UNL     1      -6.328  -6.934  -8.990  1.00  0.00    -0.344 N 
ATOM     28  H92 UNL     1      -5.377  -6.888  -9.357  1.00  0.00     0.172 HD
ATOM     29  H91 UNL     1      -6.571  -6.859  -8.003  1.00  0.00     0.172 HD
ENDBRANCH  26  27
ENDBRANCH  20  26
ENDBRANCH  19  20
ENDBRANCH  18  19
ENDBRANCH  17  18
ENDBRANCH  16  17
ENDBRANCH  15  16
BRANCH   1  30
HETATM   30  N1  UNL     1      -2.107  -2.270  -9.436  1.00  0.00    -0.348 N 
ATOM     31  H1  UNL     1      -1.484  -2.842 -10.007  1.00  0.00     0.163 HD
BRANCH  30  32
HETATM   32  C2  UNL     1      -1.556  -1.214  -8.624  1.00  0.00     0.215 C 
HETATM   33  C1  UNL     1      -0.248  -1.646  -8.015  1.00  0.00     0.063 C 
BRANCH  32  34
HETATM   34  O1  UNL     1      -1.340  -0.050  -9.373  1.00  0.00    -0.377 OA
ATOM     35  H1  UNL     1      -2.182   0.315  -9.618  1.00  0.00     0.212 HD
ENDBRANCH  32  34
ENDBRANCH  30  32
ENDBRANCH   1  30
TORSDOF 11
ENDMDL
MODEL 3
REMARK VINA RESULT: -6.476651875      2.778      3.681
REMARK  11 active torsions:
REMARK  status: ('A' for Active; 'I' for Inactive)
REMARK    1  A    between atoms: C2_2  and  O1_3 
REMARK    2  A    between atoms: C2_2  and  N1_5 
REMARK    3  A    between atoms: N1_5  and  C3_7 
REMARK    4  A    between atoms: N6_21  and  C8_22 
REMARK    5  A    between atoms: C8_22  and  O2_23 
REMARK    6  A    between atoms: O2_23  and  C9_24 
REMARK    7  A    between atoms: C9_24  and  O3_25 
REMARK    8  A    between atoms: O3_25  and  C10_26 
REMARK    9  A    between atoms: C10_26  and  N7_28 
REMARK   10  A    between atoms: C10_26  and  N8_32 
REMARK   11  A    between atoms: N8_32  and  N9_33 
ROOT
HETATM    1  C3  UNL     1      -3.229  -2.950  -8.334  1.00  0.00     0.149 A 
HETATM    2  N2  UNL     1      -2.629  -3.541  -7.315  1.00  0.00    -0.175 N 
ATOM      3  H2  UNL     1      -1.695  -3.225  -7.053  1.00  0.00     0.186 HD
HETATM    4  C4  UNL     1      -3.195  -4.549  -6.597  1.00  0.00     0.679 A 
HETATM    5  N3  UNL     1      -2.507  -5.055  -5.612  1.00  0.00    -0.234 N 
ATOM      6  H31 UNL     1      -2.931  -5.811  -5.074  1.00  0.00     0.174 HD
ATOM      7  H32 UNL     1      -1.575  -4.713  -5.379  1.00  0.00     0.174 HD
HETATM    8  N4  UNL     1      -4.421  -5.000  -6.904  1.00  0.00    -0.174 N 
ATOM      9  H4  UNL     1      -4.847  -5.756  -6.368  1.00  0.00     0.186 HD
HETATM   10  C5  UNL     1      -5.077  -4.434  -7.933  1.00  0.00     0.160 A 
HETATM   11  C6  UNL     1      -4.511  -3.416  -8.660  1.00  0.00     0.123 A 
HETATM   12  N5  UNL     1      -5.410  -3.086  -9.591  1.00  0.00    -0.346 N 
ATOM     13  H5  UNL     1      -5.291  -2.358 -10.295  1.00  0.00     0.167 HD
HETATM   14  C7  UNL     1      -6.492  -3.866  -9.452  1.00  0.00     0.192 A 
HETATM   15  N6  UNL     1      -6.316  -4.717  -8.427  1.00  0.00    -0.282 N 
ENDROOT
BRANCH  15  16
HETATM   16  C8  UNL     1      -7.197  -5.725  -7.917  1.00  0.00     0.238 C 
BRANCH  16  17
HETATM   17  O2  UNL     1      -7.362  -5.726  -6.558  1.00  0.00    -0.321 OA
BRANCH  17  18
HETATM   18  C9  UNL     1      -8.657  -5.415  -6.147  1.00  0.00     0.350 C 
BRANCH  18  19
HETATM   19  O3  UNL     1      -9.282  -6.501  -5.549  1.00  0.00    -0.316 OA
BRANCH  19  20
HETATM   20  C10 UNL     1     -10.606  -6.647  -5.933  1.00  0.00     0.314 C 
HETATM   21  C11 UNL     1     -11.457  -5.470  -5.580  1.00  0.00     0.101 C 
BRANCH  20  22
HETATM   22  N7  UNL     1     -10.722  -6.960  -7.356  1.00  0.00    -0.030 N 
ATOM     23  H73 UNL     1     -11.360  -6.319  -7.827  1.00  0.00     0.279 HD
ATOM     24  H72 UNL     1      -9.866  -6.731  -7.859  1.00  0.00     0.279 HD
ATOM     25  H71 UNL     1     -10.993  -7.933  -7.506  1.00  0.00     0.279 HD
ENDBRANCH  20  22
BRANCH  20  26
HETATM   26  N8  UNL     1     -11.126  -7.801  -5.221  1.00  0.00    -0.081 NA
BRANCH  26  27
HETATM   27  N9  UNL     1     -12.167  -7.476  -4.360  1.00  0.00    -0.344 N 
ATOM     28  H92 UNL     1     -13.120  -7.816  -4.492  1.00  0.00     0.172 HD
ATOM     29  H91 UNL     1     -11.871  -6.870  -3.595  1.00  0.00     0.172 HD
ENDBRANCH  26  27
ENDBRANCH  20  26
ENDBRANCH  19  20
ENDBRANCH  18  19
ENDBRANCH  17  18
ENDBRANCH  16  17
ENDBRANCH  15  16
BRANCH   1  30
HETATM   30  N1  UNL     1      -2.725  -1.911  -9.133  1.00  0.00    -0.348 N 
ATOM     31  H1  UNL     1      -3.070  -1.796 -10.086  1.00  0.00     0.163 HD
BRANCH  30  32
HETATM   32  C2  UNL     1      -1.725  -1.005  -8.625  1.00  0.00     0.215 C 
HETATM   33  C1  UNL     1      -0.442  -1.742  -8.344  1.00  0.00     0.063 C 
BRANCH  32  34
HETATM   34  O1  UNL     1      -1.459   0.028  -9.533  1.00  0.00    -0.377 OA
ATOM     35  H1  UNL     1      -2.023  -0.081 -10.291  1.00  0.00     0.212 HD
ENDBRANCH  32  34
ENDBRANCH  30  32
ENDBRANCH   1  30
TORSDOF 11
ENDMDL
MODEL 4
REMARK VINA RESULT: -6.470414750      2.311      2.948
REMARK  11 active torsions:
REMARK  status: ('A' for Active; 'I' for Inactive)
REMARK    1  A    between atoms: C2_2  and  O1_3 
REMARK    2  A    between atoms: C2_2  and  N1_5 
REMARK    3  A    between atoms: N1_5  and  C3_7 
REMARK    4  A    between atoms: N6_21  and  C8_22 
REMARK    5  A    between atoms: C8_22  and  O2_23 
REMARK    6  A    between atoms: O2_23  and  C9_24 
REMARK    7  A    between atoms: C9_24  and  O3_25 
REMARK    8  A    between atoms: O3_25  and  C10_26 
REMARK    9  A    between atoms: C10_26  and  N7_28 
REMARK   10  A    between atoms: C10_26  and  N8_32 
REMARK   11  A    between atoms: N8_32  and  N9_33 
ROOT
HETATM    1  C3  UNL     1      -4.486  -4.963  -7.183  1.00  0.00     0.149 A 
HETATM    2  N2  UNL     1      -5.568  -5.410  -6.569  1.00  0.00    -0.175 N 
ATOM      3  H2  UNL     1      -5.449  -5.965  -5.721  1.00  0.00     0.186 HD
HETATM    4  C4  UNL     1      -6.831  -5.168  -7.010  1.00  0.00     0.679 A 
HETATM    5  N3  UNL     1      -7.822  -5.661  -6.321  1.00  0.00    -0.234 N 
ATOM      6  H31 UNL     1      -8.770  -5.479  -6.652  1.00  0.00     0.174 HD
ATOM      7  H32 UNL     1      -7.665  -6.210  -5.476  1.00  0.00     0.174 HD
HETATM    8  N4  UNL     1      -7.039  -4.445  -8.122  1.00  0.00    -0.174 N 
ATOM      9  H4  UNL     1      -7.986  -4.264  -8.455  1.00  0.00     0.186 HD
HETATM   10  C5  UNL     1      -5.973  -3.967  -8.787  1.00  0.00     0.160 A 
HETATM   11  C6  UNL     1      -4.696  -4.207  -8.346  1.00  0.00     0.123 A 
HETATM   12  N5  UNL     1      -3.886  -3.601  -9.218  1.00  0.00    -0.346 N 
ATOM     13  H5  UNL     1      -2.867  -3.593  -9.171  1.00  0.00     0.167 HD
HETATM   14  C7  UNL     1      -4.626  -3.007 -10.165  1.00  0.00     0.192 A 
HETATM   15  N6  UNL     1      -5.932  -3.216  -9.925  1.00  0.00    -0.282 N 
ENDROOT
BRANCH  15  16
HETATM   16  C8  UNL     1      -7.077  -2.776 -10.666  1.00  0.00     0.238 C 
BRANCH  16  17
HETATM   17  O2  UNL     1      -7.468  -3.603 -11.685  1.00  0.00    -0.321 OA
BRANCH  17  18
HETATM   18  C9  UNL     1      -8.662  -4.278 -11.435  1.00  0.00     0.350 C 
BRANCH  18  19
HETATM   19  O3  UNL     1      -8.444  -5.486 -10.786  1.00  0.00    -0.316 OA
BRANCH  19  20
HETATM   20  C10 UNL     1      -9.550  -5.933 -10.081  1.00  0.00     0.314 C 
HETATM   21  C11 UNL     1     -10.788  -6.017 -10.916  1.00  0.00     0.101 C 
BRANCH  20  22
HETATM   22  N7  UNL     1      -9.287  -7.210  -9.420  1.00  0.00    -0.030 N 
ATOM     23  H73 UNL     1      -8.458  -7.664  -9.805  1.00  0.00     0.279 HD
ATOM     24  H72 UNL     1      -8.963  -7.074  -8.463  1.00  0.00     0.279 HD
ATOM     25  H71 UNL     1     -10.100  -7.826  -9.455  1.00  0.00     0.279 HD
ENDBRANCH  20  22
BRANCH  20  26
HETATM   26  N8  UNL     1      -9.793  -4.972  -9.021  1.00  0.00    -0.081 NA
BRANCH  26  27
HETATM   27  N9  UNL     1     -10.836  -5.348  -8.184  1.00  0.00    -0.344 N 
ATOM     28  H92 UNL     1     -11.804  -5.411  -8.501  1.00  0.00     0.172 HD
ATOM     29  H91 UNL     1     -10.526  -5.549  -7.233  1.00  0.00     0.172 HD
ENDBRANCH  26  27
ENDBRANCH  20  26
ENDBRANCH  19  20
ENDBRANCH  18  19
ENDBRANCH  17  18
ENDBRANCH  16  17
ENDBRANCH  15  16
BRANCH   1  30
HETATM   30  N1  UNL     1      -3.148  -5.166  -6.808  1.00  0.00    -0.348 N 
ATOM     31  H1  UNL     1      -2.559  -5.790  -7.359  1.00  0.00     0.163 HD
BRANCH  30  32
HETATM   32  C2  UNL     1      -2.595  -4.504  -5.652  1.00  0.00     0.215 C 
HETATM   33  C1  UNL     1      -2.141  -3.113  -6.011  1.00  0.00     0.063 C 
BRANCH  32  34
HETATM   34  O1  UNL     1      -3.533  -4.415  -4.615  1.00  0.00    -0.377 OA
ATOM     35  H1  UNL     1      -4.352  -4.794  -4.911  1.00  0.00     0.212 HD
ENDBRANCH  32  34
ENDBRANCH  30  32
ENDBRANCH   1  30
TORSDOF 11
ENDMDL
MODEL 5
REMARK VINA RESULT: -6.455533536      1.753      3.442
REMARK  11 active torsions:
REMARK  status: ('A' for Active; 'I' for Inactive)
REMARK    1  A    between atoms: C2_2  and  O1_3 
REMARK    2  A    between atoms: C2_2  and  N1_5 
REMARK    3  A    between atoms: N1_5  and  C3_7 
REMARK    4  A    between atoms: N6_21  and  C8_22 
REMARK    5  A    between atoms: C8_22  and  O2_23 
REMARK    6  A    between atoms: O2_23  and  C9_24 
REMARK    7  A    between atoms: C9_24  and  O3_25 
REMARK    8  A    between atoms: O3_25  and  C10_26 
REMARK    9  A    between atoms: C10_26  and  N7_28 
REMARK   10  A    between atoms: C10_26  and  N8_32 
REMARK   11  A    between atoms: N8_32  and  N9_33 
ROOT
HETATM    1  C3  UNL     1      -3.092  -2.011  -8.742  1.00  0.00     0.149 A 
HETATM    2  N2  UNL     1      -3.522  -1.866  -9.984  1.00  0.00    -0.175 N 
ATOM      3  H2  UNL     1      -3.137  -1.107 -10.544  1.00  0.00     0.186 HD
HETATM    4  C4  UNL     1      -4.453  -2.679 -10.551  1.00  0.00     0.679 A 
HETATM    5  N3  UNL     1      -4.800  -2.440 -11.785  1.00  0.00    -0.234 N 
ATOM      6  H31 UNL     1      -5.498  -3.049 -12.211  1.00  0.00     0.174 HD
ATOM      7  H32 UNL     1      -4.391  -1.670 -12.315  1.00  0.00     0.174 HD
HETATM    8  N4  UNL     1      -4.991  -3.692  -9.854  1.00  0.00    -0.174 N 
ATOM      9  H4  UNL     1      -5.690  -4.302 -10.278  1.00  0.00     0.186 HD
HETATM   10  C5  UNL     1      -4.590  -3.885  -8.585  1.00  0.00     0.160 A 
HETATM   11  C6  UNL     1      -3.650  -3.068  -8.007  1.00  0.00     0.123 A 
HETATM   12  N5  UNL     1      -3.481  -3.525  -6.764  1.00  0.00    -0.346 N 
ATOM     13  H5  UNL     1      -2.844  -3.132  -6.071  1.00  0.00     0.167 HD
HETATM   14  C7  UNL     1      -4.282  -4.584  -6.572  1.00  0.00     0.192 A 
HETATM   15  N6  UNL     1      -4.986  -4.834  -7.689  1.00  0.00    -0.282 N 
ENDROOT
BRANCH  15  16
HETATM   16  C8  UNL     1      -5.957  -5.855  -7.945  1.00  0.00     0.238 C 
BRANCH  16  17
HETATM   17  O2  UNL     1      -6.368  -5.960  -9.247  1.00  0.00    -0.321 OA
BRANCH  17  18
HETATM   18  C9  UNL     1      -7.745  -6.117  -9.392  1.00  0.00     0.350 C 
BRANCH  18  19
HETATM   19  O3  UNL     1      -8.170  -5.776 -10.670  1.00  0.00    -0.316 OA
BRANCH  19  20
HETATM   20  C10 UNL     1      -8.613  -4.466 -10.765  1.00  0.00     0.314 C 
HETATM   21  C11 UNL     1      -9.992  -4.348 -11.332  1.00  0.00     0.101 C 
BRANCH  20  22
HETATM   22  N7  UNL     1      -8.523  -3.772  -9.481  1.00  0.00    -0.030 N 
ATOM     23  H73 UNL     1      -8.120  -4.373  -8.762  1.00  0.00     0.279 HD
ATOM     24  H72 UNL     1      -7.807  -3.046  -9.500  1.00  0.00     0.279 HD
ATOM     25  H71 UNL     1      -9.426  -3.398  -9.192  1.00  0.00     0.279 HD
ENDBRANCH  20  22
BRANCH  20  26
HETATM   26  N8  UNL     1      -7.702  -3.777 -11.662  1.00  0.00    -0.081 NA
BRANCH  26  27
HETATM   27  N9  UNL     1      -8.288  -2.679 -12.281  1.00  0.00    -0.344 N 
ATOM     28  H92 UNL     1      -8.562  -2.680 -13.264  1.00  0.00     0.172 HD
ATOM     29  H91 UNL     1      -8.408  -1.888 -11.649  1.00  0.00     0.172 HD
ENDBRANCH  26  27
ENDBRANCH  20  26
ENDBRANCH  19  20
ENDBRANCH  18  19
ENDBRANCH  17  18
ENDBRANCH  16  17
ENDBRANCH  15  16
BRANCH   1  30
HETATM   30  N1  UNL     1      -2.143  -1.222  -8.072  1.00  0.00    -0.348 N 
ATOM     31  H1  UNL     1      -2.457  -0.481  -7.445  1.00  0.00     0.163 HD
BRANCH  30  32
HETATM   32  C2  UNL     1      -0.731  -1.446  -8.256  1.00  0.00     0.215 C 
HETATM   33  C1  UNL     1      -0.203  -2.374  -7.195  1.00  0.00     0.063 C 
BRANCH  32  34
HETATM   34  O1  UNL     1      -0.460  -2.002  -9.513  1.00  0.00    -0.377 OA
ATOM     35  H1  UNL     1      -0.552  -1.324 -10.172  1.00  0.00     0.212 HD
ENDBRANCH  32  34
ENDBRANCH  30  32
ENDBRANCH   1  30
TORSDOF 11
ENDMDL
