MODEL 1
REMARK VINA RESULT: -6.705875067      0.000      0.000
REMARK  5 active torsions:
REMARK  status: ('A' for Active; 'I' for Inactive)
REMARK    1  A    between atoms: C2_2  and  C3_3 
REMARK    2  A    between atoms: C3_3  and  S1_4 
REMARK    3  A    between atoms: S1_4  and  C4_5 
REMARK    4  A    between atoms: C4_5  and  C5_6 
REMARK       I    between atoms: C5_6  and  N1_8 
REMARK    5  A    between atoms: N1_8  and  C6_10 
ROOT
HETATM    1  C5  UNL     1      56.392 -18.473  -1.618  1.00  0.00     0.232 C 
HETATM    2  O1  UNL     1      55.876 -18.681  -0.495  1.00  0.00    -0.272 OA
HETATM    3  N1  UNL     1      57.257 -17.429  -1.927  1.00  0.00    -0.305 N 
ATOM      4  H1  UNL     1      57.333 -17.171  -2.911  1.00  0.00     0.171 HD
ENDROOT
BRANCH   3   5
HETATM    5  C6  UNL     1      57.979 -16.748  -1.087  1.00  0.00     0.177 A 
HETATM    6  N2  UNL     1      59.294 -16.707  -0.871  1.00  0.00    -0.234 N 
HETATM    7  O2  UNL     1      59.743 -15.954   0.020  1.00  0.00    -0.187 OA
ATOM      8  H2  UNL     1      59.926 -17.284  -1.426  1.00  0.00     0.197 HD
HETATM    9  C7  UNL     1      58.976 -15.215   0.735  1.00  0.00     0.351 A 
HETATM   10  O3  UNL     1      59.286 -14.398   1.678  1.00  0.00    -0.249 OA
HETATM   11  S2  UNL     1      57.437 -15.609   0.102  1.00  0.00     0.019 SA
ENDBRANCH   3   5
BRANCH   1  12
HETATM   12  C4  UNL     1      56.036 -19.442  -2.707  1.00  0.00     0.177 C 
BRANCH  12  13
HETATM   13  S1  UNL     1      54.374 -20.096  -2.442  1.00  0.00    -0.160 SA
BRANCH  13  14
HETATM   14  C3  UNL     1      54.478 -21.722  -1.652  1.00  0.00     0.074 C 
BRANCH  14  15
HETATM   15  C2  UNL     1      53.754 -22.772  -2.498  1.00  0.00     0.006 C 
HETATM   16  C1  UNL     1      54.184 -24.159  -2.111  1.00  0.00     0.006 C 
ENDBRANCH  14  15
ENDBRANCH  13  14
ENDBRANCH  12  13
ENDBRANCH   1  12
TORSDOF 5
ENDMDL
MODEL 2
REMARK VINA RESULT: -6.527480579      1.858      2.417
REMARK  5 active torsions:
REMARK  status: ('A' for Active; 'I' for Inactive)
REMARK    1  A    between atoms: C2_2  and  C3_3 
REMARK    2  A    between atoms: C3_3  and  S1_4 
REMARK    3  A    between atoms: S1_4  and  C4_5 
REMARK    4  A    between atoms: C4_5  and  C5_6 
REMARK       I    between atoms: C5_6  and  N1_8 
REMARK    5  A    between atoms: N1_8  and  C6_10 
ROOT
HETATM    1  C5  UNL     1      55.861 -18.748  -1.458  1.00  0.00     0.232 C 
HETATM    2  O1  UNL     1      55.642 -18.971  -0.244  1.00  0.00    -0.272 OA
HETATM    3  N1  UNL     1      56.636 -17.707  -1.959  1.00  0.00    -0.305 N 
ATOM      4  H1  UNL     1      56.465 -17.432  -2.926  1.00  0.00     0.171 HD
ENDROOT
BRANCH   3   5
HETATM    5  C6  UNL     1      57.555 -17.050  -1.317  1.00  0.00     0.177 A 
HETATM    6  N2  UNL     1      58.885 -17.059  -1.408  1.00  0.00    -0.234 N 
HETATM    7  O2  UNL     1      59.554 -16.317  -0.656  1.00  0.00    -0.187 OA
ATOM      8  H2  UNL     1      59.352 -17.665  -2.083  1.00  0.00     0.197 HD
HETATM    9  C7  UNL     1      58.999 -15.543   0.204  1.00  0.00     0.351 A 
HETATM   10  O3  UNL     1      59.546 -14.732   1.037  1.00  0.00    -0.249 OA
HETATM   11  S2  UNL     1      57.343 -15.881  -0.054  1.00  0.00     0.019 SA
ENDBRANCH   3   5
BRANCH   1  12
HETATM   12  C4  UNL     1      55.229 -19.694  -2.437  1.00  0.00     0.177 C 
BRANCH  12  13
HETATM   13  S1  UNL     1      56.451 -20.252  -3.644  1.00  0.00    -0.160 SA
BRANCH  13  14
HETATM   14  C3  UNL     1      55.674 -20.404  -5.272  1.00  0.00     0.074 C 
BRANCH  14  15
HETATM   15  C2  UNL     1      54.166 -20.163  -5.165  1.00  0.00     0.006 C 
HETATM   16  C1  UNL     1      53.672 -19.345  -6.326  1.00  0.00     0.006 C 
ENDBRANCH  14  15
ENDBRANCH  13  14
ENDBRANCH  12  13
ENDBRANCH   1  12
TORSDOF 5
ENDMDL
MODEL 3
REMARK VINA RESULT: -6.470977353      1.427      1.930
REMARK  5 active torsions:
REMARK  status: ('A' for Active; 'I' for Inactive)
REMARK    1  A    between atoms: C2_2  and  C3_3 
REMARK    2  A    between atoms: C3_3  and  S1_4 
REMARK    3  A    between atoms: S1_4  and  C4_5 
REMARK    4  A    between atoms: C4_5  and  C5_6 
REMARK       I    between atoms: C5_6  and  N1_8 
REMARK    5  A    between atoms: N1_8  and  C6_10 
ROOT
HETATM    1  C5  UNL     1      56.440 -18.425  -1.625  1.00  0.00     0.232 C 
HETATM    2  O1  UNL     1      55.897 -18.635  -0.515  1.00  0.00    -0.272 OA
HETATM    3  N1  UNL     1      57.313 -17.380  -1.910  1.00  0.00    -0.305 N 
ATOM      4  H1  UNL     1      57.413 -17.120  -2.891  1.00  0.00     0.171 HD
ENDROOT
BRANCH   3   5
HETATM    5  C6  UNL     1      58.013 -16.701  -1.050  1.00  0.00     0.177 A 
HETATM    6  N2  UNL     1      59.323 -16.654  -0.807  1.00  0.00    -0.234 N 
HETATM    7  O2  UNL     1      59.750 -15.904   0.098  1.00  0.00    -0.187 OA
ATOM      8  H2  UNL     1      59.969 -17.224  -1.353  1.00  0.00     0.197 HD
HETATM    9  C7  UNL     1      58.964 -15.175   0.803  1.00  0.00     0.351 A 
HETATM   10  O3  UNL     1      59.250 -14.363   1.756  1.00  0.00    -0.249 OA
HETATM   11  S2  UNL     1      57.441 -15.573   0.135  1.00  0.00     0.019 SA
ENDBRANCH   3   5
BRANCH   1  12
HETATM   12  C4  UNL     1      56.111 -19.392  -2.724  1.00  0.00     0.177 C 
BRANCH  12  13
HETATM   13  S1  UNL     1      54.409 -19.970  -2.559  1.00  0.00    -0.160 SA
BRANCH  13  14
HETATM   14  C3  UNL     1      54.053 -21.193  -3.846  1.00  0.00     0.074 C 
BRANCH  14  15
HETATM   15  C2  UNL     1      54.534 -20.686  -5.208  1.00  0.00     0.006 C 
HETATM   16  C1  UNL     1      53.732 -19.493  -5.647  1.00  0.00     0.006 C 
ENDBRANCH  14  15
ENDBRANCH  13  14
ENDBRANCH  12  13
ENDBRANCH   1  12
TORSDOF 5
ENDMDL
MODEL 4
REMARK VINA RESULT: -6.189986887      4.952      7.639
REMARK  5 active torsions:
REMARK  status: ('A' for Active; 'I' for Inactive)
REMARK    1  A    between atoms: C2_2  and  C3_3 
REMARK    2  A    between atoms: C3_3  and  S1_4 
REMARK    3  A    between atoms: S1_4  and  C4_5 
REMARK    4  A    between atoms: C4_5  and  C5_6 
REMARK       I    between atoms: C5_6  and  N1_8 
REMARK    5  A    between atoms: N1_8  and  C6_10 
ROOT
HETATM    1  C5  UNL     1      54.716 -20.274  -4.174  1.00  0.00     0.232 C 
HETATM    2  O1  UNL     1      55.632 -21.087  -3.905  1.00  0.00    -0.272 OA
HETATM    3  N1  UNL     1      54.503 -19.681  -5.414  1.00  0.00    -0.305 N 
ATOM      4  H1  UNL     1      53.967 -18.813  -5.422  1.00  0.00     0.171 HD
ENDROOT
BRANCH   3   5
HETATM    5  C6  UNL     1      54.919 -20.122  -6.564  1.00  0.00     0.177 A 
HETATM    6  N2  UNL     1      55.776 -19.622  -7.453  1.00  0.00    -0.234 N 
HETATM    7  O2  UNL     1      56.005 -20.258  -8.505  1.00  0.00    -0.187 OA
ATOM      8  H2  UNL     1      56.240 -18.730  -7.277  1.00  0.00     0.197 HD
HETATM    9  C7  UNL     1      55.439 -21.382  -8.757  1.00  0.00     0.351 A 
HETATM   10  O3  UNL     1      55.572 -22.143  -9.783  1.00  0.00    -0.249 OA
HETATM   11  S2  UNL     1      54.465 -21.590  -7.367  1.00  0.00     0.019 SA
ENDBRANCH   3   5
BRANCH   1  12
HETATM   12  C4  UNL     1      53.781 -19.925  -3.053  1.00  0.00     0.177 C 
BRANCH  12  13
HETATM   13  S1  UNL     1      54.447 -20.509  -1.479  1.00  0.00    -0.160 SA
BRANCH  13  14
HETATM   14  C3  UNL     1      55.422 -19.194  -0.706  1.00  0.00     0.074 C 
BRANCH  14  15
HETATM   15  C2  UNL     1      56.260 -18.464  -1.759  1.00  0.00     0.006 C 
HETATM   16  C1  UNL     1      57.016 -17.321  -1.142  1.00  0.00     0.006 C 
ENDBRANCH  14  15
ENDBRANCH  13  14
ENDBRANCH  12  13
ENDBRANCH   1  12
TORSDOF 5
ENDMDL
MODEL 5
REMARK VINA RESULT: -6.151181954      7.321     10.625
REMARK  5 active torsions:
REMARK  status: ('A' for Active; 'I' for Inactive)
REMARK    1  A    between atoms: C2_2  and  C3_3 
REMARK    2  A    between atoms: C3_3  and  S1_4 
REMARK    3  A    between atoms: S1_4  and  C4_5 
REMARK    4  A    between atoms: C4_5  and  C5_6 
REMARK       I    between atoms: C5_6  and  N1_8 
REMARK    5  A    between atoms: N1_8  and  C6_10 
ROOT
HETATM    1  C5  UNL     1      53.524 -25.319  -0.105  1.00  0.00     0.232 C 
HETATM    2  O1  UNL     1      53.584 -25.492   1.135  1.00  0.00    -0.272 OA
HETATM    3  N1  UNL     1      52.647 -25.969  -0.968  1.00  0.00    -0.305 N 
ATOM      4  H1  UNL     1      52.914 -26.004  -1.951  1.00  0.00     0.171 HD
ENDROOT
BRANCH   3   5
HETATM    5  C6  UNL     1      51.523 -26.536  -0.645  1.00  0.00     0.177 A 
HETATM    6  N2  UNL     1      50.278 -26.065  -0.568  1.00  0.00    -0.234 N 
HETATM    7  O2  UNL     1      49.355 -26.835  -0.222  1.00  0.00    -0.187 OA
ATOM      8  H2  UNL     1      50.081 -25.089  -0.788  1.00  0.00     0.197 HD
HETATM    9  C7  UNL     1      49.569 -28.068   0.062  1.00  0.00     0.351 A 
HETATM   10  O3  UNL     1      48.732 -28.971   0.429  1.00  0.00    -0.249 OA
HETATM   11  S2  UNL     1      51.258 -28.184  -0.177  1.00  0.00     0.019 SA
ENDBRANCH   3   5
BRANCH   1  12
HETATM   12  C4  UNL     1      54.483 -24.324  -0.689  1.00  0.00     0.177 C 
BRANCH  12  13
HETATM   13  S1  UNL     1      53.802 -23.616  -2.205  1.00  0.00    -0.160 SA
BRANCH  13  14
HETATM   14  C3  UNL     1      54.600 -22.027  -2.546  1.00  0.00     0.074 C 
BRANCH  14  15
HETATM   15  C2  UNL     1      53.807 -20.885  -1.905  1.00  0.00     0.006 C 
HETATM   16  C1  UNL     1      54.574 -20.276  -0.765  1.00  0.00     0.006 C 
ENDBRANCH  14  15
ENDBRANCH  13  14
ENDBRANCH  12  13
ENDBRANCH   1  12
TORSDOF 5
ENDMDL
