MODEL 1
REMARK VINA RESULT: -4.783862512      0.000      0.000
REMARK  2 active torsions:
REMARK  status: ('A' for Active; 'I' for Inactive)
REMARK    1  A    between atoms: O1_2  and  C2_3 
REMARK    2  A    between atoms: C9_12  and  N1_13 
ROOT
HETATM    1  C2  UNL     1      -9.992  25.731  52.793  1.00  0.00     0.415 C 
HETATM    2  O2  UNL     1     -10.467  26.881  52.162  1.00  0.00    -0.315 OA
HETATM    3  C3  UNL     1     -11.799  27.021  52.621  1.00  0.00     0.259 C 
HETATM    4 CL1  UNL     1     -12.112  28.719  52.848  1.00  0.00    -0.092 Cl
HETATM    5  C4  UNL     1     -11.871  26.182  53.851  1.00  0.00     0.136 C 
HETATM    6  C5  UNL     1     -12.622  24.911  53.587  1.00  0.00     0.044 C 
HETATM    7  C6  UNL     1     -14.097  25.006  53.731  1.00  0.00     0.003 C 
HETATM    8  C7  UNL     1     -14.638  26.379  53.955  1.00  0.00     0.002 C 
HETATM    9  C8  UNL     1     -13.901  27.120  55.014  1.00  0.00     0.039 C 
HETATM   10  C9  UNL     1     -12.421  26.865  55.056  1.00  0.00     0.260 C 
HETATM   11  O3  UNL     1     -10.548  25.825  54.084  1.00  0.00    -0.322 OA
ENDROOT
BRANCH  10  12
HETATM   12  N1  UNL     1     -11.768  28.078  55.420  1.00  0.00     0.087 N 
HETATM   13  C10 UNL     1     -10.621  27.958  56.258  1.00  0.00     0.310 C 
HETATM   14  C11 UNL     1     -12.712  28.985  56.040  1.00  0.00     0.310 C 
ENDBRANCH  10  12
BRANCH   1  15
HETATM   15  O1  UNL     1      -8.613  25.807  52.817  1.00  0.00    -0.344 OA
HETATM   16  C1  UNL     1      -8.149  26.828  53.677  1.00  0.00     0.207 C 
ENDBRANCH   1  15
TORSDOF 2
ENDMDL
MODEL 2
REMARK VINA RESULT: -4.776377503      1.849      3.912
REMARK  2 active torsions:
REMARK  status: ('A' for Active; 'I' for Inactive)
REMARK    1  A    between atoms: O1_2  and  C2_3 
REMARK    2  A    between atoms: C9_12  and  N1_13 
ROOT
HETATM    1  C2  UNL     1     -13.378  25.556  53.039  1.00  0.00     0.415 C 
HETATM    2  O2  UNL     1     -13.032  26.591  52.171  1.00  0.00    -0.315 OA
HETATM    3  C3  UNL     1     -12.230  27.461  52.947  1.00  0.00     0.259 C 
HETATM    4 CL1  UNL     1     -10.956  28.071  51.928  1.00  0.00    -0.092 Cl
HETATM    5  C4  UNL     1     -11.788  26.641  54.110  1.00  0.00     0.136 C 
HETATM    6  C5  UNL     1     -12.535  27.026  55.351  1.00  0.00     0.044 C 
HETATM    7  C6  UNL     1     -11.957  28.164  56.110  1.00  0.00     0.003 C 
HETATM    8  C7  UNL     1     -10.816  28.868  55.453  1.00  0.00     0.002 C 
HETATM    9  C8  UNL     1      -9.784  27.928  54.936  1.00  0.00     0.039 C 
HETATM   10  C9  UNL     1     -10.320  26.643  54.370  1.00  0.00     0.260 C 
HETATM   11  O3  UNL     1     -12.196  25.354  53.780  1.00  0.00    -0.322 OA
ENDROOT
BRANCH  10  12
HETATM   12  N1  UNL     1      -9.505  26.267  53.264  1.00  0.00     0.087 N 
HETATM   13  C10 UNL     1      -9.514  24.888  52.905  1.00  0.00     0.310 C 
HETATM   14  C11 UNL     1      -8.137  26.689  53.488  1.00  0.00     0.310 C 
ENDBRANCH  10  12
BRANCH   1  15
HETATM   15  O1  UNL     1     -13.702  24.455  52.270  1.00  0.00    -0.344 OA
HETATM   16  C1  UNL     1     -14.435  23.491  53.000  1.00  0.00     0.207 C 
ENDBRANCH   1  15
TORSDOF 2
ENDMDL
MODEL 3
REMARK VINA RESULT: -4.687572688      3.383      5.206
REMARK  2 active torsions:
REMARK  status: ('A' for Active; 'I' for Inactive)
REMARK    1  A    between atoms: O1_2  and  C2_3 
REMARK    2  A    between atoms: C9_12  and  N1_13 
ROOT
HETATM    1  C2  UNL     1     -14.748  22.835  54.200  1.00  0.00     0.415 C 
HETATM    2  O2  UNL     1     -15.036  23.667  55.282  1.00  0.00    -0.315 OA
HETATM    3  C3  UNL     1     -14.271  24.836  55.053  1.00  0.00     0.259 C 
HETATM    4 CL1  UNL     1     -15.221  26.207  55.556  1.00  0.00    -0.092 Cl
HETATM    5  C4  UNL     1     -13.922  24.790  53.605  1.00  0.00     0.136 C 
HETATM    6  C5  UNL     1     -12.485  24.410  53.413  1.00  0.00     0.044 C 
HETATM    7  C6  UNL     1     -11.520  25.537  53.468  1.00  0.00     0.003 C 
HETATM    8  C7  UNL     1     -12.089  26.858  53.867  1.00  0.00     0.002 C 
HETATM    9  C8  UNL     1     -13.334  27.193  53.123  1.00  0.00     0.039 C 
HETATM   10  C9  UNL     1     -14.236  26.026  52.834  1.00  0.00     0.260 C 
HETATM   11  O3  UNL     1     -14.684  23.735  53.116  1.00  0.00    -0.322 OA
ENDROOT
BRANCH  10  12
HETATM   12  N1  UNL     1     -15.587  26.472  52.921  1.00  0.00     0.087 N 
HETATM   13  C10 UNL     1     -16.505  25.909  51.988  1.00  0.00     0.310 C 
HETATM   14  C11 UNL     1     -15.641  27.916  52.824  1.00  0.00     0.310 C 
ENDBRANCH  10  12
BRANCH   1  15
HETATM   15  O1  UNL     1     -15.792  21.941  54.070  1.00  0.00    -0.344 OA
HETATM   16  C1  UNL     1     -16.927  22.530  53.466  1.00  0.00     0.207 C 
ENDBRANCH   1  15
TORSDOF 2
ENDMDL
MODEL 4
REMARK VINA RESULT: -4.579735417      2.336      3.211
REMARK  2 active torsions:
REMARK  status: ('A' for Active; 'I' for Inactive)
REMARK    1  A    between atoms: O1_2  and  C2_3 
REMARK    2  A    between atoms: C9_12  and  N1_13 
ROOT
HETATM    1  C2  UNL     1      -7.468  28.979  53.842  1.00  0.00     0.415 C 
HETATM    2  O2  UNL     1      -8.464  29.647  53.129  1.00  0.00    -0.315 OA
HETATM    3  C3  UNL     1      -9.547  28.738  53.083  1.00  0.00     0.259 C 
HETATM    4 CL1  UNL     1     -11.022  29.650  53.250  1.00  0.00    -0.092 Cl
HETATM    5  C4  UNL     1      -9.271  27.755  54.168  1.00  0.00     0.136 C 
HETATM    6  C5  UNL     1      -8.798  26.451  53.601  1.00  0.00     0.044 C 
HETATM    7  C6  UNL     1      -9.873  25.505  53.207  1.00  0.00     0.003 C 
HETATM    8  C7  UNL     1     -11.264  26.042  53.276  1.00  0.00     0.002 C 
HETATM    9  C8  UNL     1     -11.546  26.742  54.558  1.00  0.00     0.039 C 
HETATM   10  C9  UNL     1     -10.394  27.526  55.121  1.00  0.00     0.260 C 
HETATM   11  O3  UNL     1      -8.194  28.310  54.849  1.00  0.00    -0.322 OA
ENDROOT
BRANCH  10  12
HETATM   12  N1  UNL     1     -10.913  28.698  55.745  1.00  0.00     0.087 N 
HETATM   13  C10 UNL     1     -10.272  29.117  56.947  1.00  0.00     0.310 C 
HETATM   14  C11 UNL     1     -12.331  28.542  55.995  1.00  0.00     0.310 C 
ENDBRANCH  10  12
BRANCH   1  15
HETATM   15  O1  UNL     1      -6.616  29.932  54.364  1.00  0.00    -0.344 OA
HETATM   16  C1  UNL     1      -5.391  29.995  53.662  1.00  0.00     0.207 C 
ENDBRANCH   1  15
TORSDOF 2
ENDMDL
MODEL 5
REMARK VINA RESULT: -4.459760312      1.974      3.455
REMARK  2 active torsions:
REMARK  status: ('A' for Active; 'I' for Inactive)
REMARK    1  A    between atoms: O1_2  and  C2_3 
REMARK    2  A    between atoms: C9_12  and  N1_13 
ROOT
HETATM    1  C2  UNL     1     -11.193  25.639  53.547  1.00  0.00     0.415 C 
HETATM    2  O2  UNL     1     -11.445  26.616  52.584  1.00  0.00    -0.315 OA
HETATM    3  C3  UNL     1     -11.337  27.844  53.279  1.00  0.00     0.259 C 
HETATM    4 CL1  UNL     1     -10.579  28.997  52.216  1.00  0.00    -0.092 Cl
HETATM    5  C4  UNL     1     -10.582  27.518  54.521  1.00  0.00     0.136 C 
HETATM    6  C5  UNL     1     -11.494  27.496  55.711  1.00  0.00     0.044 C 
HETATM    7  C6  UNL     1     -11.721  28.812  56.359  1.00  0.00     0.003 C 
HETATM    8  C7  UNL     1     -11.148  29.992  55.646  1.00  0.00     0.002 C 
HETATM    9  C8  UNL     1      -9.733  29.782  55.235  1.00  0.00     0.039 C 
HETATM   10  C9  UNL     1      -9.400  28.384  54.794  1.00  0.00     0.260 C 
HETATM   11  O3  UNL     1     -10.159  26.210  54.315  1.00  0.00    -0.322 OA
ENDROOT
BRANCH  10  12
HETATM   12  N1  UNL     1      -8.447  28.465  53.737  1.00  0.00     0.087 N 
HETATM   13  C10 UNL     1      -7.522  27.386  53.631  1.00  0.00     0.310 C 
HETATM   14  C11 UNL     1      -7.712  29.710  53.824  1.00  0.00     0.310 C 
ENDBRANCH  10  12
BRANCH   1  15
HETATM   15  O1  UNL     1     -10.778  24.498  52.888  1.00  0.00    -0.344 OA
HETATM   16  C1  UNL     1      -9.424  24.574  52.490  1.00  0.00     0.207 C 
ENDBRANCH   1  15
TORSDOF 2
ENDMDL
