MODEL 1
REMARK VINA RESULT: -7.193771208      0.000      0.000
REMARK  2 active torsions:
REMARK  status: ('A' for Active; 'I' for Inactive)
REMARK    1  A    between atoms: O1_2  and  C2_3 
REMARK    2  A    between atoms: C8_12  and  N2_13 
ROOT
HETATM    1  C2  UNL     1     -11.701  19.717  63.550  1.00  0.00     0.072 A 
HETATM    2  C3  UNL     1     -12.956  20.261  63.353  1.00  0.00     0.081 A 
HETATM    3  C4  UNL     1     -13.366  20.475  62.057  1.00  0.00     0.146 A 
HETATM    4  F1  UNL     1     -14.590  21.010  61.784  1.00  0.00    -0.204 F 
HETATM    5  C5  UNL     1     -12.571  20.167  60.952  1.00  0.00     0.086 A 
HETATM    6  N1  UNL     1     -13.036  20.405  59.705  1.00  0.00    -0.354 N 
ATOM      7  H1  UNL     1     -13.961  20.808  59.556  1.00  0.00     0.166 HD
HETATM    8  C6  UNL     1     -12.237  20.092  58.662  1.00  0.00     0.043 A 
HETATM    9  C7  UNL     1     -12.699  20.340  57.285  1.00  0.00     0.071 C 
HETATM   10  C8  UNL     1     -10.990  19.550  58.872  1.00  0.00     0.175 A 
HETATM   11  C9  UNL     1     -10.501  19.300  60.142  1.00  0.00     0.219 A 
HETATM   12  O4  UNL     1      -9.370  18.808  60.308  1.00  0.00    -0.285 OA
HETATM   13  C10 UNL     1     -11.339  19.629  61.211  1.00  0.00     0.049 A 
HETATM   14  C11 UNL     1     -10.873  19.392  62.494  1.00  0.00     0.054 A 
ENDROOT
BRANCH  10  15
HETATM   15  N2  UNL     1     -10.187  19.233  57.752  1.00  0.00    -0.110 N 
HETATM   16  O2  UNL     1     -10.256  18.116  57.241  1.00  0.00    -0.532 OA
HETATM   17  O3  UNL     1      -9.340  20.165  57.229  1.00  0.00    -0.532 OA
ENDBRANCH  10  15
BRANCH   1  18
HETATM   18  O1  UNL     1     -11.293  19.507  64.850  1.00  0.00    -0.356 OA
HETATM   19  C1  UNL     1     -12.188  19.601  65.933  1.00  0.00     0.210 C 
ENDBRANCH   1  18
TORSDOF 2
ENDMDL
MODEL 2
REMARK VINA RESULT: -5.978667234      9.517     10.628
REMARK  2 active torsions:
REMARK  status: ('A' for Active; 'I' for Inactive)
REMARK    1  A    between atoms: O1_2  and  C2_3 
REMARK    2  A    between atoms: C8_12  and  N2_13 
ROOT
HETATM    1  C2  UNL     1      -8.885  27.725  54.311  1.00  0.00     0.072 A 
HETATM    2  C3  UNL     1      -8.458  26.668  53.530  1.00  0.00     0.081 A 
HETATM    3  C4  UNL     1      -9.389  25.724  53.164  1.00  0.00     0.146 A 
HETATM    4  F1  UNL     1      -9.042  24.652  52.395  1.00  0.00    -0.204 F 
HETATM    5  C5  UNL     1     -10.730  25.795  53.548  1.00  0.00     0.086 A 
HETATM    6  N1  UNL     1     -11.591  24.831  53.153  1.00  0.00    -0.354 N 
ATOM      7  H1  UNL     1     -11.279  24.049  52.578  1.00  0.00     0.166 HD
HETATM    8  C6  UNL     1     -12.880  24.936  53.544  1.00  0.00     0.043 A 
HETATM    9  C7  UNL     1     -13.854  23.906  53.144  1.00  0.00     0.071 C 
HETATM   10  C8  UNL     1     -13.293  25.995  54.322  1.00  0.00     0.175 A 
HETATM   11  C9  UNL     1     -12.422  26.988  54.733  1.00  0.00     0.219 A 
HETATM   12  O4  UNL     1     -12.818  27.937  55.434  1.00  0.00    -0.285 OA
HETATM   13  C10 UNL     1     -11.092  26.866  54.320  1.00  0.00     0.049 A 
HETATM   14  C11 UNL     1     -10.199  27.846  54.719  1.00  0.00     0.054 A 
ENDROOT
BRANCH  10  15
HETATM   15  N2  UNL     1     -14.651  26.069  54.706  1.00  0.00    -0.110 N 
HETATM   16  O2  UNL     1     -15.024  25.543  55.754  1.00  0.00    -0.532 OA
HETATM   17  O3  UNL     1     -15.551  26.732  53.925  1.00  0.00    -0.532 OA
ENDBRANCH  10  15
BRANCH   1  18
HETATM   18  O1  UNL     1      -7.948  28.667  54.679  1.00  0.00    -0.356 OA
HETATM   19  C1  UNL     1      -7.195  29.377  53.725  1.00  0.00     0.210 C 
ENDBRANCH   1  18
TORSDOF 2
ENDMDL
MODEL 3
REMARK VINA RESULT: -5.613642103      9.047      9.726
REMARK  2 active torsions:
REMARK  status: ('A' for Active; 'I' for Inactive)
REMARK    1  A    between atoms: O1_2  and  C2_3 
REMARK    2  A    between atoms: C8_12  and  N2_13 
ROOT
HETATM    1  C2  UNL     1     -14.283  24.409  53.870  1.00  0.00     0.072 A 
HETATM    2  C3  UNL     1     -14.814  25.086  54.951  1.00  0.00     0.081 A 
HETATM    3  C4  UNL     1     -14.041  26.059  55.541  1.00  0.00     0.146 A 
HETATM    4  F1  UNL     1     -14.497  26.768  56.613  1.00  0.00    -0.204 F 
HETATM    5  C5  UNL     1     -12.759  26.382  55.093  1.00  0.00     0.086 A 
HETATM    6  N1  UNL     1     -12.053  27.349  55.721  1.00  0.00    -0.354 N 
ATOM      7  H1  UNL     1     -12.442  27.849  56.520  1.00  0.00     0.166 HD
HETATM    8  C6  UNL     1     -10.817  27.632  55.256  1.00  0.00     0.043 A 
HETATM    9  C7  UNL     1     -10.008  28.673  55.912  1.00  0.00     0.071 C 
HETATM   10  C8  UNL     1     -10.300  26.951  54.178  1.00  0.00     0.175 A 
HETATM   11  C9  UNL     1     -11.011  25.959  53.525  1.00  0.00     0.219 A 
HETATM   12  O4  UNL     1     -10.523  25.357  52.551  1.00  0.00    -0.285 OA
HETATM   13  C10 UNL     1     -12.288  25.677  54.017  1.00  0.00     0.049 A 
HETATM   14  C11 UNL     1     -13.020  24.687  53.384  1.00  0.00     0.054 A 
ENDROOT
BRANCH  10  15
HETATM   15  N2  UNL     1      -9.003  27.280  53.721  1.00  0.00    -0.110 N 
HETATM   16  O2  UNL     1      -8.034  26.618  54.089  1.00  0.00    -0.532 OA
HETATM   17  O3  UNL     1      -8.822  28.325  52.864  1.00  0.00    -0.532 OA
ENDBRANCH  10  15
BRANCH   1  18
HETATM   18  O1  UNL     1     -15.060  23.432  53.284  1.00  0.00    -0.356 OA
HETATM   19  C1  UNL     1     -16.100  22.793  53.984  1.00  0.00     0.210 C 
ENDBRANCH   1  18
TORSDOF 2
ENDMDL
MODEL 4
REMARK VINA RESULT: -5.571860867      9.535     10.761
REMARK  2 active torsions:
REMARK  status: ('A' for Active; 'I' for Inactive)
REMARK    1  A    between atoms: O1_2  and  C2_3 
REMARK    2  A    between atoms: C8_12  and  N2_13 
ROOT
HETATM    1  C2  UNL     1      -7.925  27.513  53.675  1.00  0.00     0.072 A 
HETATM    2  C3  UNL     1      -8.439  28.677  54.214  1.00  0.00     0.081 A 
HETATM    3  C4  UNL     1      -9.791  28.729  54.457  1.00  0.00     0.146 A 
HETATM    4  F1  UNL     1     -10.371  29.844  54.986  1.00  0.00    -0.204 F 
HETATM    5  C5  UNL     1     -10.651  27.663  54.181  1.00  0.00     0.086 A 
HETATM    6  N1  UNL     1     -11.972  27.783  54.443  1.00  0.00    -0.354 N 
ATOM      7  H1  UNL     1     -12.354  28.641  54.840  1.00  0.00     0.166 HD
HETATM    8  C6  UNL     1     -12.769  26.730  54.164  1.00  0.00     0.043 A 
HETATM    9  C7  UNL     1     -14.216  26.816  54.426  1.00  0.00     0.071 C 
HETATM   10  C8  UNL     1     -12.245  25.575  53.627  1.00  0.00     0.175 A 
HETATM   11  C9  UNL     1     -10.895  25.439  53.354  1.00  0.00     0.219 A 
HETATM   12  O4  UNL     1     -10.443  24.385  52.870  1.00  0.00    -0.285 OA
HETATM   13  C10 UNL     1     -10.082  26.537  53.649  1.00  0.00     0.049 A 
HETATM   14  C11 UNL     1      -8.728  26.428  53.383  1.00  0.00     0.054 A 
ENDROOT
BRANCH  10  15
HETATM   15  N2  UNL     1     -13.114  24.495  53.353  1.00  0.00    -0.110 N 
HETATM   16  O2  UNL     1     -13.399  23.692  54.241  1.00  0.00    -0.532 OA
HETATM   17  O3  UNL     1     -13.647  24.341  52.107  1.00  0.00    -0.532 OA
ENDBRANCH  10  15
BRANCH   1  18
HETATM   18  O1  UNL     1      -6.569  27.467  53.430  1.00  0.00    -0.356 OA
HETATM   19  C1  UNL     1      -5.833  28.624  53.112  1.00  0.00     0.210 C 
ENDBRANCH   1  18
TORSDOF 2
ENDMDL
MODEL 5
REMARK VINA RESULT: -5.390775585      9.323      9.973
REMARK  2 active torsions:
REMARK  status: ('A' for Active; 'I' for Inactive)
REMARK    1  A    between atoms: O1_2  and  C2_3 
REMARK    2  A    between atoms: C8_12  and  N2_13 
ROOT
HETATM    1  C2  UNL     1     -14.925  23.751  53.538  1.00  0.00     0.072 A 
HETATM    2  C3  UNL     1     -15.797  24.751  53.924  1.00  0.00     0.081 A 
HETATM    3  C4  UNL     1     -15.271  25.996  54.182  1.00  0.00     0.146 A 
HETATM    4  F1  UNL     1     -16.069  27.032  54.569  1.00  0.00    -0.204 F 
HETATM    5  C5  UNL     1     -13.909  26.279  54.071  1.00  0.00     0.086 A 
HETATM    6  N1  UNL     1     -13.459  27.525  54.343  1.00  0.00    -0.354 N 
ATOM      7  H1  UNL     1     -14.100  28.265  54.629  1.00  0.00     0.166 HD
HETATM    8  C6  UNL     1     -12.135  27.760  54.222  1.00  0.00     0.043 A 
HETATM    9  C7  UNL     1     -11.598  29.100  54.513  1.00  0.00     0.071 C 
HETATM   10  C8  UNL     1     -11.277  26.755  53.837  1.00  0.00     0.175 A 
HETATM   11  C9  UNL     1     -11.723  25.475  53.556  1.00  0.00     0.219 A 
HETATM   12  O4  UNL     1     -10.929  24.582  53.207  1.00  0.00    -0.285 OA
HETATM   13  C10 UNL     1     -13.096  25.248  53.684  1.00  0.00     0.049 A 
HETATM   14  C11 UNL     1     -13.569  23.975  53.412  1.00  0.00     0.054 A 
ENDROOT
BRANCH  10  15
HETATM   15  N2  UNL     1      -9.898  27.042  53.719  1.00  0.00    -0.110 N 
HETATM   16  O2  UNL     1      -9.451  27.493  52.665  1.00  0.00    -0.532 OA
HETATM   17  O3  UNL     1      -9.060  26.831  54.774  1.00  0.00    -0.532 OA
ENDBRANCH  10  15
BRANCH   1  18
HETATM   18  O1  UNL     1     -15.456  22.504  53.284  1.00  0.00    -0.356 OA
HETATM   19  C1  UNL     1     -16.822  22.225  53.481  1.00  0.00     0.210 C 
ENDBRANCH   1  18
TORSDOF 2
ENDMDL
