MODEL 1
REMARK VINA RESULT: -7.903245533      0.000      0.000
REMARK  12 active torsions:
REMARK  status: ('A' for Active; 'I' for Inactive)
REMARK    1  A    between atoms: N1_1  and  C1_5 
REMARK    2  A    between atoms: N2_9  and  C5_10 
REMARK    3  A    between atoms: C6_13  and  N4_14 
REMARK    4  A    between atoms: C10_18  and  C11_19 
REMARK    5  A    between atoms: C11_19  and  O1_20 
REMARK    6  A    between atoms: C13_27  and  C14_28 
REMARK    7  A    between atoms: C14_28  and  O2_29 
REMARK    8  A    between atoms: C14_28  and  C15_31 
REMARK    9  A    between atoms: C15_31  and  O3_32 
REMARK   10  A    between atoms: C15_31  and  N7_34 
REMARK   11  A    between atoms: N7_34  and  C16_37 
REMARK   12  A    between atoms: C18_39  and  N8_40 
ROOT
HETATM    1  C5  UNL     1      26.996  19.081 -33.508  1.00  0.00     0.731 A 
HETATM    2  N3  UNL     1      25.746  19.565 -33.610  1.00  0.00    -0.019 N 
ATOM      3  H3  UNL     1      25.457  20.291 -32.954  1.00  0.00     0.203 HD
HETATM    4  C6  UNL     1      24.858  19.152 -34.522  1.00  0.00     0.710 A 
HETATM    5  N5  UNL     1      25.301  18.180 -35.372  1.00  0.00    -0.019 N 
ATOM      6  H5  UNL     1      24.663  17.830 -36.086  1.00  0.00     0.203 HD
HETATM    7  C12 UNL     1      26.540  17.664 -35.312  1.00  0.00     0.734 A 
HETATM    8  N6  UNL     1      27.223  16.726 -36.009  1.00  0.00    -0.173 N 
ATOM      9  H6  UNL     1      26.844  16.194 -36.792  1.00  0.00     0.185 HD
HETATM   10  C13 UNL     1      28.462  16.593 -35.529  1.00  0.00     0.146 A 
HETATM   11  N9  UNL     1      28.540  17.472 -34.510  1.00  0.00    -0.250 N 
ATOM     12  H9  UNL     1      29.364  17.618 -33.927  1.00  0.00     0.190 HD
HETATM   13  N10 UNL     1      27.396  18.114 -34.377  1.00  0.00     0.092 N 
ENDROOT
BRANCH  10  14
HETATM   14  C14 UNL     1      29.580  15.680 -35.963  1.00  0.00     0.243 C 
BRANCH  14  15
HETATM   15  O2  UNL     1      29.222  15.140 -37.227  1.00  0.00    -0.383 OA
ATOM     16  H2  UNL     1      29.947  14.601 -37.521  1.00  0.00     0.210 HD
ENDBRANCH  14  15
BRANCH  14  17
HETATM   17  C15 UNL     1      29.665  14.516 -35.011  1.00  0.00     0.355 C 
BRANCH  17  18
HETATM   18  O3  UNL     1      28.423  14.361 -34.394  1.00  0.00    -0.367 OA
ATOM     19  H3  UNL     1      28.567  14.154 -33.478  1.00  0.00     0.212 HD
ENDBRANCH  17  18
BRANCH  17  20
HETATM   20  N7  UNL     1      30.685  14.762 -34.027  1.00  0.00    -0.040 N 
ATOM     21  H72 UNL     1      30.858  15.757 -33.887  1.00  0.00     0.280 HD
ATOM     22  H71 UNL     1      30.374  14.537 -33.082  1.00  0.00     0.280 HD
BRANCH  20  23
HETATM   23  C16 UNL     1      31.884  14.040 -34.400  1.00  0.00     0.221 A 
HETATM   24  C17 UNL     1      32.572  13.195 -33.391  1.00  0.00     0.070 A 
HETATM   25  C18 UNL     1      31.728  12.557 -34.498  1.00  0.00     0.216 A 
BRANCH  25  26
HETATM   26  N8  UNL     1      32.475  11.882 -35.556  1.00  0.00    -0.073 N 
ATOM     27  H83 UNL     1      32.162  12.223 -36.465  1.00  0.00     0.274 HD
ATOM     28  H82 UNL     1      33.441  12.211 -35.554  1.00  0.00     0.274 HD
ATOM     29  H81 UNL     1      32.463  10.863 -35.552  1.00  0.00     0.274 HD
ENDBRANCH  25  26
ENDBRANCH  20  23
ENDBRANCH  17  20
ENDBRANCH  14  17
ENDBRANCH  10  14
BRANCH   1  30
HETATM   30  N2  UNL     1      27.925  19.517 -32.523  1.00  0.00    -0.213 N 
HETATM   31  C4  UNL     1      27.593  19.284 -31.108  1.00  0.00     0.141 C 
HETATM   32  C3  UNL     1      28.837  18.675 -30.495  1.00  0.00     0.022 C 
HETATM   33  C2  UNL     1      29.860  19.815 -30.471  1.00  0.00     0.036 C 
HETATM   34  C1  UNL     1      30.220  20.194 -31.860  1.00  0.00     0.202 C 
HETATM   35  C19 UNL     1      29.151  20.172 -32.880  1.00  0.00     0.173 C 
BRANCH  34  36
HETATM   36  N1  UNL     1      31.425  19.453 -32.261  1.00  0.00    -0.073 N 
ATOM     37  H13 UNL     1      32.237  19.695 -31.693  1.00  0.00     0.274 HD
ATOM     38  H12 UNL     1      31.371  18.464 -32.018  1.00  0.00     0.274 HD
ATOM     39  H11 UNL     1      31.589  19.601 -33.256  1.00  0.00     0.274 HD
ENDBRANCH  34  36
ENDBRANCH   1  30
BRANCH   4  40
HETATM   40  N4  UNL     1      23.544  19.661 -34.638  1.00  0.00    -0.210 N 
HETATM   41  C7  UNL     1      22.373  18.774 -34.740  1.00  0.00     0.142 C 
HETATM   42  C8  UNL     1      21.163  19.640 -34.801  1.00  0.00     0.022 C 
HETATM   43  C9  UNL     1      21.728  20.908 -35.418  1.00  0.00     0.029 C 
HETATM   44  C10 UNL     1      23.065  20.993 -34.680  1.00  0.00     0.125 C 
BRANCH  44  45
HETATM   45  C11 UNL     1      23.902  21.957 -35.469  1.00  0.00     0.190 C 
BRANCH  45  46
HETATM   46  O1  UNL     1      24.943  22.505 -34.745  1.00  0.00    -0.399 OA
ATOM     47  H1  UNL     1      25.575  22.971 -35.280  1.00  0.00     0.209 HD
ENDBRANCH  45  46
ENDBRANCH  44  45
ENDBRANCH   4  40
TORSDOF 12
ENDMDL
MODEL 2
REMARK VINA RESULT: -7.798952667      3.472      5.680
REMARK  12 active torsions:
REMARK  status: ('A' for Active; 'I' for Inactive)
REMARK    1  A    between atoms: N1_1  and  C1_5 
REMARK    2  A    between atoms: N2_9  and  C5_10 
REMARK    3  A    between atoms: C6_13  and  N4_14 
REMARK    4  A    between atoms: C10_18  and  C11_19 
REMARK    5  A    between atoms: C11_19  and  O1_20 
REMARK    6  A    between atoms: C13_27  and  C14_28 
REMARK    7  A    between atoms: C14_28  and  O2_29 
REMARK    8  A    between atoms: C14_28  and  C15_31 
REMARK    9  A    between atoms: C15_31  and  O3_32 
REMARK   10  A    between atoms: C15_31  and  N7_34 
REMARK   11  A    between atoms: N7_34  and  C16_37 
REMARK   12  A    between atoms: C18_39  and  N8_40 
ROOT
HETATM    1  C5  UNL     1      30.601  17.763 -35.604  1.00  0.00     0.731 A 
HETATM    2  N3  UNL     1      29.710  18.438 -34.857  1.00  0.00    -0.019 N 
ATOM      3  H3  UNL     1      29.452  19.381 -35.153  1.00  0.00     0.203 HD
HETATM    4  C6  UNL     1      29.141  17.949 -33.750  1.00  0.00     0.710 A 
HETATM    5  N5  UNL     1      29.524  16.685 -33.405  1.00  0.00    -0.019 N 
ATOM      6  H5  UNL     1      29.119  16.265 -32.568  1.00  0.00     0.203 HD
HETATM    7  C12 UNL     1      30.409  15.968 -34.117  1.00  0.00     0.734 A 
HETATM    8  N6  UNL     1      30.950  14.732 -34.010  1.00  0.00    -0.173 N 
ATOM      9  H6  UNL     1      30.736  14.067 -33.266  1.00  0.00     0.185 HD
HETATM   10  C13 UNL     1      31.800  14.501 -35.013  1.00  0.00     0.146 A 
HETATM   11  N9  UNL     1      31.783  15.628 -35.754  1.00  0.00    -0.250 N 
ATOM     12  H9  UNL     1      32.330  15.778 -36.600  1.00  0.00     0.190 HD
HETATM   13  N10 UNL     1      30.953  16.506 -35.223  1.00  0.00     0.092 N 
ENDROOT
BRANCH  10  14
HETATM   14  C14 UNL     1      32.641  13.288 -35.316  1.00  0.00     0.243 C 
BRANCH  14  15
HETATM   15  O2  UNL     1      31.753  12.206 -35.562  1.00  0.00    -0.383 OA
ATOM     16  H2  UNL     1      31.664  11.722 -34.749  1.00  0.00     0.210 HD
ENDBRANCH  14  15
BRANCH  14  17
HETATM   17  C15 UNL     1      33.434  12.918 -34.090  1.00  0.00     0.355 C 
BRANCH  17  18
HETATM   18  O3  UNL     1      32.551  12.436 -33.123  1.00  0.00    -0.367 OA
ATOM     19  H3  UNL     1      31.742  12.932 -33.182  1.00  0.00     0.212 HD
ENDBRANCH  17  18
BRANCH  17  20
HETATM   20  N7  UNL     1      34.135  14.072 -33.595  1.00  0.00    -0.040 N 
ATOM     21  H72 UNL     1      33.727  14.946 -33.925  1.00  0.00     0.280 HD
ATOM     22  H71 UNL     1      33.989  14.215 -32.595  1.00  0.00     0.280 HD
BRANCH  20  23
HETATM   23  C16 UNL     1      35.538  13.953 -33.937  1.00  0.00     0.221 A 
HETATM   24  C17 UNL     1      36.278  15.151 -34.411  1.00  0.00     0.070 A 
HETATM   25  C18 UNL     1      36.482  14.620 -32.989  1.00  0.00     0.216 A 
BRANCH  25  26
HETATM   26  N8  UNL     1      37.753  13.946 -32.740  1.00  0.00    -0.073 N 
ATOM     27  H83 UNL     1      37.580  12.971 -32.496  1.00  0.00     0.274 HD
ATOM     28  H82 UNL     1      38.257  13.833 -33.620  1.00  0.00     0.274 HD
ATOM     29  H81 UNL     1      38.370  14.367 -32.046  1.00  0.00     0.274 HD
ENDBRANCH  25  26
ENDBRANCH  20  23
ENDBRANCH  17  20
ENDBRANCH  14  17
ENDBRANCH  10  14
BRANCH   1  30
HETATM   30  N2  UNL     1      31.212  18.302 -36.770  1.00  0.00    -0.213 N 
HETATM   31  C4  UNL     1      32.270  19.309 -36.594  1.00  0.00     0.141 C 
HETATM   32  C3  UNL     1      33.410  18.860 -37.486  1.00  0.00     0.022 C 
HETATM   33  C2  UNL     1      32.899  19.080 -38.913  1.00  0.00     0.036 C 
HETATM   34  C1  UNL     1      31.766  18.161 -39.186  1.00  0.00     0.202 C 
HETATM   35  C19 UNL     1      30.815  17.892 -38.087  1.00  0.00     0.173 C 
BRANCH  34  36
HETATM   36  N1  UNL     1      32.282  16.941 -39.823  1.00  0.00    -0.073 N 
ATOM     37  H13 UNL     1      31.872  16.779 -40.743  1.00  0.00     0.274 HD
ATOM     38  H12 UNL     1      33.255  17.037 -40.115  1.00  0.00     0.274 HD
ATOM     39  H11 UNL     1      32.142  16.153 -39.192  1.00  0.00     0.274 HD
ENDBRANCH  34  36
ENDBRANCH   1  30
BRANCH   4  40
HETATM   40  N4  UNL     1      28.200  18.653 -32.963  1.00  0.00    -0.210 N 
HETATM   41  C7  UNL     1      26.921  19.127 -33.519  1.00  0.00     0.142 C 
HETATM   42  C8  UNL     1      26.170  19.779 -32.411  1.00  0.00     0.022 C 
HETATM   43  C9  UNL     1      27.301  20.249 -31.512  1.00  0.00     0.029 C 
HETATM   44  C10 UNL     1      28.234  19.041 -31.601  1.00  0.00     0.125 C 
BRANCH  44  45
HETATM   45  C11 UNL     1      29.564  19.518 -31.097  1.00  0.00     0.190 C 
BRANCH  45  46
HETATM   46  O1  UNL     1      29.840  19.121 -29.804  1.00  0.00    -0.399 OA
ATOM     47  H1  UNL     1      29.913  18.179 -29.703  1.00  0.00     0.209 HD
ENDBRANCH  45  46
ENDBRANCH  44  45
ENDBRANCH   4  40
TORSDOF 12
ENDMDL
MODEL 3
REMARK VINA RESULT: -7.645514828      3.286      5.318
REMARK  12 active torsions:
REMARK  status: ('A' for Active; 'I' for Inactive)
REMARK    1  A    between atoms: N1_1  and  C1_5 
REMARK    2  A    between atoms: N2_9  and  C5_10 
REMARK    3  A    between atoms: C6_13  and  N4_14 
REMARK    4  A    between atoms: C10_18  and  C11_19 
REMARK    5  A    between atoms: C11_19  and  O1_20 
REMARK    6  A    between atoms: C13_27  and  C14_28 
REMARK    7  A    between atoms: C14_28  and  O2_29 
REMARK    8  A    between atoms: C14_28  and  C15_31 
REMARK    9  A    between atoms: C15_31  and  O3_32 
REMARK   10  A    between atoms: C15_31  and  N7_34 
REMARK   11  A    between atoms: N7_34  and  C16_37 
REMARK   12  A    between atoms: C18_39  and  N8_40 
ROOT
HETATM    1  C5  UNL     1      31.692  17.638 -34.028  1.00  0.00     0.731 A 
HETATM    2  N3  UNL     1      30.639  18.333 -33.564  1.00  0.00    -0.019 N 
ATOM      3  H3  UNL     1      30.758  19.334 -33.404  1.00  0.00     0.203 HD
HETATM    4  C6  UNL     1      29.445  17.791 -33.298  1.00  0.00     0.710 A 
HETATM    5  N5  UNL     1      29.347  16.450 -33.531  1.00  0.00    -0.019 N 
ATOM      6  H5  UNL     1      28.458  15.987 -33.344  1.00  0.00     0.203 HD
HETATM    7  C12 UNL     1      30.368  15.710 -33.995  1.00  0.00     0.734 A 
HETATM    8  N6  UNL     1      30.543  14.405 -34.309  1.00  0.00    -0.173 N 
ATOM      9  H6  UNL     1      29.824  13.687 -34.226  1.00  0.00     0.185 HD
HETATM   10  C13 UNL     1      31.787  14.188 -34.743  1.00  0.00     0.146 A 
HETATM   11  N9  UNL     1      32.392  15.391 -34.692  1.00  0.00    -0.250 N 
ATOM     12  H9  UNL     1      33.360  15.570 -34.958  1.00  0.00     0.190 HD
HETATM   13  N10 UNL     1      31.549  16.304 -34.246  1.00  0.00     0.092 N 
ENDROOT
BRANCH  10  14
HETATM   14  C14 UNL     1      32.450  12.913 -35.196  1.00  0.00     0.243 C 
BRANCH  14  15
HETATM   15  O2  UNL     1      31.420  11.998 -35.543  1.00  0.00    -0.383 OA
ATOM     16  H2  UNL     1      30.676  12.507 -35.842  1.00  0.00     0.210 HD
ENDBRANCH  14  15
BRANCH  14  17
HETATM   17  C15 UNL     1      33.189  12.301 -34.034  1.00  0.00     0.355 C 
BRANCH  17  18
HETATM   18  O3  UNL     1      32.743  12.908 -32.860  1.00  0.00    -0.367 OA
ATOM     19  H3  UNL     1      33.008  12.369 -32.124  1.00  0.00     0.212 HD
ENDBRANCH  17  18
BRANCH  17  20
HETATM   20  N7  UNL     1      34.604  12.502 -34.194  1.00  0.00    -0.040 N 
ATOM     21  H72 UNL     1      35.153  11.745 -33.788  1.00  0.00     0.280 HD
ATOM     22  H71 UNL     1      34.905  12.393 -35.163  1.00  0.00     0.280 HD
BRANCH  20  23
HETATM   23  C16 UNL     1      34.961  13.796 -33.649  1.00  0.00     0.221 A 
HETATM   24  C17 UNL     1      36.051  13.890 -32.644  1.00  0.00     0.070 A 
HETATM   25  C18 UNL     1      36.284  14.331 -34.092  1.00  0.00     0.216 A 
BRANCH  25  26
HETATM   26  N8  UNL     1      36.375  15.771 -34.310  1.00  0.00    -0.073 N 
ATOM     27  H83 UNL     1      35.486  16.119 -34.668  1.00  0.00     0.274 HD
ATOM     28  H82 UNL     1      36.416  16.250 -33.410  1.00  0.00     0.274 HD
ATOM     29  H81 UNL     1      37.134  16.101 -34.906  1.00  0.00     0.274 HD
ENDBRANCH  25  26
ENDBRANCH  20  23
ENDBRANCH  17  20
ENDBRANCH  14  17
ENDBRANCH  10  14
BRANCH   1  30
HETATM   30  N2  UNL     1      32.962  18.224 -34.290  1.00  0.00    -0.213 N 
HETATM   31  C4  UNL     1      33.201  18.783 -35.630  1.00  0.00     0.141 C 
HETATM   32  C3  UNL     1      33.792  20.158 -35.397  1.00  0.00     0.022 C 
HETATM   33  C2  UNL     1      35.190  19.893 -34.831  1.00  0.00     0.036 C 
HETATM   34  C1  UNL     1      35.078  19.253 -33.497  1.00  0.00     0.202 C 
HETATM   35  C19 UNL     1      33.991  18.272 -33.292  1.00  0.00     0.173 C 
BRANCH  34  36
HETATM   36  N1  UNL     1      35.127  20.295 -32.461  1.00  0.00    -0.073 N 
ATOM     37  H13 UNL     1      35.987  20.841 -32.500  1.00  0.00     0.274 HD
ATOM     38  H12 UNL     1      34.468  21.053 -32.641  1.00  0.00     0.274 HD
ATOM     39  H11 UNL     1      34.982  19.863 -31.549  1.00  0.00     0.274 HD
ENDBRANCH  34  36
ENDBRANCH   1  30
BRANCH   4  40
HETATM   40  N4  UNL     1      28.333  18.518 -32.815  1.00  0.00    -0.210 N 
HETATM   41  C7  UNL     1      27.327  19.096 -33.722  1.00  0.00     0.142 C 
HETATM   42  C8  UNL     1      26.287  19.745 -32.876  1.00  0.00     0.022 C 
HETATM   43  C9  UNL     1      27.086  20.103 -31.634  1.00  0.00     0.029 C 
HETATM   44  C10 UNL     1      27.940  18.843 -31.492  1.00  0.00     0.125 C 
BRANCH  44  45
HETATM   45  C11 UNL     1      29.056  19.213 -30.559  1.00  0.00     0.190 C 
BRANCH  45  46
HETATM   46  O1  UNL     1      29.250  18.301 -29.541  1.00  0.00    -0.399 OA
ATOM     47  H1  UNL     1      29.690  18.666 -28.782  1.00  0.00     0.209 HD
ENDBRANCH  45  46
ENDBRANCH  44  45
ENDBRANCH   4  40
TORSDOF 12
ENDMDL
MODEL 4
REMARK VINA RESULT: -7.632362991      3.138      4.933
REMARK  12 active torsions:
REMARK  status: ('A' for Active; 'I' for Inactive)
REMARK    1  A    between atoms: N1_1  and  C1_5 
REMARK    2  A    between atoms: N2_9  and  C5_10 
REMARK    3  A    between atoms: C6_13  and  N4_14 
REMARK    4  A    between atoms: C10_18  and  C11_19 
REMARK    5  A    between atoms: C11_19  and  O1_20 
REMARK    6  A    between atoms: C13_27  and  C14_28 
REMARK    7  A    between atoms: C14_28  and  O2_29 
REMARK    8  A    between atoms: C14_28  and  C15_31 
REMARK    9  A    between atoms: C15_31  and  O3_32 
REMARK   10  A    between atoms: C15_31  and  N7_34 
REMARK   11  A    between atoms: N7_34  and  C16_37 
REMARK   12  A    between atoms: C18_39  and  N8_40 
ROOT
HETATM    1  C5  UNL     1      31.654  17.779 -34.122  1.00  0.00     0.731 A 
HETATM    2  N3  UNL     1      30.524  18.477 -33.912  1.00  0.00    -0.019 N 
ATOM      3  H3  UNL     1      30.604  19.483 -33.756  1.00  0.00     0.203 HD
HETATM    4  C6  UNL     1      29.302  17.933 -33.895  1.00  0.00     0.710 A 
HETATM    5  N5  UNL     1      29.259  16.586 -34.109  1.00  0.00    -0.019 N 
ATOM      6  H5  UNL     1      28.351  16.121 -34.106  1.00  0.00     0.203 HD
HETATM    7  C12 UNL     1      30.357  15.843 -34.325  1.00  0.00     0.734 A 
HETATM    8  N6  UNL     1      30.598  14.532 -34.561  1.00  0.00    -0.173 N 
ATOM      9  H6  UNL     1      29.879  13.811 -34.616  1.00  0.00     0.185 HD
HETATM   10  C13 UNL     1      31.906  14.313 -34.714  1.00  0.00     0.146 A 
HETATM   11  N9  UNL     1      32.484  15.522 -34.564  1.00  0.00    -0.250 N 
ATOM     12  H9  UNL     1      33.486  15.701 -34.622  1.00  0.00     0.190 HD
HETATM   13  N10 UNL     1      31.563  16.439 -34.333  1.00  0.00     0.092 N 
ENDROOT
BRANCH  10  14
HETATM   14  C14 UNL     1      32.653  13.032 -34.981  1.00  0.00     0.243 C 
BRANCH  14  15
HETATM   15  O2  UNL     1      31.705  12.070 -35.421  1.00  0.00    -0.383 OA
ATOM     16  H2  UNL     1      31.910  11.861 -36.325  1.00  0.00     0.210 HD
ENDBRANCH  14  15
BRANCH  14  17
HETATM   17  C15 UNL     1      33.220  12.511 -33.686  1.00  0.00     0.355 C 
BRANCH  17  18
HETATM   18  O3  UNL     1      32.727  13.295 -32.643  1.00  0.00    -0.367 OA
ATOM     19  H3  UNL     1      33.311  14.034 -32.521  1.00  0.00     0.212 HD
ENDBRANCH  17  18
BRANCH  17  20
HETATM   20  N7  UNL     1      34.656  12.571 -33.721  1.00  0.00    -0.040 N 
ATOM     21  H72 UNL     1      35.090  11.834 -33.166  1.00  0.00     0.280 HD
ATOM     22  H71 UNL     1      35.034  12.306 -34.631  1.00  0.00     0.280 HD
BRANCH  20  23
HETATM   23  C16 UNL     1      35.082  13.894 -33.312  1.00  0.00     0.221 A 
HETATM   24  C17 UNL     1      36.439  14.080 -32.737  1.00  0.00     0.070 A 
HETATM   25  C18 UNL     1      36.133  14.518 -34.172  1.00  0.00     0.216 A 
BRANCH  25  26
HETATM   26  N8  UNL     1      36.040  15.959 -34.388  1.00  0.00    -0.073 N 
ATOM     27  H83 UNL     1      35.274  16.338 -33.833  1.00  0.00     0.274 HD
ATOM     28  H82 UNL     1      36.837  16.422 -33.950  1.00  0.00     0.274 HD
ATOM     29  H81 UNL     1      35.952  16.276 -35.353  1.00  0.00     0.274 HD
ENDBRANCH  25  26
ENDBRANCH  20  23
ENDBRANCH  17  20
ENDBRANCH  14  17
ENDBRANCH  10  14
BRANCH   1  30
HETATM   30  N2  UNL     1      32.949  18.368 -34.122  1.00  0.00    -0.213 N 
HETATM   31  C4  UNL     1      33.457  18.922 -35.386  1.00  0.00     0.141 C 
HETATM   32  C3  UNL     1      33.984  20.300 -35.043  1.00  0.00     0.022 C 
HETATM   33  C2  UNL     1      35.237  20.041 -34.202  1.00  0.00     0.036 C 
HETATM   34  C1  UNL     1      34.855  19.405 -32.916  1.00  0.00     0.202 C 
HETATM   35  C19 UNL     1      33.752  18.422 -32.934  1.00  0.00     0.173 C 
BRANCH  34  36
HETATM   36  N1  UNL     1      34.689  20.451 -31.896  1.00  0.00    -0.073 N 
ATOM     37  H13 UNL     1      34.242  21.289 -32.268  1.00  0.00     0.274 HD
ATOM     38  H12 UNL     1      33.982  20.208 -31.202  1.00  0.00     0.274 HD
ATOM     39  H11 UNL     1      35.596  20.649 -31.474  1.00  0.00     0.274 HD
ENDBRANCH  34  36
ENDBRANCH   1  30
BRANCH   4  40
HETATM   40  N4  UNL     1      28.111  18.663 -33.679  1.00  0.00    -0.210 N 
HETATM   41  C7  UNL     1      27.711  19.120 -32.337  1.00  0.00     0.142 C 
HETATM   42  C8  UNL     1      26.443  19.886 -32.489  1.00  0.00     0.022 C 
HETATM   43  C9  UNL     1      25.849  19.248 -33.732  1.00  0.00     0.029 C 
HETATM   44  C10 UNL     1      27.110  19.095 -34.584  1.00  0.00     0.125 C 
BRANCH  44  45
HETATM   45  C11 UNL     1      26.751  18.119 -35.666  1.00  0.00     0.190 C 
BRANCH  45  46
HETATM   46  O1  UNL     1      27.129  18.532 -36.929  1.00  0.00    -0.399 OA
ATOM     47  H1  UNL     1      26.966  19.453 -37.092  1.00  0.00     0.209 HD
ENDBRANCH  45  46
ENDBRANCH  44  45
ENDBRANCH   4  40
TORSDOF 12
ENDMDL
MODEL 5
REMARK VINA RESULT: -7.606279293      3.309      5.348
REMARK  12 active torsions:
REMARK  status: ('A' for Active; 'I' for Inactive)
REMARK    1  A    between atoms: N1_1  and  C1_5 
REMARK    2  A    between atoms: N2_9  and  C5_10 
REMARK    3  A    between atoms: C6_13  and  N4_14 
REMARK    4  A    between atoms: C10_18  and  C11_19 
REMARK    5  A    between atoms: C11_19  and  O1_20 
REMARK    6  A    between atoms: C13_27  and  C14_28 
REMARK    7  A    between atoms: C14_28  and  O2_29 
REMARK    8  A    between atoms: C14_28  and  C15_31 
REMARK    9  A    between atoms: C15_31  and  O3_32 
REMARK   10  A    between atoms: C15_31  and  N7_34 
REMARK   11  A    between atoms: N7_34  and  C16_37 
REMARK   12  A    between atoms: C18_39  and  N8_40 
ROOT
HETATM    1  C5  UNL     1      30.918  17.132 -36.059  1.00  0.00     0.731 A 
HETATM    2  N3  UNL     1      29.738  17.711 -35.780  1.00  0.00    -0.019 N 
ATOM      3  H3  UNL     1      29.558  18.642 -36.159  1.00  0.00     0.203 HD
HETATM    4  C6  UNL     1      28.784  17.140 -35.036  1.00  0.00     0.710 A 
HETATM    5  N5  UNL     1      29.080  15.897 -34.557  1.00  0.00    -0.019 N 
ATOM      6  H5  UNL     1      28.387  15.418 -33.984  1.00  0.00     0.203 HD
HETATM    7  C12 UNL     1      30.244  15.275 -34.808  1.00  0.00     0.734 A 
HETATM    8  N6  UNL     1      30.784  14.079 -34.475  1.00  0.00    -0.173 N 
ATOM      9  H6  UNL     1      30.323  13.374 -33.901  1.00  0.00     0.185 HD
HETATM   10  C13 UNL     1      32.004  13.949 -35.002  1.00  0.00     0.146 A 
HETATM   11  N9  UNL     1      32.219  15.098 -35.675  1.00  0.00    -0.250 N 
ATOM     12  H9  UNL     1      33.067  15.320 -36.195  1.00  0.00     0.190 HD
HETATM   13  N10 UNL     1      31.171  15.892 -35.563  1.00  0.00     0.092 N 
ENDROOT
BRANCH  10  14
HETATM   14  C14 UNL     1      32.990  12.814 -34.906  1.00  0.00     0.243 C 
BRANCH  14  15
HETATM   15  O2  UNL     1      32.263  11.604 -35.072  1.00  0.00    -0.383 OA
ATOM     16  H2  UNL     1      31.682  11.722 -35.814  1.00  0.00     0.210 HD
ENDBRANCH  14  15
BRANCH  14  17
HETATM   17  C15 UNL     1      33.565  12.777 -33.513  1.00  0.00     0.355 C 
BRANCH  17  18
HETATM   18  O3  UNL     1      33.026  13.839 -32.786  1.00  0.00    -0.367 OA
ATOM     19  H3  UNL     1      33.451  13.867 -31.937  1.00  0.00     0.212 HD
ENDBRANCH  17  18
BRANCH  17  20
HETATM   20  N7  UNL     1      34.998  12.888 -33.573  1.00  0.00    -0.040 N 
ATOM     21  H72 UNL     1      35.466  12.193 -32.992  1.00  0.00     0.280 HD
ATOM     22  H71 UNL     1      35.372  12.595 -34.475  1.00  0.00     0.280 HD
BRANCH  20  23
HETATM   23  C16 UNL     1      35.380  14.242 -33.230  1.00  0.00     0.221 A 
HETATM   24  C17 UNL     1      36.820  14.590 -33.121  1.00  0.00     0.070 A 
HETATM   25  C18 UNL     1      36.001  15.028 -34.339  1.00  0.00     0.216 A 
BRANCH  25  26
HETATM   26  N8  UNL     1      35.675  16.449 -34.406  1.00  0.00    -0.073 N 
ATOM     27  H83 UNL     1      35.802  16.871 -33.486  1.00  0.00     0.274 HD
ATOM     28  H82 UNL     1      36.393  16.939 -34.939  1.00  0.00     0.274 HD
ATOM     29  H81 UNL     1      34.754  16.695 -34.769  1.00  0.00     0.274 HD
ENDBRANCH  25  26
ENDBRANCH  20  23
ENDBRANCH  17  20
ENDBRANCH  14  17
ENDBRANCH  10  14
BRANCH   1  30
HETATM   30  N2  UNL     1      31.931  17.757 -36.839  1.00  0.00    -0.213 N 
HETATM   31  C4  UNL     1      32.043  17.381 -38.257  1.00  0.00     0.141 C 
HETATM   32  C3  UNL     1      32.125  18.688 -39.018  1.00  0.00     0.022 C 
HETATM   33  C2  UNL     1      33.499  19.263 -38.660  1.00  0.00     0.036 C 
HETATM   34  C1  UNL     1      33.535  19.614 -37.218  1.00  0.00     0.202 C 
HETATM   35  C19 UNL     1      32.829  18.723 -36.273  1.00  0.00     0.173 C 
BRANCH  34  36
HETATM   36  N1  UNL     1      33.176  21.031 -37.062  1.00  0.00    -0.073 N 
ATOM     37  H13 UNL     1      32.312  21.269 -37.549  1.00  0.00     0.274 HD
ATOM     38  H12 UNL     1      32.872  21.253 -36.114  1.00  0.00     0.274 HD
ATOM     39  H11 UNL     1      33.962  21.607 -37.363  1.00  0.00     0.274 HD
ENDBRANCH  34  36
ENDBRANCH   1  30
BRANCH   4  40
HETATM   40  N4  UNL     1      27.538  17.743 -34.743  1.00  0.00    -0.210 N 
HETATM   41  C7  UNL     1      26.339  17.486 -35.558  1.00  0.00     0.142 C 
HETATM   42  C8  UNL     1      25.213  18.241 -34.941  1.00  0.00     0.022 C 
HETATM   43  C9  UNL     1      25.948  19.388 -34.270  1.00  0.00     0.029 C 
HETATM   44  C10 UNL     1      27.161  18.642 -33.714  1.00  0.00     0.125 C 
BRANCH  44  45
HETATM   45  C11 UNL     1      28.170  19.701 -33.379  1.00  0.00     0.190 C 
BRANCH  45  46
HETATM   46  O1  UNL     1      28.571  20.447 -34.470  1.00  0.00    -0.399 OA
ATOM     47  H1  UNL     1      29.487  20.332 -34.693  1.00  0.00     0.209 HD
ENDBRANCH  45  46
ENDBRANCH  44  45
ENDBRANCH   4  40
TORSDOF 12
ENDMDL
