MODEL 1
REMARK VINA RESULT: -6.403664116      0.000      0.000
REMARK  16 active torsions:
REMARK  status: ('A' for Active; 'I' for Inactive)
REMARK    1  A    between atoms: C2_2  and  C3_3 
REMARK    2  A    between atoms: C3_3  and  N1_4 
REMARK    3  A    between atoms: C4_5  and  C5_6 
REMARK    4  A    between atoms: C7_10  and  N2_11 
REMARK    5  A    between atoms: N2_11  and  C8_13 
REMARK    6  A    between atoms: C8_13  and  C9_14 
REMARK    7  A    between atoms: C9_14  and  C10_15 
REMARK    8  A    between atoms: C10_15  and  C11_16 
REMARK    9  A    between atoms: C11_16  and  C12_17 
REMARK   10  A    between atoms: C12_17  and  N3_18 
REMARK   11  A    between atoms: N3_18  and  C13_20 
REMARK   12  A    between atoms: C13_20  and  N4_22 
REMARK   13  A    between atoms: N4_22  and  C14_24 
REMARK   14  A    between atoms: C14_24  and  C15_25 
REMARK   15  A    between atoms: C15_25  and  C16_26 
REMARK   16  A    between atoms: C22_36  and  N6_37 
ROOT
HETATM    1  C9  UNL     1     -15.968   5.706  43.730  1.00  0.00     0.020 C 
ENDROOT
BRANCH   1   2
HETATM    2  C8  UNL     1     -16.582   5.508  45.100  1.00  0.00     0.121 C 
BRANCH   2   3
HETATM    3  N2  UNL     1     -16.406   6.646  45.949  1.00  0.00    -0.376 N 
ATOM      4  H2  UNL     1     -15.590   7.243  45.817  1.00  0.00     0.161 HD
BRANCH   3   5
HETATM    5  C7  UNL     1     -17.254   6.937  46.875  1.00  0.00     0.119 A 
HETATM    6  C6  UNL     1     -16.892   7.515  48.047  1.00  0.00     0.082 A 
HETATM    7  C4  UNL     1     -17.789   7.850  49.090  1.00  0.00     0.093 A 
HETATM    8  N1  UNL     1     -19.072   7.566  48.880  1.00  0.00    -0.160 N 
HETATM    9  C22 UNL     1     -19.438   6.977  47.686  1.00  0.00     0.684 A 
HETATM   10  N5  UNL     1     -18.570   6.671  46.716  1.00  0.00    -0.177 N 
ATOM     11  H5  UNL     1     -18.901   6.236  45.854  1.00  0.00     0.186 HD
BRANCH   7  12
HETATM   12  C5  UNL     1     -17.263   8.469  50.270  1.00  0.00     0.131 C 
HETATM   13 CL1  UNL     1     -17.312  10.187  50.504  1.00  0.00    -0.068 Cl
HETATM   14 CL2  UNL     1     -15.742   7.700  50.893  1.00  0.00    -0.068 Cl
ENDBRANCH   7  12
BRANCH   8  15
HETATM   15  C3  UNL     1     -20.069   7.826  49.830  1.00  0.00     0.088 C 
BRANCH  15  16
HETATM   16  C2  UNL     1     -20.263   6.938  50.999  1.00  0.00     0.041 C 
HETATM   17  C1  UNL     1     -21.396   5.956  50.916  1.00  0.00     0.010 C 
ENDBRANCH  15  16
ENDBRANCH   8  15
BRANCH   9  18
HETATM   18  N6  UNL     1     -20.675   6.681  47.479  1.00  0.00    -0.234 N 
ATOM     19  H62 UNL     1     -21.159   6.171  48.218  1.00  0.00     0.174 HD
ATOM     20  H61 UNL     1     -21.122   6.973  46.610  1.00  0.00     0.174 HD
ENDBRANCH   9  18
ENDBRANCH   3   5
ENDBRANCH   2   3
ENDBRANCH   1   2
BRANCH   1  21
HETATM   21  C10 UNL     1     -14.590   6.282  43.795  1.00  0.00     0.003 C 
BRANCH  21  22
HETATM   22  C11 UNL     1     -14.230   7.090  42.577  1.00  0.00     0.020 C 
BRANCH  22  23
HETATM   23  C12 UNL     1     -12.773   7.369  42.459  1.00  0.00     0.122 C 
BRANCH  23  24
HETATM   24  N3  UNL     1     -12.507   8.048  41.222  1.00  0.00    -0.367 N 
ATOM     25  H3  UNL     1     -12.120   7.539  40.427  1.00  0.00     0.161 HD
BRANCH  24  26
HETATM   26  C13 UNL     1     -12.789   9.434  41.116  1.00  0.00     0.167 C 
HETATM   27  S1  UNL     1     -13.158  10.044  39.654  1.00  0.00    -0.041 SA
BRANCH  26  28
HETATM   28  N4  UNL     1     -12.757  10.294  42.248  1.00  0.00    -0.367 N 
ATOM     29  H4  UNL     1     -11.937  10.310  42.855  1.00  0.00     0.161 HD
BRANCH  28  30
HETATM   30  C14 UNL     1     -13.874  11.134  42.532  1.00  0.00     0.124 C 
BRANCH  30  31
HETATM   31  C15 UNL     1     -14.250  11.146  43.994  1.00  0.00     0.051 C 
BRANCH  31  32
HETATM   32  C16 UNL     1     -13.473  10.137  44.794  1.00  0.00     0.128 C 
HETATM   33  C17 UNL     1     -14.296   9.440  45.838  1.00  0.00     0.058 C 
HETATM   34  C18 UNL     1     -14.453  10.438  46.988  1.00  0.00     0.174 C 
HETATM   35  O1  UNL     1     -13.185  10.710  47.434  1.00  0.00    -0.356 OA
HETATM   36  C19 UNL     1     -12.318  11.225  46.507  1.00  0.00     0.157 C 
HETATM   37  C20 UNL     1     -10.908  11.042  47.096  1.00  0.00     0.078 C 
HETATM   38  C21 UNL     1     -12.528  12.730  46.411  1.00  0.00     0.078 C 
HETATM   39  O2  UNL     1     -12.290  10.617  45.283  1.00  0.00    -0.350 OA
ENDBRANCH  31  32
ENDBRANCH  30  31
ENDBRANCH  28  30
ENDBRANCH  26  28
ENDBRANCH  24  26
ENDBRANCH  23  24
ENDBRANCH  22  23
ENDBRANCH  21  22
ENDBRANCH   1  21
TORSDOF 16
ENDMDL
MODEL 2
REMARK VINA RESULT: -6.340309875      5.224      8.870
REMARK  16 active torsions:
REMARK  status: ('A' for Active; 'I' for Inactive)
REMARK    1  A    between atoms: C2_2  and  C3_3 
REMARK    2  A    between atoms: C3_3  and  N1_4 
REMARK    3  A    between atoms: C4_5  and  C5_6 
REMARK    4  A    between atoms: C7_10  and  N2_11 
REMARK    5  A    between atoms: N2_11  and  C8_13 
REMARK    6  A    between atoms: C8_13  and  C9_14 
REMARK    7  A    between atoms: C9_14  and  C10_15 
REMARK    8  A    between atoms: C10_15  and  C11_16 
REMARK    9  A    between atoms: C11_16  and  C12_17 
REMARK   10  A    between atoms: C12_17  and  N3_18 
REMARK   11  A    between atoms: N3_18  and  C13_20 
REMARK   12  A    between atoms: C13_20  and  N4_22 
REMARK   13  A    between atoms: N4_22  and  C14_24 
REMARK   14  A    between atoms: C14_24  and  C15_25 
REMARK   15  A    between atoms: C15_25  and  C16_26 
REMARK   16  A    between atoms: C22_36  and  N6_37 
ROOT
HETATM    1  C9  UNL     1     -11.979   8.959  46.829  1.00  0.00     0.020 C 
ENDROOT
BRANCH   1   2
HETATM    2  C8  UNL     1     -11.282   7.710  46.333  1.00  0.00     0.121 C 
BRANCH   2   3
HETATM    3  N2  UNL     1      -9.865   7.763  46.518  1.00  0.00    -0.376 N 
ATOM      4  H2  UNL     1      -9.452   8.582  46.962  1.00  0.00     0.161 HD
BRANCH   3   5
HETATM    5  C7  UNL     1      -9.096   6.801  46.139  1.00  0.00     0.119 A 
HETATM    6  C6  UNL     1      -8.561   5.903  47.002  1.00  0.00     0.082 A 
HETATM    7  C4  UNL     1      -7.713   4.833  46.629  1.00  0.00     0.093 A 
HETATM    8  N1  UNL     1      -7.436   4.724  45.332  1.00  0.00    -0.160 N 
HETATM    9  C22 UNL     1      -7.982   5.639  44.454  1.00  0.00     0.684 A 
HETATM   10  N5  UNL     1      -8.781   6.641  44.833  1.00  0.00    -0.177 N 
ATOM     11  H5  UNL     1      -9.154   7.287  44.137  1.00  0.00     0.186 HD
BRANCH   7  12
HETATM   12  C5  UNL     1      -7.231   3.954  47.653  1.00  0.00     0.131 C 
HETATM   13 CL1  UNL     1      -8.281   3.296  48.866  1.00  0.00    -0.068 Cl
HETATM   14 CL2  UNL     1      -5.584   4.386  48.282  1.00  0.00    -0.068 Cl
ENDBRANCH   7  12
BRANCH   8  15
HETATM   15  C3  UNL     1      -6.598   3.724  44.820  1.00  0.00     0.088 C 
BRANCH  15  16
HETATM   16  C2  UNL     1      -7.093   2.343  44.612  1.00  0.00     0.041 C 
HETATM   17  C1  UNL     1      -6.109   1.234  44.849  1.00  0.00     0.010 C 
ENDBRANCH  15  16
ENDBRANCH   8  15
BRANCH   9  18
HETATM   18  N6  UNL     1      -7.705   5.553  43.198  1.00  0.00    -0.234 N 
ATOM     19  H62 UNL     1      -7.350   6.394  42.743  1.00  0.00     0.174 HD
ATOM     20  H61 UNL     1      -7.835   4.663  42.716  1.00  0.00     0.174 HD
ENDBRANCH   9  18
ENDBRANCH   3   5
ENDBRANCH   2   3
ENDBRANCH   1   2
BRANCH   1  21
HETATM   21  C10 UNL     1     -13.412   9.023  46.411  1.00  0.00     0.003 C 
BRANCH  21  22
HETATM   22  C11 UNL     1     -14.368   8.694  47.527  1.00  0.00     0.020 C 
BRANCH  22  23
HETATM   23  C12 UNL     1     -14.842   7.284  47.506  1.00  0.00     0.122 C 
BRANCH  23  24
HETATM   24  N3  UNL     1     -15.705   7.079  46.375  1.00  0.00    -0.367 N 
ATOM     25  H3  UNL     1     -16.523   7.672  46.238  1.00  0.00     0.161 HD
BRANCH  24  26
HETATM   26  C13 UNL     1     -15.407   6.045  45.452  1.00  0.00     0.167 C 
HETATM   27  S1  UNL     1     -14.512   4.785  45.958  1.00  0.00    -0.041 SA
BRANCH  26  28
HETATM   28  N4  UNL     1     -15.868   6.084  44.107  1.00  0.00    -0.367 N 
ATOM     29  H4  UNL     1     -16.860   5.969  43.903  1.00  0.00     0.161 HD
BRANCH  28  30
HETATM   30  C14 UNL     1     -14.937   6.287  43.045  1.00  0.00     0.124 C 
BRANCH  30  31
HETATM   31  C15 UNL     1     -14.115   7.542  43.208  1.00  0.00     0.051 C 
BRANCH  31  32
HETATM   32  C16 UNL     1     -13.124   7.726  42.093  1.00  0.00     0.128 C 
HETATM   33  C17 UNL     1     -11.715   7.925  42.571  1.00  0.00     0.058 C 
HETATM   34  C18 UNL     1     -11.636   9.371  43.067  1.00  0.00     0.174 C 
HETATM   35  O1  UNL     1     -11.925  10.162  41.984  1.00  0.00    -0.356 OA
HETATM   36  C19 UNL     1     -13.143   9.955  41.393  1.00  0.00     0.157 C 
HETATM   37  C20 UNL     1     -13.060  10.614  40.006  1.00  0.00     0.078 C 
HETATM   38  C21 UNL     1     -14.206  10.737  42.155  1.00  0.00     0.078 C 
HETATM   39  O2  UNL     1     -13.506   8.656  41.166  1.00  0.00    -0.350 OA
ENDBRANCH  31  32
ENDBRANCH  30  31
ENDBRANCH  28  30
ENDBRANCH  26  28
ENDBRANCH  24  26
ENDBRANCH  23  24
ENDBRANCH  22  23
ENDBRANCH  21  22
ENDBRANCH   1  21
TORSDOF 16
ENDMDL
MODEL 3
REMARK VINA RESULT: -6.311028752      4.516      7.785
REMARK  16 active torsions:
REMARK  status: ('A' for Active; 'I' for Inactive)
REMARK    1  A    between atoms: C2_2  and  C3_3 
REMARK    2  A    between atoms: C3_3  and  N1_4 
REMARK    3  A    between atoms: C4_5  and  C5_6 
REMARK    4  A    between atoms: C7_10  and  N2_11 
REMARK    5  A    between atoms: N2_11  and  C8_13 
REMARK    6  A    between atoms: C8_13  and  C9_14 
REMARK    7  A    between atoms: C9_14  and  C10_15 
REMARK    8  A    between atoms: C10_15  and  C11_16 
REMARK    9  A    between atoms: C11_16  and  C12_17 
REMARK   10  A    between atoms: C12_17  and  N3_18 
REMARK   11  A    between atoms: N3_18  and  C13_20 
REMARK   12  A    between atoms: C13_20  and  N4_22 
REMARK   13  A    between atoms: N4_22  and  C14_24 
REMARK   14  A    between atoms: C14_24  and  C15_25 
REMARK   15  A    between atoms: C15_25  and  C16_26 
REMARK   16  A    between atoms: C22_36  and  N6_37 
ROOT
HETATM    1  C9  UNL     1      -7.768   5.865  46.589  1.00  0.00     0.020 C 
ENDROOT
BRANCH   1   2
HETATM    2  C8  UNL     1      -8.538   6.715  45.601  1.00  0.00     0.121 C 
BRANCH   2   3
HETATM    3  N2  UNL     1      -9.285   7.755  46.238  1.00  0.00    -0.376 N 
ATOM      4  H2  UNL     1      -8.982   8.098  47.149  1.00  0.00     0.161 HD
BRANCH   3   5
HETATM    5  C7  UNL     1     -10.331   8.270  45.690  1.00  0.00     0.119 A 
HETATM    6  C6  UNL     1     -11.113   9.185  46.315  1.00  0.00     0.082 A 
HETATM    7  C4  UNL     1     -12.270   9.774  45.751  1.00  0.00     0.093 A 
HETATM    8  N1  UNL     1     -12.590   9.386  44.519  1.00  0.00    -0.160 N 
HETATM    9  C22 UNL     1     -11.792   8.455  43.884  1.00  0.00     0.684 A 
HETATM   10  N5  UNL     1     -10.703   7.913  44.440  1.00  0.00    -0.177 N 
ATOM     11  H5  UNL     1     -10.153   7.229  43.921  1.00  0.00     0.186 HD
BRANCH   7  12
HETATM   12  C5  UNL     1     -12.993  10.737  46.527  1.00  0.00     0.131 C 
HETATM   13 CL1  UNL     1     -14.705  10.616  46.777  1.00  0.00    -0.068 Cl
HETATM   14 CL2  UNL     1     -12.416  12.445  46.310  1.00  0.00    -0.068 Cl
ENDBRANCH   7  12
BRANCH   8  15
HETATM   15  C3  UNL     1     -13.716   9.873  43.842  1.00  0.00     0.088 C 
BRANCH  15  16
HETATM   16  C2  UNL     1     -13.666  11.148  43.091  1.00  0.00     0.041 C 
HETATM   17  C1  UNL     1     -14.802  11.419  42.148  1.00  0.00     0.010 C 
ENDBRANCH  15  16
ENDBRANCH   8  15
BRANCH   9  18
HETATM   18  N6  UNL     1     -12.103   8.058  42.698  1.00  0.00    -0.234 N 
ATOM     19  H62 UNL     1     -13.027   7.645  42.575  1.00  0.00     0.174 HD
ATOM     20  H61 UNL     1     -11.435   8.182  41.938  1.00  0.00     0.174 HD
ENDBRANCH   9  18
ENDBRANCH   3   5
ENDBRANCH   2   3
ENDBRANCH   1   2
BRANCH   1  21
HETATM   21  C10 UNL     1      -7.964   4.401  46.364  1.00  0.00     0.003 C 
BRANCH  21  22
HETATM   22  C11 UNL     1      -8.426   3.670  47.597  1.00  0.00     0.020 C 
BRANCH  22  23
HETATM   23  C12 UNL     1      -9.091   4.551  48.594  1.00  0.00     0.122 C 
BRANCH  23  24
HETATM   24  N3  UNL     1     -10.514   4.358  48.539  1.00  0.00    -0.367 N 
ATOM     25  H3  UNL     1     -10.921   3.454  48.779  1.00  0.00     0.161 HD
BRANCH  24  26
HETATM   26  C13 UNL     1     -11.347   5.437  48.148  1.00  0.00     0.167 C 
HETATM   27  S1  UNL     1     -11.463   6.726  49.132  1.00  0.00    -0.041 SA
BRANCH  26  28
HETATM   28  N4  UNL     1     -12.074   5.418  46.926  1.00  0.00    -0.367 N 
ATOM     29  H4  UNL     1     -11.763   4.828  46.154  1.00  0.00     0.161 HD
BRANCH  28  30
HETATM   30  C14 UNL     1     -13.241   6.226  46.783  1.00  0.00     0.124 C 
BRANCH  30  31
HETATM   31  C15 UNL     1     -14.099   5.825  45.608  1.00  0.00     0.051 C 
BRANCH  31  32
HETATM   32  C16 UNL     1     -15.228   4.915  46.006  1.00  0.00     0.128 C 
HETATM   33  C17 UNL     1     -16.112   4.520  44.859  1.00  0.00     0.058 C 
HETATM   34  C18 UNL     1     -17.004   5.732  44.576  1.00  0.00     0.174 C 
HETATM   35  O1  UNL     1     -17.723   5.952  45.723  1.00  0.00    -0.356 OA
HETATM   36  C19 UNL     1     -16.991   6.187  46.857  1.00  0.00     0.157 C 
HETATM   37  C20 UNL     1     -17.957   5.976  48.037  1.00  0.00     0.078 C 
HETATM   38  C21 UNL     1     -16.605   7.660  46.904  1.00  0.00     0.078 C 
HETATM   39  O2  UNL     1     -15.932   5.356  47.092  1.00  0.00    -0.350 OA
ENDBRANCH  31  32
ENDBRANCH  30  31
ENDBRANCH  28  30
ENDBRANCH  26  28
ENDBRANCH  24  26
ENDBRANCH  23  24
ENDBRANCH  22  23
ENDBRANCH  21  22
ENDBRANCH   1  21
TORSDOF 16
ENDMDL
MODEL 4
REMARK VINA RESULT: -6.182173184      3.338      5.982
REMARK  16 active torsions:
REMARK  status: ('A' for Active; 'I' for Inactive)
REMARK    1  A    between atoms: C2_2  and  C3_3 
REMARK    2  A    between atoms: C3_3  and  N1_4 
REMARK    3  A    between atoms: C4_5  and  C5_6 
REMARK    4  A    between atoms: C7_10  and  N2_11 
REMARK    5  A    between atoms: N2_11  and  C8_13 
REMARK    6  A    between atoms: C8_13  and  C9_14 
REMARK    7  A    between atoms: C9_14  and  C10_15 
REMARK    8  A    between atoms: C10_15  and  C11_16 
REMARK    9  A    between atoms: C11_16  and  C12_17 
REMARK   10  A    between atoms: C12_17  and  N3_18 
REMARK   11  A    between atoms: N3_18  and  C13_20 
REMARK   12  A    between atoms: C13_20  and  N4_22 
REMARK   13  A    between atoms: N4_22  and  C14_24 
REMARK   14  A    between atoms: C14_24  and  C15_25 
REMARK   15  A    between atoms: C15_25  and  C16_26 
REMARK   16  A    between atoms: C22_36  and  N6_37 
ROOT
HETATM    1  C9  UNL     1     -14.905  11.548  41.484  1.00  0.00     0.020 C 
ENDROOT
BRANCH   1   2
HETATM    2  C8  UNL     1     -13.955  11.137  42.589  1.00  0.00     0.121 C 
BRANCH   2   3
HETATM    3  N2  UNL     1     -14.301  11.714  43.851  1.00  0.00    -0.376 N 
ATOM      4  H2  UNL     1     -14.743  12.632  43.873  1.00  0.00     0.161 HD
BRANCH   3   5
HETATM    5  C7  UNL     1     -14.069  11.103  44.961  1.00  0.00     0.119 A 
HETATM    6  C6  UNL     1     -12.833  10.675  45.320  1.00  0.00     0.082 A 
HETATM    7  C4  UNL     1     -12.534   9.999  46.528  1.00  0.00     0.093 A 
HETATM    8  N1  UNL     1     -13.556   9.781  47.351  1.00  0.00    -0.160 N 
HETATM    9  C22 UNL     1     -14.814  10.218  46.984  1.00  0.00     0.684 A 
HETATM   10  N5  UNL     1     -15.069  10.854  45.836  1.00  0.00    -0.177 N 
ATOM     11  H5  UNL     1     -16.021  11.153  45.620  1.00  0.00     0.186 HD
BRANCH   7  12
HETATM   12  C5  UNL     1     -11.176   9.616  46.778  1.00  0.00     0.131 C 
HETATM   13 CL1  UNL     1      -9.844  10.659  46.397  1.00  0.00    -0.068 Cl
HETATM   14 CL2  UNL     1     -10.833   7.863  46.459  1.00  0.00    -0.068 Cl
ENDBRANCH   7  12
BRANCH   8  15
HETATM   15  C3  UNL     1     -13.412   9.111  48.573  1.00  0.00     0.088 C 
BRANCH  15  16
HETATM   16  C2  UNL     1     -12.823   9.786  49.752  1.00  0.00     0.041 C 
HETATM   17  C1  UNL     1     -11.724   9.055  50.467  1.00  0.00     0.010 C 
ENDBRANCH  15  16
ENDBRANCH   8  15
BRANCH   9  18
HETATM   18  N6  UNL     1     -15.814   9.995  47.766  1.00  0.00    -0.234 N 
ATOM     19  H62 UNL     1     -15.751   9.184  48.380  1.00  0.00     0.174 HD
ATOM     20  H61 UNL     1     -16.610  10.633  47.754  1.00  0.00     0.174 HD
ENDBRANCH   9  18
ENDBRANCH   3   5
ENDBRANCH   2   3
ENDBRANCH   1   2
BRANCH   1  21
HETATM   21  C10 UNL     1     -14.449  11.093  40.135  1.00  0.00     0.003 C 
BRANCH  21  22
HETATM   22  C11 UNL     1     -13.147  10.337  40.175  1.00  0.00     0.020 C 
BRANCH  22  23
HETATM   23  C12 UNL     1     -13.255   8.943  39.669  1.00  0.00     0.122 C 
BRANCH  23  24
HETATM   24  N3  UNL     1     -12.366   8.088  40.406  1.00  0.00    -0.367 N 
ATOM     25  H3  UNL     1     -11.586   7.629  39.937  1.00  0.00     0.161 HD
BRANCH  24  26
HETATM   26  C13 UNL     1     -12.583   7.892  41.794  1.00  0.00     0.167 C 
HETATM   27  S1  UNL     1     -11.369   8.215  42.826  1.00  0.00    -0.041 SA
BRANCH  26  28
HETATM   28  N4  UNL     1     -13.828   7.424  42.298  1.00  0.00    -0.367 N 
ATOM     29  H4  UNL     1     -14.697   7.670  41.825  1.00  0.00     0.161 HD
BRANCH  28  30
HETATM   30  C14 UNL     1     -13.857   6.608  43.467  1.00  0.00     0.124 C 
BRANCH  30  31
HETATM   31  C15 UNL     1     -14.606   7.241  44.615  1.00  0.00     0.051 C 
BRANCH  31  32
HETATM   32  C16 UNL     1     -14.398   6.508  45.910  1.00  0.00     0.128 C 
HETATM   33  C17 UNL     1     -14.292   5.019  45.745  1.00  0.00     0.058 C 
HETATM   34  C18 UNL     1     -15.721   4.515  45.528  1.00  0.00     0.174 C 
HETATM   35  O1  UNL     1     -16.421   4.856  46.658  1.00  0.00    -0.356 OA
HETATM   36  C19 UNL     1     -16.456   6.190  46.966  1.00  0.00     0.157 C 
HETATM   37  C20 UNL     1     -16.900   6.274  48.437  1.00  0.00     0.078 C 
HETATM   38  C21 UNL     1     -17.567   6.857  46.165  1.00  0.00     0.078 C 
HETATM   39  O2  UNL     1     -15.273   6.871  46.895  1.00  0.00    -0.350 OA
ENDBRANCH  31  32
ENDBRANCH  30  31
ENDBRANCH  28  30
ENDBRANCH  26  28
ENDBRANCH  24  26
ENDBRANCH  23  24
ENDBRANCH  22  23
ENDBRANCH  21  22
ENDBRANCH   1  21
TORSDOF 16
ENDMDL
MODEL 5
REMARK VINA RESULT: -6.170771799      1.910      2.383
REMARK  16 active torsions:
REMARK  status: ('A' for Active; 'I' for Inactive)
REMARK    1  A    between atoms: C2_2  and  C3_3 
REMARK    2  A    between atoms: C3_3  and  N1_4 
REMARK    3  A    between atoms: C4_5  and  C5_6 
REMARK    4  A    between atoms: C7_10  and  N2_11 
REMARK    5  A    between atoms: N2_11  and  C8_13 
REMARK    6  A    between atoms: C8_13  and  C9_14 
REMARK    7  A    between atoms: C9_14  and  C10_15 
REMARK    8  A    between atoms: C10_15  and  C11_16 
REMARK    9  A    between atoms: C11_16  and  C12_17 
REMARK   10  A    between atoms: C12_17  and  N3_18 
REMARK   11  A    between atoms: N3_18  and  C13_20 
REMARK   12  A    between atoms: C13_20  and  N4_22 
REMARK   13  A    between atoms: N4_22  and  C14_24 
REMARK   14  A    between atoms: C14_24  and  C15_25 
REMARK   15  A    between atoms: C15_25  and  C16_26 
REMARK   16  A    between atoms: C22_36  and  N6_37 
ROOT
HETATM    1  C9  UNL     1     -15.193   5.112  43.604  1.00  0.00     0.020 C 
ENDROOT
BRANCH   1   2
HETATM    2  C8  UNL     1     -16.406   5.019  44.506  1.00  0.00     0.121 C 
BRANCH   2   3
HETATM    3  N2  UNL     1     -16.077   4.572  45.824  1.00  0.00    -0.376 N 
ATOM      4  H2  UNL     1     -15.829   3.594  45.969  1.00  0.00     0.161 HD
BRANCH   3   5
HETATM    5  C7  UNL     1     -16.085   5.374  46.832  1.00  0.00     0.119 A 
HETATM    6  C6  UNL     1     -14.952   5.875  47.382  1.00  0.00     0.082 A 
HETATM    7  C4  UNL     1     -14.916   6.757  48.489  1.00  0.00     0.093 A 
HETATM    8  N1  UNL     1     -16.092   7.101  49.008  1.00  0.00    -0.160 N 
HETATM    9  C22 UNL     1     -17.245   6.590  48.447  1.00  0.00     0.684 A 
HETATM   10  N5  UNL     1     -17.251   5.758  47.400  1.00  0.00    -0.177 N 
ATOM     11  H5  UNL     1     -18.136   5.412  47.029  1.00  0.00     0.186 HD
BRANCH   7  12
HETATM   12  C5  UNL     1     -13.641   7.216  48.956  1.00  0.00     0.131 C 
HETATM   13 CL1  UNL     1     -12.321   7.514  47.872  1.00  0.00    -0.068 Cl
HETATM   14 CL2  UNL     1     -13.126   6.485  50.535  1.00  0.00    -0.068 Cl
ENDBRANCH   7  12
BRANCH   8  15
HETATM   15  C3  UNL     1     -16.209   7.953  50.115  1.00  0.00     0.088 C 
BRANCH  15  16
HETATM   16  C2  UNL     1     -16.222   9.425  49.950  1.00  0.00     0.041 C 
HETATM   17  C1  UNL     1     -17.488  10.133  50.336  1.00  0.00     0.010 C 
ENDBRANCH  15  16
ENDBRANCH   8  15
BRANCH   9  18
HETATM   18  N6  UNL     1     -18.388   6.902  48.953  1.00  0.00    -0.234 N 
ATOM     19  H62 UNL     1     -19.132   6.209  48.881  1.00  0.00     0.174 HD
ATOM     20  H61 UNL     1     -18.502   7.807  49.411  1.00  0.00     0.174 HD
ENDBRANCH   9  18
ENDBRANCH   3   5
ENDBRANCH   2   3
ENDBRANCH   1   2
BRANCH   1  21
HETATM   21  C10 UNL     1     -14.454   6.401  43.765  1.00  0.00     0.003 C 
BRANCH  21  22
HETATM   22  C11 UNL     1     -14.119   7.057  42.451  1.00  0.00     0.020 C 
BRANCH  22  23
HETATM   23  C12 UNL     1     -12.666   7.331  42.279  1.00  0.00     0.122 C 
BRANCH  23  24
HETATM   24  N3  UNL     1     -12.454   8.085  41.075  1.00  0.00    -0.367 N 
ATOM     25  H3  UNL     1     -12.062   7.635  40.248  1.00  0.00     0.161 HD
BRANCH  24  26
HETATM   26  C13 UNL     1     -12.796   9.461  41.047  1.00  0.00     0.167 C 
HETATM   27  S1  UNL     1     -13.193  10.135  39.622  1.00  0.00    -0.041 SA
BRANCH  26  28
HETATM   28  N4  UNL     1     -12.799  10.256  42.226  1.00  0.00    -0.367 N 
ATOM     29  H4  UNL     1     -12.024  10.195  42.886  1.00  0.00     0.161 HD
BRANCH  28  30
HETATM   30  C14 UNL     1     -13.890  11.138  42.483  1.00  0.00     0.124 C 
BRANCH  30  31
HETATM   31  C15 UNL     1     -14.304  11.163  43.935  1.00  0.00     0.051 C 
BRANCH  31  32
HETATM   32  C16 UNL     1     -13.571  10.139  44.757  1.00  0.00     0.128 C 
HETATM   33  C17 UNL     1     -14.431   9.481  45.797  1.00  0.00     0.058 C 
HETATM   34  C18 UNL     1     -14.573  10.496  46.933  1.00  0.00     0.174 C 
HETATM   35  O1  UNL     1     -13.303  10.732  47.395  1.00  0.00    -0.356 OA
HETATM   36  C19 UNL     1     -12.407  11.209  46.475  1.00  0.00     0.157 C 
HETATM   37  C20 UNL     1     -11.013  10.987  47.088  1.00  0.00     0.078 C 
HETATM   38  C21 UNL     1     -12.567  12.719  46.360  1.00  0.00     0.078 C 
HETATM   39  O2  UNL     1     -12.381  10.587  45.259  1.00  0.00    -0.350 OA
ENDBRANCH  31  32
ENDBRANCH  30  31
ENDBRANCH  28  30
ENDBRANCH  26  28
ENDBRANCH  24  26
ENDBRANCH  23  24
ENDBRANCH  22  23
ENDBRANCH  21  22
ENDBRANCH   1  21
TORSDOF 16
ENDMDL
