MODEL 1
REMARK VINA RESULT: -8.008786097      0.000      0.000
REMARK  13 active torsions:
REMARK  status: ('A' for Active; 'I' for Inactive)
REMARK    1  A    between atoms: C4_4  and  C5_5 
REMARK    2  A    between atoms: C5_5  and  C6_6 
REMARK    3  A    between atoms: C9_9  and  C10_10 
REMARK    4  A    between atoms: C10_10  and  C11_11 
REMARK    5  A    between atoms: C11_11  and  C12_12 
REMARK    6  A    between atoms: C11_11  and  C18_20 
REMARK    7  A    between atoms: C12_12  and  C13_13 
REMARK    8  A    between atoms: C14_14  and  C15_15 
REMARK    9  A    between atoms: C16_16  and  C17_17 
REMARK   10  A    between atoms: C18_20  and  C19_21 
REMARK   11  A    between atoms: C20_22  and  C21_23 
REMARK   12  A    between atoms: C21_23  and  O2_26 
REMARK   13  A    between atoms: C31_37  and  O5_38 
ROOT
HETATM    1  C6  UNL     1      15.538   8.036  47.102  1.00  0.00     0.018 C 
HETATM    2  C7  UNL     1      14.631   7.005  47.735  1.00  0.00     0.011 C 
HETATM    3  C8  UNL     1      14.356   5.920  46.749  1.00  0.00     0.035 C 
HETATM    4  C9  UNL     1      15.372   4.837  46.658  1.00  0.00    -0.070 C 
HETATM    5  C24 UNL     1      16.051   4.329  47.850  1.00  0.00     0.110 C 
HETATM    6  C25 UNL     1      16.854   3.077  47.447  1.00  0.00     0.025 C 
HETATM    7  C26 UNL     1      17.196   5.189  48.376  1.00  0.00     0.267 C 
HETATM    8  O3  UNL     1      17.334   4.913  49.621  1.00  0.00    -0.264 OA
HETATM    9  O4  UNL     1      17.823   6.009  47.579  1.00  0.00    -0.310 OA
HETATM   10  C27 UNL     1      18.475   7.163  47.362  1.00  0.00     0.066 C 
HETATM   11  C28 UNL     1      19.910   7.053  47.939  1.00  0.00     0.046 C 
HETATM   12  C29 UNL     1      18.743   7.327  45.855  1.00  0.00     0.046 C 
HETATM   13  C30 UNL     1      17.922   8.432  47.878  1.00  0.00     0.070 C 
HETATM   14  C31 UNL     1      16.478   8.561  48.105  1.00  0.00     0.125 C 
ENDROOT
BRANCH   4  15
HETATM   15  C10 UNL     1      15.078   3.892  45.574  1.00  0.00    -0.018 C 
BRANCH  15  16
HETATM   16  C11 UNL     1      13.817   3.439  45.079  1.00  0.00     0.015 C 
BRANCH  16  17
HETATM   17  C12 UNL     1      14.158   2.692  43.739  1.00  0.00     0.036 C 
BRANCH  17  18
HETATM   18  C13 UNL     1      14.121   3.577  42.600  1.00  0.00    -0.026 C 
HETATM   19  C14 UNL     1      12.975   4.129  42.126  1.00  0.00    -0.004 C 
BRANCH  19  20
HETATM   20  C15 UNL     1      12.987   4.998  40.997  1.00  0.00     0.005 C 
HETATM   21  C16 UNL     1      13.148   4.645  39.764  1.00  0.00     0.071 C 
BRANCH  21  22
HETATM   22  C17 UNL     1      13.348   3.341  39.238  1.00  0.00     0.254 C 
HETATM   23  N1  UNL     1      12.411   2.397  38.790  1.00  0.00    -0.058 NA
HETATM   24  O1  UNL     1      14.578   2.944  39.149  1.00  0.00    -0.272 OA
ENDBRANCH  21  22
ENDBRANCH  19  20
ENDBRANCH  17  18
ENDBRANCH  16  17
BRANCH  16  25
HETATM   25  C18 UNL     1      12.820   2.575  45.687  1.00  0.00     0.035 C 
BRANCH  25  26
HETATM   26  C19 UNL     1      12.272   2.865  47.024  1.00  0.00    -0.027 C 
HETATM   27  C20 UNL     1      11.184   3.492  47.351  1.00  0.00     0.006 C 
BRANCH  27  28
HETATM   28  C21 UNL     1      10.236   4.067  46.387  1.00  0.00     0.068 C 
HETATM   29  C22 UNL     1      10.917   5.128  45.510  1.00  0.00     0.050 C 
HETATM   30  C23 UNL     1       9.048   4.755  47.005  1.00  0.00     0.050 C 
BRANCH  28  31
HETATM   31  O2  UNL     1       9.830   3.032  45.521  1.00  0.00    -0.387 OA
ATOM     32  H2  UNL     1       8.883   2.968  45.574  1.00  0.00     0.211 HD
ENDBRANCH  28  31
ENDBRANCH  27  28
ENDBRANCH  25  26
ENDBRANCH  16  25
ENDBRANCH  15  16
ENDBRANCH   4  15
BRANCH   1  33
HETATM   33  C5  UNL     1      14.740   9.042  46.339  1.00  0.00     0.034 C 
BRANCH  33  34
HETATM   34  C4  UNL     1      13.819   8.562  45.325  1.00  0.00    -0.024 C 
HETATM   35  C2  UNL     1      14.231   8.318  44.093  1.00  0.00    -0.091 C 
HETATM   36  C1  UNL     1      15.643   8.514  43.658  1.00  0.00     0.042 C 
HETATM   37  C3  UNL     1      13.298   7.819  43.020  1.00  0.00     0.042 C 
ENDBRANCH  33  34
ENDBRANCH   1  33
BRANCH  14  38
HETATM   38  O5  UNL     1      16.202   8.111  49.422  1.00  0.00    -0.395 OA
ATOM     39  H5  UNL     1      16.949   8.175  50.005  1.00  0.00     0.210 HD
ENDBRANCH  14  38
TORSDOF 13
ENDMDL
MODEL 2
REMARK VINA RESULT: -7.780063916      3.900      6.447
REMARK  13 active torsions:
REMARK  status: ('A' for Active; 'I' for Inactive)
REMARK    1  A    between atoms: C4_4  and  C5_5 
REMARK    2  A    between atoms: C5_5  and  C6_6 
REMARK    3  A    between atoms: C9_9  and  C10_10 
REMARK    4  A    between atoms: C10_10  and  C11_11 
REMARK    5  A    between atoms: C11_11  and  C12_12 
REMARK    6  A    between atoms: C11_11  and  C18_20 
REMARK    7  A    between atoms: C12_12  and  C13_13 
REMARK    8  A    between atoms: C14_14  and  C15_15 
REMARK    9  A    between atoms: C16_16  and  C17_17 
REMARK   10  A    between atoms: C18_20  and  C19_21 
REMARK   11  A    between atoms: C20_22  and  C21_23 
REMARK   12  A    between atoms: C21_23  and  O2_26 
REMARK   13  A    between atoms: C31_37  and  O5_38 
ROOT
HETATM    1  C6  UNL     1      19.693   6.996  51.538  1.00  0.00     0.018 C 
HETATM    2  C7  UNL     1      19.479   5.931  50.486  1.00  0.00     0.011 C 
HETATM    3  C8  UNL     1      18.060   5.969  50.028  1.00  0.00     0.035 C 
HETATM    4  C9  UNL     1      17.736   6.957  48.963  1.00  0.00    -0.070 C 
HETATM    5  C24 UNL     1      18.667   7.228  47.869  1.00  0.00     0.110 C 
HETATM    6  C25 UNL     1      17.944   8.110  46.832  1.00  0.00     0.025 C 
HETATM    7  C26 UNL     1      19.830   8.159  48.205  1.00  0.00     0.267 C 
HETATM    8  O3  UNL     1      20.771   7.902  47.373  1.00  0.00    -0.264 OA
HETATM    9  O4  UNL     1      19.729   9.008  49.191  1.00  0.00    -0.310 OA
HETATM   10  C27 UNL     1      20.280   9.702  50.200  1.00  0.00     0.066 C 
HETATM   11  C28 UNL     1      21.095  10.885  49.617  1.00  0.00     0.046 C 
HETATM   12  C29 UNL     1      19.175  10.426  50.990  1.00  0.00     0.046 C 
HETATM   13  C30 UNL     1      21.173   9.023  51.161  1.00  0.00     0.070 C 
HETATM   14  C31 UNL     1      21.035   7.582  51.394  1.00  0.00     0.125 C 
ENDROOT
BRANCH   4  15
HETATM   15  C10 UNL     1      16.297   7.009  48.676  1.00  0.00    -0.018 C 
BRANCH  15  16
HETATM   16  C11 UNL     1      15.443   6.005  48.127  1.00  0.00     0.015 C 
BRANCH  16  17
HETATM   17  C12 UNL     1      14.383   6.799  47.280  1.00  0.00     0.036 C 
BRANCH  17  18
HETATM   18  C13 UNL     1      14.765   6.901  45.892  1.00  0.00    -0.026 C 
HETATM   19  C14 UNL     1      13.880   7.167  44.898  1.00  0.00    -0.004 C 
BRANCH  19  20
HETATM   20  C15 UNL     1      14.302   7.258  43.541  1.00  0.00     0.005 C 
HETATM   21  C16 UNL     1      14.792   8.306  42.962  1.00  0.00     0.071 C 
BRANCH  21  22
HETATM   22  C17 UNL     1      15.028   9.592  43.518  1.00  0.00     0.254 C 
HETATM   23  N1  UNL     1      16.153  10.088  44.195  1.00  0.00    -0.058 NA
HETATM   24  O1  UNL     1      14.070  10.453  43.389  1.00  0.00    -0.272 OA
ENDBRANCH  21  22
ENDBRANCH  19  20
ENDBRANCH  17  18
ENDBRANCH  16  17
BRANCH  16  25
HETATM   25  C18 UNL     1      15.749   4.866  47.278  1.00  0.00     0.035 C 
BRANCH  25  26
HETATM   26  C19 UNL     1      15.492   3.486  47.728  1.00  0.00    -0.027 C 
HETATM   27  C20 UNL     1      14.513   2.691  47.427  1.00  0.00     0.006 C 
BRANCH  27  28
HETATM   28  C21 UNL     1      13.406   3.040  46.525  1.00  0.00     0.068 C 
HETATM   29  C22 UNL     1      13.934   3.484  45.153  1.00  0.00     0.050 C 
HETATM   30  C23 UNL     1      12.531   4.166  47.007  1.00  0.00     0.050 C 
BRANCH  28  31
HETATM   31  O2  UNL     1      12.653   1.869  46.304  1.00  0.00    -0.387 OA
ATOM     32  H2  UNL     1      12.283   1.926  45.431  1.00  0.00     0.211 HD
ENDBRANCH  28  31
ENDBRANCH  27  28
ENDBRANCH  25  26
ENDBRANCH  16  25
ENDBRANCH  15  16
ENDBRANCH   4  15
BRANCH   1  33
HETATM   33  C5  UNL     1      19.327   6.481  52.891  1.00  0.00     0.034 C 
BRANCH  33  34
HETATM   34  C4  UNL     1      20.229   6.749  53.995  1.00  0.00    -0.024 C 
HETATM   35  C2  UNL     1      20.010   7.755  54.824  1.00  0.00    -0.091 C 
HETATM   36  C1  UNL     1      18.846   8.675  54.690  1.00  0.00     0.042 C 
HETATM   37  C3  UNL     1      20.929   8.057  55.979  1.00  0.00     0.042 C 
ENDBRANCH  33  34
ENDBRANCH   1  33
BRANCH  14  38
HETATM   38  O5  UNL     1      21.842   6.907  50.441  1.00  0.00    -0.395 OA
ATOM     39  H5  UNL     1      22.631   6.533  50.814  1.00  0.00     0.210 HD
ENDBRANCH  14  38
TORSDOF 13
ENDMDL
MODEL 3
REMARK VINA RESULT: -7.663218956      3.508      5.955
REMARK  13 active torsions:
REMARK  status: ('A' for Active; 'I' for Inactive)
REMARK    1  A    between atoms: C4_4  and  C5_5 
REMARK    2  A    between atoms: C5_5  and  C6_6 
REMARK    3  A    between atoms: C9_9  and  C10_10 
REMARK    4  A    between atoms: C10_10  and  C11_11 
REMARK    5  A    between atoms: C11_11  and  C12_12 
REMARK    6  A    between atoms: C11_11  and  C18_20 
REMARK    7  A    between atoms: C12_12  and  C13_13 
REMARK    8  A    between atoms: C14_14  and  C15_15 
REMARK    9  A    between atoms: C16_16  and  C17_17 
REMARK   10  A    between atoms: C18_20  and  C19_21 
REMARK   11  A    between atoms: C20_22  and  C21_23 
REMARK   12  A    between atoms: C21_23  and  O2_26 
REMARK   13  A    between atoms: C31_37  and  O5_38 
ROOT
HETATM    1  C6  UNL     1      19.316   6.964  51.431  1.00  0.00     0.018 C 
HETATM    2  C7  UNL     1      19.141   5.931  50.340  1.00  0.00     0.011 C 
HETATM    3  C8  UNL     1      17.738   5.983  49.834  1.00  0.00     0.035 C 
HETATM    4  C9  UNL     1      17.451   7.004  48.790  1.00  0.00    -0.070 C 
HETATM    5  C24 UNL     1      18.419   7.309  47.738  1.00  0.00     0.110 C 
HETATM    6  C25 UNL     1      17.732   8.222  46.704  1.00  0.00     0.025 C 
HETATM    7  C26 UNL     1      19.568   8.230  48.143  1.00  0.00     0.267 C 
HETATM    8  O3  UNL     1      20.539   7.998  47.337  1.00  0.00    -0.264 OA
HETATM    9  O4  UNL     1      19.431   9.047  49.150  1.00  0.00    -0.310 OA
HETATM   10  C27 UNL     1      19.946   9.710  50.199  1.00  0.00     0.066 C 
HETATM   11  C28 UNL     1      20.779  10.911  49.683  1.00  0.00     0.046 C 
HETATM   12  C29 UNL     1      18.812  10.409  50.972  1.00  0.00     0.046 C 
HETATM   13  C30 UNL     1      20.805   9.002  51.170  1.00  0.00     0.070 C 
HETATM   14  C31 UNL     1      20.661   7.554  51.353  1.00  0.00     0.125 C 
ENDROOT
BRANCH   4  15
HETATM   15  C10 UNL     1      16.023   7.064  48.453  1.00  0.00    -0.018 C 
BRANCH  15  16
HETATM   16  C11 UNL     1      15.193   6.082  47.831  1.00  0.00     0.015 C 
BRANCH  16  17
HETATM   17  C12 UNL     1      14.227   6.905  46.903  1.00  0.00     0.036 C 
BRANCH  17  18
HETATM   18  C13 UNL     1      14.686   6.939  45.535  1.00  0.00    -0.026 C 
HETATM   19  C14 UNL     1      14.043   7.621  44.554  1.00  0.00    -0.004 C 
BRANCH  19  20
HETATM   20  C15 UNL     1      14.534   7.626  43.216  1.00  0.00     0.005 C 
HETATM   21  C16 UNL     1      13.868   7.299  42.157  1.00  0.00     0.071 C 
BRANCH  21  22
HETATM   22  C17 UNL     1      12.518   6.867  42.063  1.00  0.00     0.254 C 
HETATM   23  N1  UNL     1      11.934   5.646  42.436  1.00  0.00    -0.058 NA
HETATM   24  O1  UNL     1      11.682   7.717  41.556  1.00  0.00    -0.272 OA
ENDBRANCH  21  22
ENDBRANCH  19  20
ENDBRANCH  17  18
ENDBRANCH  16  17
BRANCH  16  25
HETATM   25  C18 UNL     1      15.541   4.939  47.004  1.00  0.00     0.035 C 
BRANCH  25  26
HETATM   26  C19 UNL     1      15.363   3.560  47.493  1.00  0.00    -0.027 C 
HETATM   27  C20 UNL     1      14.382   2.736  47.294  1.00  0.00     0.006 C 
BRANCH  27  28
HETATM   28  C21 UNL     1      13.189   3.043  46.492  1.00  0.00     0.068 C 
HETATM   29  C22 UNL     1      13.579   3.528  45.088  1.00  0.00     0.050 C 
HETATM   30  C23 UNL     1      12.307   4.120  47.062  1.00  0.00     0.050 C 
BRANCH  28  31
HETATM   31  O2  UNL     1      12.475   1.841  46.316  1.00  0.00    -0.387 OA
ATOM     32  H2  UNL     1      12.354   1.450  47.174  1.00  0.00     0.211 HD
ENDBRANCH  28  31
ENDBRANCH  27  28
ENDBRANCH  25  26
ENDBRANCH  16  25
ENDBRANCH  15  16
ENDBRANCH   4  15
BRANCH   1  33
HETATM   33  C5  UNL     1      18.903   6.406  52.754  1.00  0.00     0.034 C 
BRANCH  33  34
HETATM   34  C4  UNL     1      19.854   6.457  53.848  1.00  0.00    -0.024 C 
HETATM   35  C2  UNL     1      19.764   7.383  54.787  1.00  0.00    -0.091 C 
HETATM   36  C1  UNL     1      18.700   8.427  54.794  1.00  0.00     0.042 C 
HETATM   37  C3  UNL     1      20.737   7.459  55.935  1.00  0.00     0.042 C 
ENDBRANCH  33  34
ENDBRANCH   1  33
BRANCH  14  38
HETATM   38  O5  UNL     1      21.502   6.909  50.409  1.00  0.00    -0.395 OA
ATOM     39  H5  UNL     1      22.426   6.993  50.611  1.00  0.00     0.210 HD
ENDBRANCH  14  38
TORSDOF 13
ENDMDL
MODEL 4
REMARK VINA RESULT: -7.624124471      3.666      6.616
REMARK  13 active torsions:
REMARK  status: ('A' for Active; 'I' for Inactive)
REMARK    1  A    between atoms: C4_4  and  C5_5 
REMARK    2  A    between atoms: C5_5  and  C6_6 
REMARK    3  A    between atoms: C9_9  and  C10_10 
REMARK    4  A    between atoms: C10_10  and  C11_11 
REMARK    5  A    between atoms: C11_11  and  C12_12 
REMARK    6  A    between atoms: C11_11  and  C18_20 
REMARK    7  A    between atoms: C12_12  and  C13_13 
REMARK    8  A    between atoms: C14_14  and  C15_15 
REMARK    9  A    between atoms: C16_16  and  C17_17 
REMARK   10  A    between atoms: C18_20  and  C19_21 
REMARK   11  A    between atoms: C20_22  and  C21_23 
REMARK   12  A    between atoms: C21_23  and  O2_26 
REMARK   13  A    between atoms: C31_37  and  O5_38 
ROOT
HETATM    1  C6  UNL     1      19.209   9.671  50.773  1.00  0.00     0.018 C 
HETATM    2  C7  UNL     1      17.749   9.380  50.503  1.00  0.00     0.011 C 
HETATM    3  C8  UNL     1      17.604   8.836  49.121  1.00  0.00     0.035 C 
HETATM    4  C9  UNL     1      17.832   7.374  48.960  1.00  0.00    -0.070 C 
HETATM    5  C24 UNL     1      17.381   6.418  49.969  1.00  0.00     0.110 C 
HETATM    6  C25 UNL     1      17.560   4.998  49.399  1.00  0.00     0.025 C 
HETATM    7  C26 UNL     1      18.269   6.293  51.205  1.00  0.00     0.267 C 
HETATM    8  O3  UNL     1      17.531   5.850  52.156  1.00  0.00    -0.264 OA
HETATM    9  O4  UNL     1      19.531   6.618  51.144  1.00  0.00    -0.310 OA
HETATM   10  C27 UNL     1      20.641   7.116  51.713  1.00  0.00     0.066 C 
HETATM   11  C28 UNL     1      21.236   6.059  52.678  1.00  0.00     0.046 C 
HETATM   12  C29 UNL     1      21.748   7.248  50.651  1.00  0.00     0.046 C 
HETATM   13  C30 UNL     1      20.575   8.379  52.478  1.00  0.00     0.070 C 
HETATM   14  C31 UNL     1      19.530   9.363  52.176  1.00  0.00     0.125 C 
ENDROOT
BRANCH   4  15
HETATM   15  C10 UNL     1      17.796   6.961  47.551  1.00  0.00    -0.018 C 
BRANCH  15  16
HETATM   16  C11 UNL     1      16.859   7.300  46.528  1.00  0.00     0.015 C 
BRANCH  16  17
HETATM   17  C12 UNL     1      15.463   6.859  47.101  1.00  0.00     0.036 C 
BRANCH  17  18
HETATM   18  C13 UNL     1      15.155   5.485  46.782  1.00  0.00    -0.026 C 
HETATM   19  C14 UNL     1      14.418   4.684  47.592  1.00  0.00    -0.004 C 
BRANCH  19  20
HETATM   20  C15 UNL     1      14.139   3.333  47.236  1.00  0.00     0.005 C 
HETATM   21  C16 UNL     1      12.984   2.853  46.908  1.00  0.00     0.071 C 
BRANCH  21  22
HETATM   22  C17 UNL     1      11.739   3.531  46.820  1.00  0.00     0.254 C 
HETATM   23  N1  UNL     1      10.870   3.954  47.838  1.00  0.00    -0.058 NA
HETATM   24  O1  UNL     1      11.325   3.811  45.626  1.00  0.00    -0.272 OA
ENDBRANCH  21  22
ENDBRANCH  19  20
ENDBRANCH  17  18
ENDBRANCH  16  17
BRANCH  16  25
HETATM   25  C18 UNL     1      16.564   8.579  45.905  1.00  0.00     0.035 C 
BRANCH  25  26
HETATM   26  C19 UNL     1      16.534   8.725  44.438  1.00  0.00    -0.027 C 
HETATM   27  C20 UNL     1      15.526   8.950  43.654  1.00  0.00     0.006 C 
BRANCH  27  28
HETATM   28  C21 UNL     1      14.138   9.110  44.109  1.00  0.00     0.068 C 
HETATM   29  C22 UNL     1      14.077   9.904  45.422  1.00  0.00     0.050 C 
HETATM   30  C23 UNL     1      13.412   7.820  44.381  1.00  0.00     0.050 C 
BRANCH  28  31
HETATM   31  O2  UNL     1      13.460   9.881  43.143  1.00  0.00    -0.387 OA
ATOM     32  H2  UNL     1      12.613   9.477  42.997  1.00  0.00     0.211 HD
ENDBRANCH  28  31
ENDBRANCH  27  28
ENDBRANCH  25  26
ENDBRANCH  16  25
ENDBRANCH  15  16
ENDBRANCH   4  15
BRANCH   1  33
HETATM   33  C5  UNL     1      19.573  11.034  50.285  1.00  0.00     0.034 C 
BRANCH  33  34
HETATM   34  C4  UNL     1      20.978  11.349  50.109  1.00  0.00    -0.024 C 
HETATM   35  C2  UNL     1      21.622  12.101  50.985  1.00  0.00    -0.091 C 
HETATM   36  C1  UNL     1      20.967  12.674  52.195  1.00  0.00     0.042 C 
HETATM   37  C3  UNL     1      23.081  12.444  50.829  1.00  0.00     0.042 C 
ENDBRANCH  33  34
ENDBRANCH   1  33
BRANCH  14  38
HETATM   38  O5  UNL     1      18.388   9.039  52.955  1.00  0.00    -0.395 OA
ATOM     39  H5  UNL     1      18.447   8.188  53.371  1.00  0.00     0.210 HD
ENDBRANCH  14  38
TORSDOF 13
ENDMDL
MODEL 5
REMARK VINA RESULT: -7.577558568      3.749      6.913
REMARK  13 active torsions:
REMARK  status: ('A' for Active; 'I' for Inactive)
REMARK    1  A    between atoms: C4_4  and  C5_5 
REMARK    2  A    between atoms: C5_5  and  C6_6 
REMARK    3  A    between atoms: C9_9  and  C10_10 
REMARK    4  A    between atoms: C10_10  and  C11_11 
REMARK    5  A    between atoms: C11_11  and  C12_12 
REMARK    6  A    between atoms: C11_11  and  C18_20 
REMARK    7  A    between atoms: C12_12  and  C13_13 
REMARK    8  A    between atoms: C14_14  and  C15_15 
REMARK    9  A    between atoms: C16_16  and  C17_17 
REMARK   10  A    between atoms: C18_20  and  C19_21 
REMARK   11  A    between atoms: C20_22  and  C21_23 
REMARK   12  A    between atoms: C21_23  and  O2_26 
REMARK   13  A    between atoms: C31_37  and  O5_38 
ROOT
HETATM    1  C6  UNL     1      19.939  10.056  50.372  1.00  0.00     0.018 C 
HETATM    2  C7  UNL     1      18.593  10.308  49.729  1.00  0.00     0.011 C 
HETATM    3  C8  UNL     1      18.448   9.430  48.531  1.00  0.00     0.035 C 
HETATM    4  C9  UNL     1      17.968   8.045  48.783  1.00  0.00    -0.070 C 
HETATM    5  C24 UNL     1      16.942   7.766  49.787  1.00  0.00     0.110 C 
HETATM    6  C25 UNL     1      16.511   6.294  49.636  1.00  0.00     0.025 C 
HETATM    7  C26 UNL     1      17.428   7.726  51.234  1.00  0.00     0.267 C 
HETATM    8  O3  UNL     1      16.414   7.978  51.979  1.00  0.00    -0.264 OA
HETATM    9  O4  UNL     1      18.678   7.469  51.501  1.00  0.00    -0.310 OA
HETATM   10  C27 UNL     1      19.772   7.637  52.263  1.00  0.00     0.066 C 
HETATM   11  C28 UNL     1      19.604   6.833  53.578  1.00  0.00     0.046 C 
HETATM   12  C29 UNL     1      20.971   6.933  51.602  1.00  0.00     0.046 C 
HETATM   13  C30 UNL     1      20.190   8.996  52.664  1.00  0.00     0.070 C 
HETATM   14  C31 UNL     1      19.821  10.149  51.836  1.00  0.00     0.125 C 
ENDROOT
BRANCH   4  15
HETATM   15  C10 UNL     1      17.984   7.225  47.565  1.00  0.00    -0.018 C 
BRANCH  15  16
HETATM   16  C11 UNL     1      17.094   7.238  46.448  1.00  0.00     0.015 C 
BRANCH  16  17
HETATM   17  C12 UNL     1      16.146   6.004  46.677  1.00  0.00     0.036 C 
BRANCH  17  18
HETATM   18  C13 UNL     1      14.802   6.261  46.219  1.00  0.00    -0.026 C 
HETATM   19  C14 UNL     1      13.770   5.406  46.433  1.00  0.00    -0.004 C 
BRANCH  19  20
HETATM   20  C15 UNL     1      12.458   5.701  45.963  1.00  0.00     0.005 C 
HETATM   21  C16 UNL     1      11.407   4.966  46.121  1.00  0.00     0.071 C 
BRANCH  21  22
HETATM   22  C17 UNL     1      11.296   3.715  46.786  1.00  0.00     0.254 C 
HETATM   23  N1  UNL     1      11.577   2.420  46.322  1.00  0.00    -0.058 NA
HETATM   24  O1  UNL     1      10.874   3.755  48.009  1.00  0.00    -0.272 OA
ENDBRANCH  21  22
ENDBRANCH  19  20
ENDBRANCH  17  18
ENDBRANCH  16  17
BRANCH  16  25
HETATM   25  C18 UNL     1      16.180   8.267  45.981  1.00  0.00     0.035 C 
BRANCH  25  26
HETATM   26  C19 UNL     1      16.521   9.129  44.835  1.00  0.00    -0.027 C 
HETATM   27  C20 UNL     1      15.740   9.693  43.968  1.00  0.00     0.006 C 
BRANCH  27  28
HETATM   28  C21 UNL     1      14.275   9.569  43.965  1.00  0.00     0.068 C 
HETATM   29  C22 UNL     1      13.703   9.767  45.376  1.00  0.00     0.050 C 
HETATM   30  C23 UNL     1      13.757   8.235  43.501  1.00  0.00     0.050 C 
BRANCH  28  31
HETATM   31  O2  UNL     1      13.762  10.617  43.174  1.00  0.00    -0.387 OA
ATOM     32  H2  UNL     1      13.799  11.412  43.693  1.00  0.00     0.211 HD
ENDBRANCH  28  31
ENDBRANCH  27  28
ENDBRANCH  25  26
ENDBRANCH  16  25
ENDBRANCH  15  16
ENDBRANCH   4  15
BRANCH   1  33
HETATM   33  C5  UNL     1      20.994  10.895  49.729  1.00  0.00     0.034 C 
BRANCH  33  34
HETATM   34  C4  UNL     1      22.326  10.885  50.306  1.00  0.00    -0.024 C 
HETATM   35  C2  UNL     1      22.763  11.903  51.027  1.00  0.00    -0.091 C 
HETATM   36  C1  UNL     1      21.940  13.116  51.297  1.00  0.00     0.042 C 
HETATM   37  C3  UNL     1      24.140  11.920  51.639  1.00  0.00     0.042 C 
ENDBRANCH  33  34
ENDBRANCH   1  33
BRANCH  14  38
HETATM   38  O5  UNL     1      18.548  10.606  52.268  1.00  0.00    -0.395 OA
ATOM     39  H5  UNL     1      17.841  10.014  52.042  1.00  0.00     0.210 HD
ENDBRANCH  14  38
TORSDOF 13
ENDMDL
