MODEL 1
REMARK VINA RESULT: -7.088599468      0.000      0.000
REMARK  18 active torsions:
REMARK  status: ('A' for Active; 'I' for Inactive)
REMARK    1  A    between atoms: C2_2  and  O1_3 
REMARK    2  A    between atoms: O1_3  and  C3_4 
REMARK    3  A    between atoms: C3_4  and  C4_6 
REMARK    4  A    between atoms: C4_6  and  C5_7 
REMARK    5  A    between atoms: C4_6  and  N1_11 
REMARK    6  A    between atoms: C5_7  and  C6_8 
REMARK    7  A    between atoms: C6_8  and  S1_9 
REMARK    8  A    between atoms: N1_11  and  C8_13 
REMARK    9  A    between atoms: C8_13  and  O3_14 
REMARK   10  A    between atoms: C9_16  and  C10_17 
REMARK   11  A    between atoms: C9_16  and  N3_36 
REMARK   12  A    between atoms: C10_17  and  C11_18 
REMARK   13  A    between atoms: C14_22  and  O4_23 
REMARK   14  A    between atoms: C15_25  and  N2_26 
REMARK   15  A    between atoms: N2_26  and  C16_28 
REMARK   16  A    between atoms: C16_28  and  C19_31 
REMARK       I    between atoms: N3_36  and  C24_38 
REMARK       I    between atoms: C24_38  and  N4_40 
REMARK   17  A    between atoms: N4_40  and  C25_42 
REMARK   18  A    between atoms: C25_42  and  C28_45 
ROOT
HETATM    1  C8  UNL     1      13.740  22.319  12.470  1.00  0.00     0.160 C 
HETATM    2  C9  UNL     1      13.091  23.590  12.681  1.00  0.00     0.068 C 
ENDROOT
BRANCH   2   3
HETATM    3  C10 UNL     1      13.444  24.485  13.798  1.00  0.00     0.100 C 
BRANCH   3   4
HETATM    4  C11 UNL     1      14.681  25.273  13.576  1.00  0.00    -0.049 A 
HETATM    5  C12 UNL     1      14.502  26.491  12.912  1.00  0.00     0.029 A 
HETATM    6  C13 UNL     1      15.548  27.311  12.548  1.00  0.00     0.046 A 
HETATM    7 BR1  UNL     1      15.333  28.978  11.658  1.00  0.00    -0.048 Br
HETATM    8  C14 UNL     1      16.829  26.881  12.868  1.00  0.00     0.109 A 
HETATM    9  C15 UNL     1      17.062  25.671  13.530  1.00  0.00     0.064 A 
HETATM   10  C23 UNL     1      15.960  24.923  13.853  1.00  0.00     0.039 A 
BRANCH   8  11
HETATM   11  O4  UNL     1      17.882  27.704  12.502  1.00  0.00    -0.357 OA
ATOM     12  H4  UNL     1      18.651  27.285  12.132  1.00  0.00     0.217 HD
ENDBRANCH   8  11
BRANCH   9  13
HETATM   13  N2  UNL     1      18.382  25.278  13.813  1.00  0.00    -0.378 N 
ATOM     14  H2  UNL     1      18.891  24.822  13.056  1.00  0.00     0.160 HD
BRANCH  13  15
HETATM   15  C16 UNL     1      19.092  25.446  15.043  1.00  0.00     0.029 C 
HETATM   16  C17 UNL     1      18.619  26.639  15.831  1.00  0.00     0.039 C 
HETATM   17  C18 UNL     1      18.932  24.238  15.959  1.00  0.00     0.039 C 
BRANCH  15  18
HETATM   18  C19 UNL     1      20.590  25.581  14.802  1.00  0.00    -0.027 C 
HETATM   19  C20 UNL     1      20.891  26.795  13.978  1.00  0.00     0.017 C 
HETATM   20  C21 UNL     1      21.289  25.718  16.142  1.00  0.00     0.017 C 
HETATM   21  C22 UNL     1      21.148  24.384  14.109  1.00  0.00     0.017 C 
ENDBRANCH  15  18
ENDBRANCH  13  15
ENDBRANCH   9  13
ENDBRANCH   3   4
ENDBRANCH   2   3
BRANCH   2  22
HETATM   22  N3  UNL     1      12.818  24.220  11.401  1.00  0.00    -0.308 N 
HETATM   23  C24 UNL     1      11.996  25.271  11.074  1.00  0.00     0.321 C 
HETATM   24  O5  UNL     1      11.340  25.911  11.946  1.00  0.00    -0.247 OA
HETATM   25  N4  UNL     1      11.801  25.749   9.741  1.00  0.00    -0.334 N 
ATOM     26  H4  UNL     1      12.277  25.247   8.991  1.00  0.00     0.165 HD
ATOM     27  H3  UNL     1      13.320  23.814  10.613  1.00  0.00     0.170 HD
BRANCH  25  28
HETATM   28  C25 UNL     1      10.999  26.864   9.374  1.00  0.00     0.027 C 
HETATM   29  C26 UNL     1      10.767  26.809   7.881  1.00  0.00     0.038 C 
HETATM   30  C27 UNL     1       9.683  26.925  10.075  1.00  0.00     0.038 C 
BRANCH  28  31
HETATM   31  C28 UNL     1      11.717  28.177   9.665  1.00  0.00     0.026 C 
HETATM   32  C29 UNL     1      12.776  28.455   8.627  1.00  0.00     0.007 C 
ENDBRANCH  28  31
ENDBRANCH  25  28
ENDBRANCH   2  22
BRANCH   1  33
HETATM   33  N1  UNL     1      14.853  21.806  13.102  1.00  0.00    -0.356 N 
ATOM     34  H1  UNL     1      15.018  21.980  14.093  1.00  0.00     0.162 HD
BRANCH  33  35
HETATM   35  C4  UNL     1      15.814  20.986  12.296  1.00  0.00     0.184 C 
BRANCH  35  36
HETATM   36  C3  UNL     1      17.096  21.667  12.421  1.00  0.00     0.281 C 
HETATM   37  O2  UNL     1      17.535  22.074  13.505  1.00  0.00    -0.263 OA
BRANCH  36  38
HETATM   38  O1  UNL     1      17.886  21.891  11.288  1.00  0.00    -0.320 OA
BRANCH  38  39
HETATM   39  C2  UNL     1      19.008  22.754  11.320  1.00  0.00     0.174 C 
HETATM   40  C1  UNL     1      18.837  24.011  10.533  1.00  0.00     0.034 C 
ENDBRANCH  38  39
ENDBRANCH  36  38
ENDBRANCH  35  36
BRANCH  35  41
HETATM   41  C5  UNL     1      15.840  19.644  12.967  1.00  0.00     0.045 C 
BRANCH  41  42
HETATM   42  C6  UNL     1      15.259  19.707  14.343  1.00  0.00     0.076 C 
BRANCH  42  43
HETATM   43  S1  UNL     1      16.090  18.474  15.391  1.00  0.00    -0.173 SA
HETATM   44  C7  UNL     1      17.099  19.319  16.651  1.00  0.00     0.089 C 
ENDBRANCH  42  43
ENDBRANCH  41  42
ENDBRANCH  35  41
ENDBRANCH  33  35
ENDBRANCH   1  33
BRANCH   1  45
HETATM   45  O3  UNL     1      13.192  21.569  11.549  1.00  0.00    -0.345 OA
ATOM     46  H3  UNL     1      12.318  21.244  11.730  1.00  0.00     0.219 HD
ENDBRANCH   1  45
TORSDOF 18
ENDMDL
MODEL 2
REMARK VINA RESULT: -7.020990182      2.675      7.035
REMARK  18 active torsions:
REMARK  status: ('A' for Active; 'I' for Inactive)
REMARK    1  A    between atoms: C2_2  and  O1_3 
REMARK    2  A    between atoms: O1_3  and  C3_4 
REMARK    3  A    between atoms: C3_4  and  C4_6 
REMARK    4  A    between atoms: C4_6  and  C5_7 
REMARK    5  A    between atoms: C4_6  and  N1_11 
REMARK    6  A    between atoms: C5_7  and  C6_8 
REMARK    7  A    between atoms: C6_8  and  S1_9 
REMARK    8  A    between atoms: N1_11  and  C8_13 
REMARK    9  A    between atoms: C8_13  and  O3_14 
REMARK   10  A    between atoms: C9_16  and  C10_17 
REMARK   11  A    between atoms: C9_16  and  N3_36 
REMARK   12  A    between atoms: C10_17  and  C11_18 
REMARK   13  A    between atoms: C14_22  and  O4_23 
REMARK   14  A    between atoms: C15_25  and  N2_26 
REMARK   15  A    between atoms: N2_26  and  C16_28 
REMARK   16  A    between atoms: C16_28  and  C19_31 
REMARK       I    between atoms: N3_36  and  C24_38 
REMARK       I    between atoms: C24_38  and  N4_40 
REMARK   17  A    between atoms: N4_40  and  C25_42 
REMARK   18  A    between atoms: C25_42  and  C28_45 
ROOT
HETATM    1  C8  UNL     1      12.481  24.172  11.466  1.00  0.00     0.160 C 
HETATM    2  C9  UNL     1      13.387  24.032  12.579  1.00  0.00     0.068 C 
ENDROOT
BRANCH   2   3
HETATM    3  C10 UNL     1      13.506  25.050  13.638  1.00  0.00     0.100 C 
BRANCH   3   4
HETATM    4  C11 UNL     1      14.893  25.518  13.878  1.00  0.00    -0.049 A 
HETATM    5  C12 UNL     1      15.073  26.292  15.029  1.00  0.00     0.029 A 
HETATM    6  C13 UNL     1      16.274  26.879  15.362  1.00  0.00     0.046 A 
HETATM    7 BR1  UNL     1      16.550  27.924  16.927  1.00  0.00    -0.048 Br
HETATM    8  C14 UNL     1      17.339  26.677  14.493  1.00  0.00     0.109 A 
HETATM    9  C15 UNL     1      17.211  25.913  13.328  1.00  0.00     0.064 A 
HETATM   10  C23 UNL     1      15.978  25.367  13.081  1.00  0.00     0.039 A 
BRANCH   8  11
HETATM   11  O4  UNL     1      18.547  27.268  14.826  1.00  0.00    -0.357 OA
ATOM     12  H4  UNL     1      19.105  27.546  14.110  1.00  0.00     0.217 HD
ENDBRANCH   8  11
BRANCH   9  13
HETATM   13  N2  UNL     1      18.319  25.757  12.476  1.00  0.00    -0.378 N 
ATOM     14  H2  UNL     1      18.399  26.423  11.709  1.00  0.00     0.160 HD
BRANCH  13  15
HETATM   15  C16 UNL     1      19.348  24.767  12.566  1.00  0.00     0.029 C 
HETATM   16  C17 UNL     1      20.728  25.366  12.638  1.00  0.00     0.039 C 
HETATM   17  C18 UNL     1      19.193  23.899  13.809  1.00  0.00     0.039 C 
BRANCH  15  18
HETATM   18  C19 UNL     1      19.293  23.806  11.386  1.00  0.00    -0.027 C 
HETATM   19  C20 UNL     1      20.671  23.463  10.911  1.00  0.00     0.017 C 
HETATM   20  C21 UNL     1      18.600  22.531  11.828  1.00  0.00     0.017 C 
HETATM   21  C22 UNL     1      18.524  24.379  10.242  1.00  0.00     0.017 C 
ENDBRANCH  15  18
ENDBRANCH  13  15
ENDBRANCH   9  13
ENDBRANCH   3   4
ENDBRANCH   2   3
BRANCH   2  22
HETATM   22  N3  UNL     1      13.435  22.642  13.001  1.00  0.00    -0.308 N 
HETATM   23  C24 UNL     1      14.503  21.815  13.251  1.00  0.00     0.321 C 
HETATM   24  O5  UNL     1      15.700  22.217  13.175  1.00  0.00    -0.247 OA
HETATM   25  N4  UNL     1      14.379  20.440  13.620  1.00  0.00    -0.334 N 
ATOM     26  H4  UNL     1      13.437  20.050  13.661  1.00  0.00     0.165 HD
ATOM     27  H3  UNL     1      12.522  22.208  13.134  1.00  0.00     0.170 HD
BRANCH  25  28
HETATM   28  C25 UNL     1      15.458  19.570  13.935  1.00  0.00     0.027 C 
HETATM   29  C26 UNL     1      16.303  19.394  12.694  1.00  0.00     0.038 C 
HETATM   30  C27 UNL     1      16.322  20.053  15.054  1.00  0.00     0.038 C 
BRANCH  28  31
HETATM   31  C28 UNL     1      14.954  18.187  14.331  1.00  0.00     0.026 C 
HETATM   32  C29 UNL     1      15.784  17.611  15.451  1.00  0.00     0.007 C 
ENDBRANCH  28  31
ENDBRANCH  25  28
ENDBRANCH   2  22
BRANCH   1  33
HETATM   33  N1  UNL     1      11.492  25.114  11.275  1.00  0.00    -0.356 N 
ATOM     34  H1  UNL     1      10.663  25.131  11.869  1.00  0.00     0.162 HD
BRANCH  33  35
HETATM   35  C4  UNL     1      11.666  26.114  10.172  1.00  0.00     0.184 C 
BRANCH  35  36
HETATM   36  C3  UNL     1      10.421  26.869  10.141  1.00  0.00     0.281 C 
HETATM   37  O2  UNL     1       9.896  27.337  11.161  1.00  0.00    -0.263 OA
BRANCH  36  38
HETATM   38  O1  UNL     1       9.763  27.089   8.926  1.00  0.00    -0.320 OA
BRANCH  38  39
HETATM   39  C2  UNL     1       8.388  27.424   8.873  1.00  0.00     0.174 C 
HETATM   40  C1  UNL     1       7.723  27.077   7.582  1.00  0.00     0.034 C 
ENDBRANCH  38  39
ENDBRANCH  36  38
ENDBRANCH  35  36
BRANCH  35  41
HETATM   41  C5  UNL     1      12.818  26.974  10.604  1.00  0.00     0.045 C 
BRANCH  41  42
HETATM   42  C6  UNL     1      13.043  28.108   9.656  1.00  0.00     0.076 C 
BRANCH  42  43
HETATM   43  S1  UNL     1      13.928  29.438  10.525  1.00  0.00    -0.173 SA
HETATM   44  C7  UNL     1      14.999  28.722  11.814  1.00  0.00     0.089 C 
ENDBRANCH  42  43
ENDBRANCH  41  42
ENDBRANCH  35  41
ENDBRANCH  33  35
ENDBRANCH   1  33
BRANCH   1  45
HETATM   45  O3  UNL     1      12.624  23.275  10.524  1.00  0.00    -0.345 OA
ATOM     46  H3  UNL     1      12.094  22.490  10.601  1.00  0.00     0.219 HD
ENDBRANCH   1  45
TORSDOF 18
ENDMDL
MODEL 3
REMARK VINA RESULT: -6.933168327      2.240      4.080
REMARK  18 active torsions:
REMARK  status: ('A' for Active; 'I' for Inactive)
REMARK    1  A    between atoms: C2_2  and  O1_3 
REMARK    2  A    between atoms: O1_3  and  C3_4 
REMARK    3  A    between atoms: C3_4  and  C4_6 
REMARK    4  A    between atoms: C4_6  and  C5_7 
REMARK    5  A    between atoms: C4_6  and  N1_11 
REMARK    6  A    between atoms: C5_7  and  C6_8 
REMARK    7  A    between atoms: C6_8  and  S1_9 
REMARK    8  A    between atoms: N1_11  and  C8_13 
REMARK    9  A    between atoms: C8_13  and  O3_14 
REMARK   10  A    between atoms: C9_16  and  C10_17 
REMARK   11  A    between atoms: C9_16  and  N3_36 
REMARK   12  A    between atoms: C10_17  and  C11_18 
REMARK   13  A    between atoms: C14_22  and  O4_23 
REMARK   14  A    between atoms: C15_25  and  N2_26 
REMARK   15  A    between atoms: N2_26  and  C16_28 
REMARK   16  A    between atoms: C16_28  and  C19_31 
REMARK       I    between atoms: N3_36  and  C24_38 
REMARK       I    between atoms: C24_38  and  N4_40 
REMARK   17  A    between atoms: N4_40  and  C25_42 
REMARK   18  A    between atoms: C25_42  and  C28_45 
ROOT
HETATM    1  C8  UNL     1      13.378  22.555  12.363  1.00  0.00     0.160 C 
HETATM    2  C9  UNL     1      12.714  23.821  12.177  1.00  0.00     0.068 C 
ENDROOT
BRANCH   2   3
HETATM    3  C10 UNL     1      12.921  24.966  13.082  1.00  0.00     0.100 C 
BRANCH   3   4
HETATM    4  C11 UNL     1      14.150  25.747  12.801  1.00  0.00    -0.049 A 
HETATM    5  C12 UNL     1      15.313  25.276  13.419  1.00  0.00     0.029 A 
HETATM    6  C13 UNL     1      16.526  25.924  13.337  1.00  0.00     0.046 A 
HETATM    7 BR1  UNL     1      18.125  25.298  14.155  1.00  0.00    -0.048 Br
HETATM    8  C14 UNL     1      16.565  27.101  12.600  1.00  0.00     0.109 A 
HETATM    9  C15 UNL     1      15.431  27.615  11.964  1.00  0.00     0.064 A 
HETATM   10  C23 UNL     1      14.269  26.900  12.100  1.00  0.00     0.039 A 
BRANCH   8  11
HETATM   11  O4  UNL     1      17.784  27.754  12.517  1.00  0.00    -0.357 OA
ATOM     12  H4  UNL     1      17.856  28.457  11.883  1.00  0.00     0.217 HD
ENDBRANCH   8  11
BRANCH   9  13
HETATM   13  N2  UNL     1      15.526  28.821  11.245  1.00  0.00    -0.378 N 
ATOM     14  H2  UNL     1      15.621  28.738  10.233  1.00  0.00     0.160 HD
BRANCH  13  15
HETATM   15  C16 UNL     1      15.504  30.149  11.774  1.00  0.00     0.029 C 
HETATM   16  C17 UNL     1      15.363  30.177  13.273  1.00  0.00     0.039 C 
HETATM   17  C18 UNL     1      16.785  30.909  11.450  1.00  0.00     0.039 C 
BRANCH  15  18
HETATM   18  C19 UNL     1      14.376  30.969  11.161  1.00  0.00    -0.027 C 
HETATM   19  C20 UNL     1      13.314  31.260  12.176  1.00  0.00     0.017 C 
HETATM   20  C21 UNL     1      14.944  32.284  10.661  1.00  0.00     0.017 C 
HETATM   21  C22 UNL     1      13.749  30.266  10.004  1.00  0.00     0.017 C 
ENDBRANCH  15  18
ENDBRANCH  13  15
ENDBRANCH   9  13
ENDBRANCH   3   4
ENDBRANCH   2   3
BRANCH   2  22
HETATM   22  N3  UNL     1      12.615  24.120  10.759  1.00  0.00    -0.308 N 
HETATM   23  C24 UNL     1      11.892  25.078  10.090  1.00  0.00     0.321 C 
HETATM   24  O5  UNL     1      11.181  25.931  10.696  1.00  0.00    -0.247 OA
HETATM   25  N4  UNL     1      11.869  25.213   8.668  1.00  0.00    -0.334 N 
ATOM     26  H4  UNL     1      12.395  24.529   8.124  1.00  0.00     0.165 HD
ATOM     27  H3  UNL     1      13.177  23.518  10.159  1.00  0.00     0.170 HD
BRANCH  25  28
HETATM   28  C25 UNL     1      11.173  26.223   7.947  1.00  0.00     0.027 C 
HETATM   29  C26 UNL     1       9.689  25.979   8.102  1.00  0.00     0.038 C 
HETATM   30  C27 UNL     1      11.492  27.614   8.386  1.00  0.00     0.038 C 
BRANCH  28  31
HETATM   31  C28 UNL     1      11.484  26.147   6.456  1.00  0.00     0.026 C 
HETATM   32  C29 UNL     1      10.218  26.221   5.638  1.00  0.00     0.007 C 
ENDBRANCH  28  31
ENDBRANCH  25  28
ENDBRANCH   2  22
BRANCH   1  33
HETATM   33  N1  UNL     1      14.394  22.237  13.238  1.00  0.00    -0.356 N 
ATOM     34  H1  UNL     1      14.542  22.781  14.088  1.00  0.00     0.162 HD
BRANCH  33  35
HETATM   35  C4  UNL     1      15.277  21.071  12.910  1.00  0.00     0.184 C 
BRANCH  35  36
HETATM   36  C3  UNL     1      16.635  21.595  12.957  1.00  0.00     0.281 C 
HETATM   37  O2  UNL     1      17.198  21.906  14.016  1.00  0.00    -0.263 OA
BRANCH  36  38
HETATM   38  O1  UNL     1      17.360  21.773  11.773  1.00  0.00    -0.320 OA
BRANCH  38  39
HETATM   39  C2  UNL     1      18.637  22.386  11.766  1.00  0.00     0.174 C 
HETATM   40  C1  UNL     1      18.781  23.489  10.770  1.00  0.00     0.034 C 
ENDBRANCH  38  39
ENDBRANCH  36  38
ENDBRANCH  35  36
BRANCH  35  41
HETATM   41  C5  UNL     1      15.036  20.078  14.009  1.00  0.00     0.045 C 
BRANCH  41  42
HETATM   42  C6  UNL     1      15.677  18.761  13.710  1.00  0.00     0.076 C 
BRANCH  42  43
HETATM   43  S1  UNL     1      16.156  17.968  15.275  1.00  0.00    -0.173 SA
HETATM   44  C7  UNL     1      16.877  19.210  16.397  1.00  0.00     0.089 C 
ENDBRANCH  42  43
ENDBRANCH  41  42
ENDBRANCH  35  41
ENDBRANCH  33  35
ENDBRANCH   1  33
BRANCH   1  45
HETATM   45  O3  UNL     1      12.951  21.592  11.586  1.00  0.00    -0.345 OA
ATOM     46  H3  UNL     1      12.805  20.747  11.997  1.00  0.00     0.219 HD
ENDBRANCH   1  45
TORSDOF 18
ENDMDL
MODEL 4
REMARK VINA RESULT: -6.868253835      2.830      6.848
REMARK  18 active torsions:
REMARK  status: ('A' for Active; 'I' for Inactive)
REMARK    1  A    between atoms: C2_2  and  O1_3 
REMARK    2  A    between atoms: O1_3  and  C3_4 
REMARK    3  A    between atoms: C3_4  and  C4_6 
REMARK    4  A    between atoms: C4_6  and  C5_7 
REMARK    5  A    between atoms: C4_6  and  N1_11 
REMARK    6  A    between atoms: C5_7  and  C6_8 
REMARK    7  A    between atoms: C6_8  and  S1_9 
REMARK    8  A    between atoms: N1_11  and  C8_13 
REMARK    9  A    between atoms: C8_13  and  O3_14 
REMARK   10  A    between atoms: C9_16  and  C10_17 
REMARK   11  A    between atoms: C9_16  and  N3_36 
REMARK   12  A    between atoms: C10_17  and  C11_18 
REMARK   13  A    between atoms: C14_22  and  O4_23 
REMARK   14  A    between atoms: C15_25  and  N2_26 
REMARK   15  A    between atoms: N2_26  and  C16_28 
REMARK   16  A    between atoms: C16_28  and  C19_31 
REMARK       I    between atoms: N3_36  and  C24_38 
REMARK       I    between atoms: C24_38  and  N4_40 
REMARK   17  A    between atoms: N4_40  and  C25_42 
REMARK   18  A    between atoms: C25_42  and  C28_45 
ROOT
HETATM    1  C8  UNL     1      12.660  24.098  11.603  1.00  0.00     0.160 C 
HETATM    2  C9  UNL     1      13.608  24.012  12.686  1.00  0.00     0.068 C 
ENDROOT
BRANCH   2   3
HETATM    3  C10 UNL     1      13.819  25.110  13.646  1.00  0.00     0.100 C 
BRANCH   3   4
HETATM    4  C11 UNL     1      15.232  25.294  14.058  1.00  0.00    -0.049 A 
HETATM    5  C12 UNL     1      16.168  25.255  13.019  1.00  0.00     0.029 A 
HETATM    6  C13 UNL     1      17.528  25.323  13.228  1.00  0.00     0.046 A 
HETATM    7 BR1  UNL     1      18.821  25.288  11.833  1.00  0.00    -0.048 Br
HETATM    8  C14 UNL     1      17.961  25.433  14.543  1.00  0.00     0.109 A 
HETATM    9  C15 UNL     1      17.067  25.474  15.617  1.00  0.00     0.064 A 
HETATM   10  C23 UNL     1      15.732  25.402  15.312  1.00  0.00     0.039 A 
BRANCH   8  11
HETATM   11  O4  UNL     1      19.329  25.501  14.754  1.00  0.00    -0.357 OA
ATOM     12  H4  UNL     1      19.735  26.357  14.688  1.00  0.00     0.217 HD
ENDBRANCH   8  11
BRANCH   9  13
HETATM   13  N2  UNL     1      17.563  25.569  16.930  1.00  0.00    -0.378 N 
ATOM     14  H2  UNL     1      17.801  26.504  17.258  1.00  0.00     0.160 HD
BRANCH  13  15
HETATM   15  C16 UNL     1      17.773  24.499  17.856  1.00  0.00     0.029 C 
HETATM   16  C17 UNL     1      16.763  24.490  18.974  1.00  0.00     0.039 C 
HETATM   17  C18 UNL     1      17.675  23.137  17.180  1.00  0.00     0.039 C 
BRANCH  15  18
HETATM   18  C19 UNL     1      19.170  24.558  18.460  1.00  0.00    -0.027 C 
HETATM   19  C20 UNL     1      19.130  24.274  19.930  1.00  0.00     0.017 C 
HETATM   20  C21 UNL     1      20.036  23.510  17.787  1.00  0.00     0.017 C 
HETATM   21  C22 UNL     1      19.807  25.891  18.249  1.00  0.00     0.017 C 
ENDBRANCH  15  18
ENDBRANCH  13  15
ENDBRANCH   9  13
ENDBRANCH   3   4
ENDBRANCH   2   3
BRANCH   2  22
HETATM   22  N3  UNL     1      13.615  22.663  13.226  1.00  0.00    -0.308 N 
HETATM   23  C24 UNL     1      14.630  21.744  13.338  1.00  0.00     0.321 C 
HETATM   24  O5  UNL     1      15.817  22.004  12.983  1.00  0.00    -0.247 OA
HETATM   25  N4  UNL     1      14.460  20.425  13.860  1.00  0.00    -0.334 N 
ATOM     26  H4  UNL     1      13.516  20.146  14.128  1.00  0.00     0.165 HD
ATOM     27  H3  UNL     1      12.714  22.345  13.582  1.00  0.00     0.170 HD
BRANCH  25  28
HETATM   28  C25 UNL     1      15.497  19.468  14.036  1.00  0.00     0.027 C 
HETATM   29  C26 UNL     1      14.870  18.169  14.489  1.00  0.00     0.038 C 
HETATM   30  C27 UNL     1      16.312  19.221  12.810  1.00  0.00     0.038 C 
BRANCH  28  31
HETATM   31  C28 UNL     1      16.464  19.901  15.132  1.00  0.00     0.026 C 
HETATM   32  C29 UNL     1      16.682  18.790  16.129  1.00  0.00     0.007 C 
ENDBRANCH  28  31
ENDBRANCH  25  28
ENDBRANCH   2  22
BRANCH   1  33
HETATM   33  N1  UNL     1      11.705  25.066  11.371  1.00  0.00    -0.356 N 
ATOM     34  H1  UNL     1      10.875  25.134  11.960  1.00  0.00     0.162 HD
BRANCH  33  35
HETATM   35  C4  UNL     1      11.918  26.016  10.231  1.00  0.00     0.184 C 
BRANCH  35  36
HETATM   36  C3  UNL     1      10.637  26.684  10.047  1.00  0.00     0.281 C 
HETATM   37  O2  UNL     1      10.001  27.184  10.985  1.00  0.00    -0.263 OA
BRANCH  36  38
HETATM   38  O1  UNL     1      10.071  26.779   8.770  1.00  0.00    -0.320 OA
BRANCH  38  39
HETATM   39  C2  UNL     1      10.458  25.914   7.718  1.00  0.00     0.174 C 
HETATM   40  C1  UNL     1      11.315  26.559   6.679  1.00  0.00     0.034 C 
ENDBRANCH  38  39
ENDBRANCH  36  38
ENDBRANCH  35  36
BRANCH  35  41
HETATM   41  C5  UNL     1      12.970  26.972  10.712  1.00  0.00     0.045 C 
BRANCH  41  42
HETATM   42  C6  UNL     1      13.137  28.123   9.772  1.00  0.00     0.076 C 
BRANCH  42  43
HETATM   43  S1  UNL     1      14.114  29.418  10.593  1.00  0.00    -0.173 SA
HETATM   44  C7  UNL     1      15.077  28.689  11.959  1.00  0.00     0.089 C 
ENDBRANCH  42  43
ENDBRANCH  41  42
ENDBRANCH  35  41
ENDBRANCH  33  35
ENDBRANCH   1  33
BRANCH   1  45
HETATM   45  O3  UNL     1      12.722  23.118  10.739  1.00  0.00    -0.345 OA
ATOM     46  H3  UNL     1      12.984  22.270  11.077  1.00  0.00     0.219 HD
ENDBRANCH   1  45
TORSDOF 18
ENDMDL
MODEL 5
REMARK VINA RESULT: -6.797019649      2.595      6.863
REMARK  18 active torsions:
REMARK  status: ('A' for Active; 'I' for Inactive)
REMARK    1  A    between atoms: C2_2  and  O1_3 
REMARK    2  A    between atoms: O1_3  and  C3_4 
REMARK    3  A    between atoms: C3_4  and  C4_6 
REMARK    4  A    between atoms: C4_6  and  C5_7 
REMARK    5  A    between atoms: C4_6  and  N1_11 
REMARK    6  A    between atoms: C5_7  and  C6_8 
REMARK    7  A    between atoms: C6_8  and  S1_9 
REMARK    8  A    between atoms: N1_11  and  C8_13 
REMARK    9  A    between atoms: C8_13  and  O3_14 
REMARK   10  A    between atoms: C9_16  and  C10_17 
REMARK   11  A    between atoms: C9_16  and  N3_36 
REMARK   12  A    between atoms: C10_17  and  C11_18 
REMARK   13  A    between atoms: C14_22  and  O4_23 
REMARK   14  A    between atoms: C15_25  and  N2_26 
REMARK   15  A    between atoms: N2_26  and  C16_28 
REMARK   16  A    between atoms: C16_28  and  C19_31 
REMARK       I    between atoms: N3_36  and  C24_38 
REMARK       I    between atoms: C24_38  and  N4_40 
REMARK   17  A    between atoms: N4_40  and  C25_42 
REMARK   18  A    between atoms: C25_42  and  C28_45 
ROOT
HETATM    1  C8  UNL     1      12.188  24.136  10.963  1.00  0.00     0.160 C 
HETATM    2  C9  UNL     1      13.069  24.141  12.105  1.00  0.00     0.068 C 
ENDROOT
BRANCH   2   3
HETATM    3  C10 UNL     1      13.062  25.222  13.107  1.00  0.00     0.100 C 
BRANCH   3   4
HETATM    4  C11 UNL     1      14.274  26.077  13.084  1.00  0.00    -0.049 A 
HETATM    5  C12 UNL     1      14.183  27.222  12.286  1.00  0.00     0.029 A 
HETATM    6  C13 UNL     1      15.239  28.084  12.082  1.00  0.00     0.046 A 
HETATM    7 BR1  UNL     1      15.139  29.655  11.014  1.00  0.00    -0.048 Br
HETATM    8  C14 UNL     1      16.439  27.774  12.709  1.00  0.00     0.109 A 
HETATM    9  C15 UNL     1      16.582  26.640  13.516  1.00  0.00     0.064 A 
HETATM   10  C23 UNL     1      15.477  25.843  13.662  1.00  0.00     0.039 A 
BRANCH   8  11
HETATM   11  O4  UNL     1      17.501  28.638  12.503  1.00  0.00    -0.357 OA
ATOM     12  H4  UNL     1      18.223  28.591  13.119  1.00  0.00     0.217 HD
ENDBRANCH   8  11
BRANCH   9  13
HETATM   13  N2  UNL     1      17.826  26.367  14.113  1.00  0.00    -0.378 N 
ATOM     14  H2  UNL     1      18.138  27.020  14.831  1.00  0.00     0.160 HD
BRANCH  13  15
HETATM   15  C16 UNL     1      18.704  25.274  13.825  1.00  0.00     0.029 C 
HETATM   16  C17 UNL     1      18.433  24.068  14.685  1.00  0.00     0.039 C 
HETATM   17  C18 UNL     1      18.573  24.808  12.380  1.00  0.00     0.039 C 
BRANCH  15  18
HETATM   18  C19 UNL     1      20.162  25.679  13.995  1.00  0.00    -0.027 C 
HETATM   19  C20 UNL     1      20.820  24.871  15.071  1.00  0.00     0.017 C 
HETATM   20  C21 UNL     1      20.892  25.431  12.688  1.00  0.00     0.017 C 
HETATM   21  C22 UNL     1      20.298  27.126  14.335  1.00  0.00     0.017 C 
ENDBRANCH  15  18
ENDBRANCH  13  15
ENDBRANCH   9  13
ENDBRANCH   3   4
ENDBRANCH   2   3
BRANCH   2  22
HETATM   22  N3  UNL     1      13.229  22.787  12.607  1.00  0.00    -0.308 N 
HETATM   23  C24 UNL     1      14.357  22.084  12.953  1.00  0.00     0.321 C 
HETATM   24  O5  UNL     1      15.512  22.599  12.911  1.00  0.00    -0.247 OA
HETATM   25  N4  UNL     1      14.348  20.725  13.394  1.00  0.00    -0.334 N 
ATOM     26  H4  UNL     1      13.447  20.246  13.413  1.00  0.00     0.165 HD
ATOM     27  H3  UNL     1      12.356  22.272  12.722  1.00  0.00     0.170 HD
BRANCH  25  28
HETATM   28  C25 UNL     1      15.489  19.985  13.808  1.00  0.00     0.027 C 
HETATM   29  C26 UNL     1      15.023  18.636  14.308  1.00  0.00     0.038 C 
HETATM   30  C27 UNL     1      16.508  19.787  12.735  1.00  0.00     0.038 C 
BRANCH  28  31
HETATM   31  C28 UNL     1      16.198  20.670  14.971  1.00  0.00     0.026 C 
HETATM   32  C29 UNL     1      16.495  19.687  16.076  1.00  0.00     0.007 C 
ENDBRANCH  28  31
ENDBRANCH  25  28
ENDBRANCH   2  22
BRANCH   1  33
HETATM   33  N1  UNL     1      11.125  24.972  10.693  1.00  0.00    -0.356 N 
ATOM     34  H1  UNL     1      10.181  24.733  10.999  1.00  0.00     0.162 HD
BRANCH  33  35
HETATM   35  C4  UNL     1      11.390  26.238   9.937  1.00  0.00     0.184 C 
BRANCH  35  36
HETATM   36  C3  UNL     1      10.969  25.963   8.570  1.00  0.00     0.281 C 
HETATM   37  O2  UNL     1      11.661  25.312   7.774  1.00  0.00    -0.263 OA
BRANCH  36  38
HETATM   38  O1  UNL     1       9.741  26.443   8.103  1.00  0.00    -0.320 OA
BRANCH  38  39
HETATM   39  C2  UNL     1       9.193  26.014   6.869  1.00  0.00     0.174 C 
HETATM   40  C1  UNL     1       7.752  25.632   6.939  1.00  0.00     0.034 C 
ENDBRANCH  38  39
ENDBRANCH  36  38
ENDBRANCH  35  36
BRANCH  35  41
HETATM   41  C5  UNL     1      10.510  27.268  10.583  1.00  0.00     0.045 C 
BRANCH  41  42
HETATM   42  C6  UNL     1       9.673  26.673  11.669  1.00  0.00     0.076 C 
BRANCH  42  43
HETATM   43  S1  UNL     1       8.011  27.410  11.604  1.00  0.00    -0.173 SA
HETATM   44  C7  UNL     1       7.883  28.510  10.156  1.00  0.00     0.089 C 
ENDBRANCH  42  43
ENDBRANCH  41  42
ENDBRANCH  35  41
ENDBRANCH  33  35
ENDBRANCH   1  33
BRANCH   1  45
HETATM   45  O3  UNL     1      12.441  23.206  10.078  1.00  0.00    -0.345 OA
ATOM     46  H3  UNL     1      11.902  22.424  10.117  1.00  0.00     0.219 HD
ENDBRANCH   1  45
TORSDOF 18
ENDMDL
