MODEL 1
REMARK VINA RESULT: -7.790834097      0.000      0.000
REMARK  4 active torsions:
REMARK  status: ('A' for Active; 'I' for Inactive)
REMARK    1  A    between atoms: O1_1  and  C1_3 
REMARK    2  A    between atoms: C2_4  and  N1_5 
REMARK    3  A    between atoms: N1_5  and  C3_7 
REMARK    4  A    between atoms: N6_23  and  N7_24 
ROOT
HETATM    1  C1  UNL     1      13.783  11.562  -7.993  1.00  0.00     0.193 A 
HETATM    2  C2  UNL     1      14.870  10.958  -8.580  1.00  0.00     0.116 A 
HETATM    3  C5  UNL     1      15.412  10.156  -7.606  1.00  0.00     0.042 A 
HETATM    4  C6  UNL     1      16.490   9.311  -7.567  1.00  0.00     0.019 A 
HETATM    5  C7  UNL     1      16.778   8.630  -6.406  1.00  0.00     0.018 A 
HETATM    6  C8  UNL     1      16.016   8.764  -5.265  1.00  0.00     0.090 A 
HETATM    7  N5  UNL     1      14.961   9.596  -5.316  1.00  0.00    -0.350 N 
ATOM      8  H5  UNL     1      14.381   9.714  -4.485  1.00  0.00     0.166 HD
HETATM    9  C9  UNL     1      14.647  10.283  -6.442  1.00  0.00     0.142 A 
HETATM   10  N6  UNL     1      13.658  11.150  -6.709  1.00  0.00    -0.208 N 
ENDROOT
BRANCH   2  11
HETATM   11  N1  UNL     1      15.316  11.132  -9.884  1.00  0.00    -0.185 N 
ATOM     12  H1  UNL     1      14.599  11.084 -10.608  1.00  0.00     0.184 HD
BRANCH  11  13
HETATM   13  C3  UNL     1      16.495  11.342 -10.292  1.00  0.00     0.699 A 
HETATM   14  N2  UNL     1      17.449  12.195  -9.866  1.00  0.00    -0.130 N 
HETATM   15  N3  UNL     1      18.536  12.069 -10.597  1.00  0.00    -0.261 N 
ATOM     16  H2  UNL     1      17.342  12.845  -9.088  1.00  0.00     0.205 HD
HETATM   17  C4  UNL     1      18.294  11.119 -11.517  1.00  0.00     0.205 A 
ATOM     18  H3  UNL     1      19.403  12.596 -10.487  1.00  0.00     0.190 HD
HETATM   19  S1  UNL     1      19.341  10.587 -12.677  1.00  0.00    -0.039 SA
HETATM   20  N4  UNL     1      17.048  10.679 -11.327  1.00  0.00    -0.163 N 
ATOM     21  H4  UNL     1      16.586   9.955 -11.879  1.00  0.00     0.186 HD
ENDBRANCH  11  13
ENDBRANCH   2  11
BRANCH   1  22
HETATM   22  O1  UNL     1      12.948  12.462  -8.645  1.00  0.00    -0.343 OA
ATOM     23  H1  UNL     1      12.874  13.380  -8.413  1.00  0.00     0.219 HD
ENDBRANCH   1  22
BRANCH  10  24
HETATM   24  N7  UNL     1      12.671  11.537  -5.772  1.00  0.00    -0.252 N 
HETATM   25  S2  UNL     1      12.569  13.045  -5.216  1.00  0.00     0.060 SA
ATOM     26  H7  UNL     1      12.004  10.841  -5.439  1.00  0.00     0.197 HD
ENDBRANCH  10  24
TORSDOF 4
ENDMDL
MODEL 2
REMARK VINA RESULT: -7.783712333      1.107      1.148
REMARK  4 active torsions:
REMARK  status: ('A' for Active; 'I' for Inactive)
REMARK    1  A    between atoms: O1_1  and  C1_3 
REMARK    2  A    between atoms: C2_4  and  N1_5 
REMARK    3  A    between atoms: N1_5  and  C3_7 
REMARK    4  A    between atoms: N6_23  and  N7_24 
ROOT
HETATM    1  C1  UNL     1      13.954  11.407  -8.179  1.00  0.00     0.193 A 
HETATM    2  C2  UNL     1      15.033  10.729  -8.696  1.00  0.00     0.116 A 
HETATM    3  C5  UNL     1      15.520   9.973  -7.657  1.00  0.00     0.042 A 
HETATM    4  C6  UNL     1      16.566   9.096  -7.534  1.00  0.00     0.019 A 
HETATM    5  C7  UNL     1      16.798   8.482  -6.323  1.00  0.00     0.018 A 
HETATM    6  C8  UNL     1      16.012   8.716  -5.215  1.00  0.00     0.090 A 
HETATM    7  N5  UNL     1      14.989   9.579  -5.349  1.00  0.00    -0.350 N 
ATOM      8  H5  UNL     1      14.392   9.771  -4.544  1.00  0.00     0.166 HD
HETATM    9  C9  UNL     1      14.730  10.202  -6.526  1.00  0.00     0.142 A 
HETATM   10  N6  UNL     1      13.780  11.083  -6.876  1.00  0.00    -0.208 N 
ENDROOT
BRANCH   2  11
HETATM   11  N1  UNL     1      15.520  10.802  -9.994  1.00  0.00    -0.185 N 
ATOM     12  H1  UNL     1      14.954  10.340 -10.706  1.00  0.00     0.184 HD
BRANCH  11  13
HETATM   13  C3  UNL     1      16.573  11.366 -10.411  1.00  0.00     0.699 A 
HETATM   14  N2  UNL     1      17.867  10.992 -10.358  1.00  0.00    -0.130 N 
HETATM   15  N3  UNL     1      18.631  11.902 -10.925  1.00  0.00    -0.261 N 
ATOM     16  H2  UNL     1      18.206  10.127  -9.938  1.00  0.00     0.205 HD
HETATM   17  C4  UNL     1      17.826  12.889 -11.358  1.00  0.00     0.205 A 
ATOM     18  H3  UNL     1      19.646  11.865 -11.019  1.00  0.00     0.190 HD
HETATM   19  S1  UNL     1      18.296  14.265 -12.138  1.00  0.00    -0.039 SA
HETATM   20  N4  UNL     1      16.572  12.558 -11.041  1.00  0.00    -0.163 N 
ATOM     21  H4  UNL     1      15.744  13.119 -11.244  1.00  0.00     0.186 HD
ENDBRANCH  11  13
ENDBRANCH   2  11
BRANCH   1  22
HETATM   22  O1  UNL     1      13.170  12.291  -8.911  1.00  0.00    -0.343 OA
ATOM     23  H1  UNL     1      13.254  13.236  -8.867  1.00  0.00     0.219 HD
ENDBRANCH   1  22
BRANCH  10  24
HETATM   24  N7  UNL     1      12.784  11.565  -5.994  1.00  0.00    -0.252 N 
HETATM   25  S2  UNL     1      12.735  13.103  -5.522  1.00  0.00     0.060 SA
ATOM     26  H7  UNL     1      12.075  10.917  -5.648  1.00  0.00     0.197 HD
ENDBRANCH  10  24
TORSDOF 4
ENDMDL
MODEL 3
REMARK VINA RESULT: -7.774243818      2.274      6.517
REMARK  4 active torsions:
REMARK  status: ('A' for Active; 'I' for Inactive)
REMARK    1  A    between atoms: O1_1  and  C1_3 
REMARK    2  A    between atoms: C2_4  and  N1_5 
REMARK    3  A    between atoms: N1_5  and  C3_7 
REMARK    4  A    between atoms: N6_23  and  N7_24 
ROOT
HETATM    1  C1  UNL     1      16.735  11.148  -9.869  1.00  0.00     0.193 A 
HETATM    2  C2  UNL     1      15.404  11.463  -9.733  1.00  0.00     0.116 A 
HETATM    3  C5  UNL     1      15.238  12.646 -10.412  1.00  0.00     0.042 A 
HETATM    4  C6  UNL     1      14.162  13.462 -10.643  1.00  0.00     0.019 A 
HETATM    5  C7  UNL     1      14.327  14.611 -11.382  1.00  0.00     0.018 A 
HETATM    6  C8  UNL     1      15.546  14.980 -11.908  1.00  0.00     0.090 A 
HETATM    7  N5  UNL     1      16.595  14.172 -11.674  1.00  0.00    -0.350 N 
ATOM      8  H5  UNL     1      17.509  14.422 -12.051  1.00  0.00     0.166 HD
HETATM    9  C9  UNL     1      16.470  13.031 -10.950  1.00  0.00     0.142 A 
HETATM   10  N6  UNL     1      17.367  12.096 -10.602  1.00  0.00    -0.208 N 
ENDROOT
BRANCH   2  11
HETATM   11  N1  UNL     1      14.440  10.733  -9.050  1.00  0.00    -0.185 N 
ATOM     12  H1  UNL     1      13.854  10.127  -9.625  1.00  0.00     0.184 HD
BRANCH  11  13
HETATM   13  C3  UNL     1      14.193  10.720  -7.810  1.00  0.00     0.699 A 
HETATM   14  N2  UNL     1      14.687   9.962  -6.809  1.00  0.00    -0.130 N 
HETATM   15  N3  UNL     1      14.133  10.300  -5.663  1.00  0.00    -0.261 N 
ATOM     16  H2  UNL     1      15.389   9.233  -6.924  1.00  0.00     0.205 HD
HETATM   17  C4  UNL     1      13.262  11.294  -5.915  1.00  0.00     0.205 A 
ATOM     18  H3  UNL     1      14.328   9.884  -4.752  1.00  0.00     0.190 HD
HETATM   19  S1  UNL     1      12.311  12.066  -4.810  1.00  0.00    -0.039 SA
HETATM   20  N4  UNL     1      13.302  11.545  -7.225  1.00  0.00    -0.163 N 
ATOM     21  H4  UNL     1      12.745  12.252  -7.708  1.00  0.00     0.186 HD
ENDBRANCH  11  13
ENDBRANCH   2  11
BRANCH   1  22
HETATM   22  O1  UNL     1      17.325  10.013  -9.324  1.00  0.00    -0.343 OA
ATOM     23  H1  UNL     1      16.836   9.287  -8.956  1.00  0.00     0.219 HD
ENDBRANCH   1  22
BRANCH  10  24
HETATM   24  N7  UNL     1      18.734  12.137 -10.964  1.00  0.00    -0.252 N 
HETATM   25  S2  UNL     1      19.268  11.508 -12.346  1.00  0.00     0.060 SA
ATOM     26  H7  UNL     1      19.401  12.577 -10.330  1.00  0.00     0.197 HD
ENDBRANCH  10  24
TORSDOF 4
ENDMDL
MODEL 4
REMARK VINA RESULT: -7.771755273      1.033      1.354
REMARK  4 active torsions:
REMARK  status: ('A' for Active; 'I' for Inactive)
REMARK    1  A    between atoms: O1_1  and  C1_3 
REMARK    2  A    between atoms: C2_4  and  N1_5 
REMARK    3  A    between atoms: N1_5  and  C3_7 
REMARK    4  A    between atoms: N6_23  and  N7_24 
ROOT
HETATM    1  C1  UNL     1      13.284  11.970  -7.343  1.00  0.00     0.193 A 
HETATM    2  C2  UNL     1      14.348  11.682  -8.165  1.00  0.00     0.116 A 
HETATM    3  C5  UNL     1      15.089  10.744  -7.488  1.00  0.00     0.042 A 
HETATM    4  C6  UNL     1      16.247  10.070  -7.771  1.00  0.00     0.019 A 
HETATM    5  C7  UNL     1      16.748   9.167  -6.859  1.00  0.00     0.018 A 
HETATM    6  C8  UNL     1      16.123   8.911  -5.657  1.00  0.00     0.090 A 
HETATM    7  N5  UNL     1      14.987   9.580  -5.392  1.00  0.00    -0.350 N 
ATOM      8  H5  UNL     1      14.505   9.409  -4.509  1.00  0.00     0.166 HD
HETATM    9  C9  UNL     1      14.465  10.475  -6.266  1.00  0.00     0.142 A 
HETATM   10  N6  UNL     1      13.364  11.240  -6.205  1.00  0.00    -0.208 N 
ENDROOT
BRANCH   2  11
HETATM   11  N1  UNL     1      14.609  12.232  -9.413  1.00  0.00    -0.185 N 
ATOM     12  H1  UNL     1      14.061  13.057  -9.657  1.00  0.00     0.184 HD
BRANCH  11  13
HETATM   13  C3  UNL     1      15.437  11.845 -10.288  1.00  0.00     0.699 A 
HETATM   14  N2  UNL     1      15.375  10.851 -11.198  1.00  0.00    -0.130 N 
HETATM   15  N3  UNL     1      16.482  10.812 -11.910  1.00  0.00    -0.261 N 
ATOM     16  H2  UNL     1      14.584  10.220 -11.318  1.00  0.00     0.205 HD
HETATM   17  C4  UNL     1      17.283  11.795 -11.461  1.00  0.00     0.205 A 
ATOM     18  H3  UNL     1      16.694  10.157 -12.663  1.00  0.00     0.190 HD
HETATM   19  S1  UNL     1      18.789  12.166 -12.024  1.00  0.00    -0.039 SA
HETATM   20  N4  UNL     1      16.642  12.421 -10.472  1.00  0.00    -0.163 N 
ATOM     21  H4  UNL     1      17.006  13.212  -9.938  1.00  0.00     0.186 HD
ENDBRANCH  11  13
ENDBRANCH   2  11
BRANCH   1  22
HETATM   22  O1  UNL     1      12.284  12.883  -7.657  1.00  0.00    -0.343 OA
ATOM     23  H1  UNL     1      12.152  13.703  -7.197  1.00  0.00     0.219 HD
ENDBRANCH   1  22
BRANCH  10  24
HETATM   24  N7  UNL     1      12.464  11.247  -5.112  1.00  0.00    -0.252 N 
HETATM   25  S2  UNL     1      12.124  12.593  -4.298  1.00  0.00     0.060 SA
ATOM     26  H7  UNL     1      12.019  10.373  -4.832  1.00  0.00     0.197 HD
ENDBRANCH  10  24
TORSDOF 4
ENDMDL
MODEL 5
REMARK VINA RESULT: -7.728044269      2.730      3.078
REMARK  4 active torsions:
REMARK  status: ('A' for Active; 'I' for Inactive)
REMARK    1  A    between atoms: O1_1  and  C1_3 
REMARK    2  A    between atoms: C2_4  and  N1_5 
REMARK    3  A    between atoms: N1_5  and  C3_7 
REMARK    4  A    between atoms: N6_23  and  N7_24 
ROOT
HETATM    1  C1  UNL     1      13.189  11.968  -7.225  1.00  0.00     0.193 A 
HETATM    2  C2  UNL     1      14.198  11.712  -8.122  1.00  0.00     0.116 A 
HETATM    3  C5  UNL     1      14.999  10.777  -7.513  1.00  0.00     0.042 A 
HETATM    4  C6  UNL     1      16.146  10.127  -7.886  1.00  0.00     0.019 A 
HETATM    5  C7  UNL     1      16.723   9.219  -7.026  1.00  0.00     0.018 A 
HETATM    6  C8  UNL     1      16.186   8.933  -5.789  1.00  0.00     0.090 A 
HETATM    7  N5  UNL     1      15.060   9.577  -5.435  1.00  0.00    -0.350 N 
ATOM      8  H5  UNL     1      14.642   9.384  -4.525  1.00  0.00     0.166 HD
HETATM    9  C9  UNL     1      14.464  10.478  -6.257  1.00  0.00     0.142 A 
HETATM   10  N6  UNL     1      13.358  11.221  -6.107  1.00  0.00    -0.208 N 
ENDROOT
BRANCH   2  11
HETATM   11  N1  UNL     1      14.365  12.286  -9.376  1.00  0.00    -0.185 N 
ATOM     12  H1  UNL     1      14.541  11.635 -10.141  1.00  0.00     0.184 HD
BRANCH  11  13
HETATM   13  C3  UNL     1      14.326  13.510  -9.694  1.00  0.00     0.699 A 
HETATM   14  N2  UNL     1      14.228  14.625  -8.942  1.00  0.00    -0.130 N 
HETATM   15  N3  UNL     1      14.224  15.696  -9.709  1.00  0.00    -0.261 N 
ATOM     16  H2  UNL     1      14.166  14.638  -7.925  1.00  0.00     0.205 HD
HETATM   17  C4  UNL     1      14.321  15.278 -10.984  1.00  0.00     0.205 A 
ATOM     18  H3  UNL     1      14.158  16.664  -9.394  1.00  0.00     0.190 HD
HETATM   19  S1  UNL     1      14.356  16.233 -12.328  1.00  0.00    -0.039 SA
HETATM   20  N4  UNL     1      14.382  13.944 -10.969  1.00  0.00    -0.163 N 
ATOM     21  H4  UNL     1      14.459  13.347 -11.794  1.00  0.00     0.186 HD
ENDBRANCH  11  13
ENDBRANCH   2  11
BRANCH   1  22
HETATM   22  O1  UNL     1      12.155  12.868  -7.455  1.00  0.00    -0.343 OA
ATOM     23  H1  UNL     1      11.795  13.444  -6.790  1.00  0.00     0.219 HD
ENDBRANCH   1  22
BRANCH  10  24
HETATM   24  N7  UNL     1      12.535  11.195  -4.956  1.00  0.00    -0.252 N 
HETATM   25  S2  UNL     1      12.068  12.544  -4.213  1.00  0.00     0.060 SA
ATOM     26  H7  UNL     1      12.229  10.295  -4.587  1.00  0.00     0.197 HD
ENDBRANCH  10  24
TORSDOF 4
ENDMDL
