MODEL 1
REMARK VINA RESULT: -6.760728525      0.000      0.000
REMARK  4 active torsions:
REMARK  status: ('A' for Active; 'I' for Inactive)
REMARK    1  A    between atoms: C2_2  and  C5_5 
REMARK    2  A    between atoms: C7_11  and  O1_12 
REMARK    3  A    between atoms: C9_15  and  N3_16 
REMARK    4  A    between atoms: C10_21  and  O2_22 
ROOT
HETATM    1  C5  UNL     1     -21.669   0.131 -23.776  1.00  0.00     0.049 A 
HETATM    2  N1  UNL     1     -22.318   1.097 -23.051  1.00  0.00    -0.303 N 
ATOM      3  H1  UNL     1     -22.347   1.117 -22.031  1.00  0.00     0.186 HD
HETATM    4  N2  UNL     1     -22.891   1.982 -23.806  1.00  0.00    -0.297 N 
ATOM      5  H2  UNL     1     -23.424   2.782 -23.467  1.00  0.00     0.187 HD
HETATM    6  C6  UNL     1     -22.682   1.695 -25.080  1.00  0.00     0.096 A 
HETATM    7  C7  UNL     1     -23.066   2.301 -26.247  1.00  0.00     0.097 A 
HETATM    8  C8  UNL     1     -22.682   1.745 -27.469  1.00  0.00     0.072 A 
HETATM    9  C9  UNL     1     -21.922   0.593 -27.497  1.00  0.00     0.084 A 
HETATM   10  C10 UNL     1     -21.554   0.010 -26.299  1.00  0.00     0.108 A 
HETATM   11  C11 UNL     1     -21.910   0.527 -25.086  1.00  0.00     0.055 A 
ENDROOT
BRANCH   9  12
HETATM   12  N3  UNL     1     -21.506  -0.013 -28.709  1.00  0.00    -0.304 N 
HETATM   13  N4  UNL     1     -22.079  -1.102 -29.033  1.00  0.00    -0.345 N 
ATOM     14  H42 UNL     1     -22.801  -1.507 -28.437  1.00  0.00     0.176 HD
ATOM     15  H41 UNL     1     -21.780  -1.538 -29.905  1.00  0.00     0.176 HD
ATOM     16  H3  UNL     1     -20.783   0.405 -29.294  1.00  0.00     0.186 HD
ENDBRANCH   9  12
BRANCH  10  17
HETATM   17  O2  UNL     1     -20.806  -1.125 -26.343  1.00  0.00    -0.357 OA
ATOM     18  H2  UNL     1     -19.861  -1.036 -26.392  1.00  0.00     0.217 HD
ENDBRANCH  10  17
BRANCH   7  19
HETATM   19  O1  UNL     1     -23.824   3.451 -26.242  1.00  0.00    -0.358 OA
ATOM     20  H1  UNL     1     -23.496   4.261 -26.613  1.00  0.00     0.217 HD
ENDBRANCH   7  19
BRANCH   1  21
HETATM   21  C2  UNL     1     -20.909  -1.017 -23.262  1.00  0.00    -0.006 C 
HETATM   22  C1  UNL     1     -19.456  -1.054 -23.580  1.00  0.00     0.021 C 
HETATM   23  C3  UNL     1     -21.615  -2.336 -23.396  1.00  0.00     0.021 C 
HETATM   24  C4  UNL     1     -20.931  -0.843 -21.717  1.00  0.00     0.021 C 
ENDBRANCH   1  21
TORSDOF 4
ENDMDL
MODEL 2
REMARK VINA RESULT: -6.751017384      2.094      3.728
REMARK  4 active torsions:
REMARK  status: ('A' for Active; 'I' for Inactive)
REMARK    1  A    between atoms: C2_2  and  C5_5 
REMARK    2  A    between atoms: C7_11  and  O1_12 
REMARK    3  A    between atoms: C9_15  and  N3_16 
REMARK    4  A    between atoms: C10_21  and  O2_22 
ROOT
HETATM    1  C5  UNL     1     -21.285  -0.116 -23.771  1.00  0.00     0.049 A 
HETATM    2  N1  UNL     1     -20.617  -1.071 -23.048  1.00  0.00    -0.303 N 
ATOM      3  H1  UNL     1     -20.574  -1.083 -22.028  1.00  0.00     0.186 HD
HETATM    4  N2  UNL     1     -20.045  -1.954 -23.805  1.00  0.00    -0.297 N 
ATOM      5  H2  UNL     1     -19.499  -2.747 -23.467  1.00  0.00     0.187 HD
HETATM    6  C6  UNL     1     -20.273  -1.679 -25.077  1.00  0.00     0.096 A 
HETATM    7  C7  UNL     1     -19.899  -2.289 -26.245  1.00  0.00     0.097 A 
HETATM    8  C8  UNL     1     -20.303  -1.745 -27.466  1.00  0.00     0.072 A 
HETATM    9  C9  UNL     1     -21.076  -0.601 -27.492  1.00  0.00     0.084 A 
HETATM   10  C10 UNL     1     -21.434  -0.014 -26.293  1.00  0.00     0.108 A 
HETATM   11  C11 UNL     1     -21.057  -0.519 -25.081  1.00  0.00     0.055 A 
ENDROOT
BRANCH   9  12
HETATM   12  N3  UNL     1     -21.513  -0.008 -28.702  1.00  0.00    -0.304 N 
HETATM   13  N4  UNL     1     -20.945   1.077 -29.048  1.00  0.00    -0.345 N 
ATOM     14  H42 UNL     1     -20.211   1.488 -28.471  1.00  0.00     0.176 HD
ATOM     15  H41 UNL     1     -21.260   1.504 -29.920  1.00  0.00     0.176 HD
ATOM     16  H3  UNL     1     -22.248  -0.430 -29.269  1.00  0.00     0.186 HD
ENDBRANCH   9  12
BRANCH  10  17
HETATM   17  O2  UNL     1     -22.194   1.114 -26.335  1.00  0.00    -0.357 OA
ATOM     18  H2  UNL     1     -22.477   1.494 -25.511  1.00  0.00     0.217 HD
ENDBRANCH  10  17
BRANCH   7  19
HETATM   19  O1  UNL     1     -19.129  -3.430 -26.242  1.00  0.00    -0.358 OA
ATOM     20  H1  UNL     1     -19.512  -4.286 -26.400  1.00  0.00     0.217 HD
ENDBRANCH   7  19
BRANCH   1  21
HETATM   21  C2  UNL     1     -22.049   1.028 -23.255  1.00  0.00    -0.006 C 
HETATM   22  C1  UNL     1     -23.504   1.056 -23.567  1.00  0.00     0.021 C 
HETATM   23  C3  UNL     1     -21.352   2.351 -23.392  1.00  0.00     0.021 C 
HETATM   24  C4  UNL     1     -22.021   0.855 -21.710  1.00  0.00     0.021 C 
ENDBRANCH   1  21
TORSDOF 4
ENDMDL
MODEL 3
REMARK VINA RESULT: -6.654200977      2.249      2.764
REMARK  4 active torsions:
REMARK  status: ('A' for Active; 'I' for Inactive)
REMARK    1  A    between atoms: C2_2  and  C5_5 
REMARK    2  A    between atoms: C7_11  and  O1_12 
REMARK    3  A    between atoms: C9_15  and  N3_16 
REMARK    4  A    between atoms: C10_21  and  O2_22 
ROOT
HETATM    1  C5  UNL     1     -21.676   1.047 -24.354  1.00  0.00     0.049 A 
HETATM    2  N1  UNL     1     -22.331   2.086 -24.963  1.00  0.00    -0.303 N 
ATOM      3  H1  UNL     1     -22.636   2.928 -24.475  1.00  0.00     0.186 HD
HETATM    4  N2  UNL     1     -22.520   1.877 -26.229  1.00  0.00    -0.297 N 
ATOM      5  H2  UNL     1     -22.987   2.525 -26.864  1.00  0.00     0.187 HD
HETATM    6  C6  UNL     1     -22.018   0.705 -26.576  1.00  0.00     0.096 A 
HETATM    7  C7  UNL     1     -21.961   0.031 -27.767  1.00  0.00     0.097 A 
HETATM    8  C8  UNL     1     -21.353  -1.225 -27.819  1.00  0.00     0.072 A 
HETATM    9  C9  UNL     1     -20.815  -1.781 -26.675  1.00  0.00     0.084 A 
HETATM   10  C10 UNL     1     -20.892  -1.071 -25.491  1.00  0.00     0.108 A 
HETATM   11  C11 UNL     1     -21.478   0.160 -25.405  1.00  0.00     0.055 A 
ENDROOT
BRANCH   9  12
HETATM   12  N3  UNL     1     -20.187  -3.051 -26.671  1.00  0.00    -0.304 N 
HETATM   13  N4  UNL     1     -18.967  -3.089 -26.312  1.00  0.00    -0.345 N 
ATOM     14  H42 UNL     1     -18.478  -2.236 -26.042  1.00  0.00     0.176 HD
ATOM     15  H41 UNL     1     -18.515  -4.004 -26.309  1.00  0.00     0.176 HD
ATOM     16  H3  UNL     1     -20.690  -3.896 -26.943  1.00  0.00     0.186 HD
ENDBRANCH   9  12
BRANCH  10  17
HETATM   17  O2  UNL     1     -20.358  -1.632 -24.373  1.00  0.00    -0.357 OA
ATOM     18  H2  UNL     1     -19.503  -1.333 -24.087  1.00  0.00     0.217 HD
ENDBRANCH  10  17
BRANCH   7  19
HETATM   19  O1  UNL     1     -22.491   0.567 -28.919  1.00  0.00    -0.358 OA
ATOM     20  H1  UNL     1     -21.961   0.688 -29.698  1.00  0.00     0.217 HD
ENDBRANCH   7  19
BRANCH   1  21
HETATM   21  C2  UNL     1     -21.287   0.937 -22.941  1.00  0.00    -0.006 C 
HETATM   22  C1  UNL     1     -19.835   0.776 -22.657  1.00  0.00     0.021 C 
HETATM   23  C3  UNL     1     -22.188   0.063 -22.117  1.00  0.00     0.021 C 
HETATM   24  C4  UNL     1     -21.615   2.330 -22.334  1.00  0.00     0.021 C 
ENDBRANCH   1  21
TORSDOF 4
ENDMDL
MODEL 4
REMARK VINA RESULT: -6.643868123      2.108      3.372
REMARK  4 active torsions:
REMARK  status: ('A' for Active; 'I' for Inactive)
REMARK    1  A    between atoms: C2_2  and  C5_5 
REMARK    2  A    between atoms: C7_11  and  O1_12 
REMARK    3  A    between atoms: C9_15  and  N3_16 
REMARK    4  A    between atoms: C10_21  and  O2_22 
ROOT
HETATM    1  C5  UNL     1     -21.294  -1.038 -24.380  1.00  0.00     0.049 A 
HETATM    2  N1  UNL     1     -20.648  -2.085 -24.986  1.00  0.00    -0.303 N 
ATOM      3  H1  UNL     1     -20.344  -2.925 -24.494  1.00  0.00     0.186 HD
HETATM    4  N2  UNL     1     -20.468  -1.887 -26.255  1.00  0.00    -0.297 N 
ATOM      5  H2  UNL     1     -20.009  -2.541 -26.889  1.00  0.00     0.187 HD
HETATM    6  C6  UNL     1     -20.966  -0.714 -26.607  1.00  0.00     0.096 A 
HETATM    7  C7  UNL     1     -21.029  -0.049 -27.803  1.00  0.00     0.097 A 
HETATM    8  C8  UNL     1     -21.631   1.210 -27.860  1.00  0.00     0.072 A 
HETATM    9  C9  UNL     1     -22.158   1.776 -26.716  1.00  0.00     0.084 A 
HETATM   10  C10 UNL     1     -22.076   1.075 -25.528  1.00  0.00     0.108 A 
HETATM   11  C11 UNL     1     -21.495  -0.158 -25.437  1.00  0.00     0.055 A 
ENDROOT
BRANCH   9  12
HETATM   12  N3  UNL     1     -22.779   3.050 -26.717  1.00  0.00    -0.304 N 
HETATM   13  N4  UNL     1     -23.980   3.105 -26.300  1.00  0.00    -0.345 N 
ATOM     14  H42 UNL     1     -24.459   2.262 -25.983  1.00  0.00     0.176 HD
ATOM     15  H41 UNL     1     -24.427   4.022 -26.300  1.00  0.00     0.176 HD
ATOM     16  H3  UNL     1     -22.287   3.884 -27.037  1.00  0.00     0.186 HD
ENDBRANCH   9  12
BRANCH  10  17
HETATM   17  O2  UNL     1     -22.598   1.648 -24.410  1.00  0.00    -0.357 OA
ATOM     18  H2  UNL     1     -22.069   2.285 -23.944  1.00  0.00     0.217 HD
ENDBRANCH  10  17
BRANCH   7  19
HETATM   19  O1  UNL     1     -20.511  -0.596 -28.955  1.00  0.00    -0.358 OA
ATOM     20  H1  UNL     1     -21.026  -1.177 -29.502  1.00  0.00     0.217 HD
ENDBRANCH   7  19
BRANCH   1  21
HETATM   21  C2  UNL     1     -21.671  -0.916 -22.965  1.00  0.00    -0.006 C 
HETATM   22  C1  UNL     1     -23.116  -0.714 -22.674  1.00  0.00     0.021 C 
HETATM   23  C3  UNL     1     -20.741  -0.066 -22.147  1.00  0.00     0.021 C 
HETATM   24  C4  UNL     1     -21.379  -2.317 -22.358  1.00  0.00     0.021 C 
ENDBRANCH   1  21
TORSDOF 4
ENDMDL
MODEL 5
REMARK VINA RESULT: -6.611693323      2.824      4.806
REMARK  4 active torsions:
REMARK  status: ('A' for Active; 'I' for Inactive)
REMARK    1  A    between atoms: C2_2  and  C5_5 
REMARK    2  A    between atoms: C7_11  and  O1_12 
REMARK    3  A    between atoms: C9_15  and  N3_16 
REMARK    4  A    between atoms: C10_21  and  O2_22 
ROOT
HETATM    1  C5  UNL     1     -20.796   0.167 -25.371  1.00  0.00     0.049 A 
HETATM    2  N1  UNL     1     -20.164   1.384 -25.323  1.00  0.00    -0.303 N 
ATOM      3  H1  UNL     1     -19.804   1.868 -26.145  1.00  0.00     0.186 HD
HETATM    4  N2  UNL     1     -20.076   1.848 -24.116  1.00  0.00    -0.297 N 
ATOM      5  H2  UNL     1     -19.643   2.736 -23.862  1.00  0.00     0.187 HD
HETATM    6  C6  UNL     1     -20.628   1.003 -23.262  1.00  0.00     0.096 A 
HETATM    7  C7  UNL     1     -20.790   1.024 -21.902  1.00  0.00     0.097 A 
HETATM    8  C8  UNL     1     -21.429  -0.044 -21.268  1.00  0.00     0.072 A 
HETATM    9  C9  UNL     1     -21.893  -1.112 -22.011  1.00  0.00     0.084 A 
HETATM   10  C10 UNL     1     -21.711  -1.097 -23.381  1.00  0.00     0.108 A 
HETATM   11  C11 UNL     1     -21.092  -0.069 -24.033  1.00  0.00     0.055 A 
ENDROOT
BRANCH   9  12
HETATM   12  N3  UNL     1     -22.547  -2.220 -21.419  1.00  0.00    -0.304 N 
HETATM   13  N4  UNL     1     -22.003  -3.360 -21.576  1.00  0.00    -0.345 N 
ATOM     14  H42 UNL     1     -21.137  -3.454 -22.106  1.00  0.00     0.176 HD
ATOM     15  H41 UNL     1     -22.474  -4.159 -21.150  1.00  0.00     0.176 HD
ATOM     16  H3  UNL     1     -23.413  -2.110 -20.892  1.00  0.00     0.186 HD
ENDBRANCH   9  12
BRANCH  10  17
HETATM   17  O2  UNL     1     -22.173  -2.157 -24.099  1.00  0.00    -0.357 OA
ATOM     18  H2  UNL     1     -22.832  -1.994 -24.763  1.00  0.00     0.217 HD
ENDBRANCH  10  17
BRANCH   7  19
HETATM   19  O1  UNL     1     -20.336   2.079 -21.143  1.00  0.00    -0.358 OA
ATOM     20  H1  UNL     1     -20.511   2.129 -20.210  1.00  0.00     0.217 HD
ENDBRANCH   7  19
BRANCH   1  21
HETATM   21  C2  UNL     1     -21.081  -0.649 -26.559  1.00  0.00    -0.006 C 
HETATM   22  C1  UNL     1     -22.511  -0.797 -26.941  1.00  0.00     0.021 C 
HETATM   23  C3  UNL     1     -20.272  -1.912 -26.650  1.00  0.00     0.021 C 
HETATM   24  C4  UNL     1     -20.477   0.157 -27.743  1.00  0.00     0.021 C 
ENDBRANCH   1  21
TORSDOF 4
ENDMDL
