MODEL 1
REMARK VINA RESULT: -8.442765687      0.000      0.000
REMARK  2 active torsions:
REMARK  status: ('A' for Active; 'I' for Inactive)
REMARK    1  A    between atoms: O1_2  and  C2_3 
REMARK    2  A    between atoms: N1_6  and  C5_7 
ROOT
HETATM    1  C5  UNL     1      42.853  62.525  80.336  1.00  0.00     0.087 C 
HETATM    2  C6  UNL     1      41.836  61.917  81.227  1.00  0.00     0.010 C 
HETATM    3  C7  UNL     1      40.723  62.978  81.386  1.00  0.00     0.011 C 
HETATM    4  C8  UNL     1      41.332  64.216  82.010  1.00  0.00    -0.012 C 
HETATM    5  C9  UNL     1      42.514  64.744  81.259  1.00  0.00     0.011 C 
HETATM    6  C10 UNL     1      43.566  63.638  81.068  1.00  0.00     0.010 C 
HETATM    7  C11 UNL     1      44.026  63.250  82.435  1.00  0.00     0.027 C 
HETATM    8  C12 UNL     1      42.882  62.845  83.301  1.00  0.00     0.019 C 
HETATM    9 BR1  UNL     1      43.449  62.368  85.073  1.00  0.00    -0.086 Br
HETATM   10  C13 UNL     1      41.819  63.913  83.426  1.00  0.00     0.025 C 
HETATM   11  C14 UNL     1      42.234  61.631  82.635  1.00  0.00     0.027 C 
ENDROOT
BRANCH   1  12
HETATM   12  N1  UNL     1      43.673  61.684  79.560  1.00  0.00    -0.407 N 
HETATM   13  C4  UNL     1      43.805  60.314  79.840  1.00  0.00     0.119 C 
HETATM   14  C3  UNL     1      44.367  59.657  78.572  1.00  0.00     0.051 C 
HETATM   15  C2  UNL     1      45.788  60.068  78.409  1.00  0.00     0.123 C 
HETATM   16  C16 UNL     1      46.055  61.381  79.060  1.00  0.00     0.051 C 
HETATM   17  C15 UNL     1      44.864  62.309  79.042  1.00  0.00     0.119 C 
BRANCH  15  18
HETATM   18  O1  UNL     1      46.215  60.023  77.084  1.00  0.00    -0.391 OA
HETATM   19  C1  UNL     1      47.582  59.974  76.944  1.00  0.00     0.202 C 
ENDBRANCH  15  18
ENDBRANCH   1  12
TORSDOF 2
ENDMDL
MODEL 2
REMARK VINA RESULT: -8.381873815      2.604      3.305
REMARK  2 active torsions:
REMARK  status: ('A' for Active; 'I' for Inactive)
REMARK    1  A    between atoms: O1_2  and  C2_3 
REMARK    2  A    between atoms: N1_6  and  C5_7 
ROOT
HETATM    1  C5  UNL     1      43.826  63.392  82.458  1.00  0.00     0.087 C 
HETATM    2  C6  UNL     1      43.320  64.194  81.318  1.00  0.00     0.010 C 
HETATM    3  C7  UNL     1      42.724  65.481  81.934  1.00  0.00     0.011 C 
HETATM    4  C8  UNL     1      41.600  65.084  82.868  1.00  0.00    -0.012 C 
HETATM    5  C9  UNL     1      42.013  64.094  83.913  1.00  0.00     0.011 C 
HETATM    6  C10 UNL     1      42.659  62.861  83.258  1.00  0.00     0.010 C 
HETATM    7  C11 UNL     1      41.602  62.226  82.416  1.00  0.00     0.027 C 
HETATM    8  C12 UNL     1      41.031  63.194  81.436  1.00  0.00     0.019 C 
HETATM    9 BR1  UNL     1      39.649  62.405  80.359  1.00  0.00    -0.086 Br
HETATM   10  C13 UNL     1      40.461  64.435  82.084  1.00  0.00     0.025 C 
HETATM   11  C14 UNL     1      42.182  63.637  80.532  1.00  0.00     0.027 C 
ENDROOT
BRANCH   1  12
HETATM   12  N1  UNL     1      44.879  62.485  82.243  1.00  0.00    -0.407 N 
HETATM   13  C4  UNL     1      45.718  62.061  83.287  1.00  0.00     0.119 C 
HETATM   14  C3  UNL     1      46.409  60.779  82.804  1.00  0.00     0.051 C 
HETATM   15  C2  UNL     1      47.399  61.137  81.751  1.00  0.00     0.123 C 
HETATM   16  C16 UNL     1      47.022  62.397  81.052  1.00  0.00     0.051 C 
HETATM   17  C15 UNL     1      45.529  62.605  80.961  1.00  0.00     0.119 C 
BRANCH  15  18
HETATM   18  O1  UNL     1      47.659  60.086  80.874  1.00  0.00    -0.391 OA
HETATM   19  C1  UNL     1      48.844  60.218  80.189  1.00  0.00     0.202 C 
ENDBRANCH  15  18
ENDBRANCH   1  12
TORSDOF 2
ENDMDL
MODEL 3
REMARK VINA RESULT: -8.300701292      1.735      2.502
REMARK  2 active torsions:
REMARK  status: ('A' for Active; 'I' for Inactive)
REMARK    1  A    between atoms: O1_2  and  C2_3 
REMARK    2  A    between atoms: N1_6  and  C5_7 
ROOT
HETATM    1  C5  UNL     1      43.254  62.701  81.213  1.00  0.00     0.087 C 
HETATM    2  C6  UNL     1      42.896  64.084  80.817  1.00  0.00     0.010 C 
HETATM    3  C7  UNL     1      42.947  64.924  82.114  1.00  0.00     0.011 C 
HETATM    4  C8  UNL     1      41.939  64.353  83.089  1.00  0.00    -0.012 C 
HETATM    5  C9  UNL     1      42.124  62.891  83.353  1.00  0.00     0.011 C 
HETATM    6  C10 UNL     1      42.133  62.104  82.031  1.00  0.00     0.010 C 
HETATM    7  C11 UNL     1      40.784  62.293  81.418  1.00  0.00     0.027 C 
HETATM    8  C12 UNL     1      40.458  63.738  81.252  1.00  0.00     0.019 C 
HETATM    9 BR1  UNL     1      38.715  64.004  80.488  1.00  0.00    -0.086 Br
HETATM   10  C13 UNL     1      40.521  64.518  82.545  1.00  0.00     0.025 C 
HETATM   11  C14 UNL     1      41.514  64.323  80.313  1.00  0.00     0.027 C 
ENDROOT
BRANCH   1  12
HETATM   12  N1  UNL     1      43.833  61.844  80.259  1.00  0.00    -0.407 N 
HETATM   13  C4  UNL     1      43.718  60.447  80.349  1.00  0.00     0.119 C 
HETATM   14  C3  UNL     1      44.042  59.887  78.958  1.00  0.00     0.051 C 
HETATM   15  C2  UNL     1      45.500  60.051  78.704  1.00  0.00     0.123 C 
HETATM   16  C16 UNL     1      46.065  61.187  79.484  1.00  0.00     0.051 C 
HETATM   17  C15 UNL     1      45.080  62.309  79.705  1.00  0.00     0.119 C 
BRANCH  15  18
HETATM   18  O1  UNL     1      45.808  60.119  77.347  1.00  0.00    -0.391 OA
HETATM   19  C1  UNL     1      47.139  59.913  77.071  1.00  0.00     0.202 C 
ENDBRANCH  15  18
ENDBRANCH   1  12
TORSDOF 2
ENDMDL
MODEL 4
REMARK VINA RESULT: -8.219942958      1.854      2.821
REMARK  2 active torsions:
REMARK  status: ('A' for Active; 'I' for Inactive)
REMARK    1  A    between atoms: O1_2  and  C2_3 
REMARK    2  A    between atoms: N1_6  and  C5_7 
ROOT
HETATM    1  C5  UNL     1      43.485  63.052  81.583  1.00  0.00     0.087 C 
HETATM    2  C6  UNL     1      43.029  64.401  81.170  1.00  0.00     0.010 C 
HETATM    3  C7  UNL     1      42.890  65.220  82.474  1.00  0.00     0.011 C 
HETATM    4  C8  UNL     1      41.864  64.540  83.355  1.00  0.00    -0.012 C 
HETATM    5  C9  UNL     1      42.167  63.098  83.622  1.00  0.00     0.011 C 
HETATM    6  C10 UNL     1      42.362  62.337  82.299  1.00  0.00     0.010 C 
HETATM    7  C11 UNL     1      41.057  62.406  81.575  1.00  0.00     0.027 C 
HETATM    8  C12 UNL     1      40.608  63.816  81.394  1.00  0.00     0.019 C 
HETATM    9 BR1  UNL     1      38.917  63.926  80.489  1.00  0.00    -0.086 Br
HETATM   10  C13 UNL     1      40.487  64.577  82.695  1.00  0.00     0.025 C 
HETATM   11  C14 UNL     1      41.676  64.515  80.553  1.00  0.00     0.027 C 
ENDROOT
BRANCH   1  12
HETATM   12  N1  UNL     1      44.221  62.271  80.674  1.00  0.00    -0.407 N 
HETATM   13  C4  UNL     1      44.508  62.719  79.374  1.00  0.00     0.119 C 
HETATM   14  C3  UNL     1      45.672  61.862  78.859  1.00  0.00     0.051 C 
HETATM   15  C2  UNL     1      45.173  60.484  78.597  1.00  0.00     0.123 C 
HETATM   16  C16 UNL     1      43.988  60.163  79.442  1.00  0.00     0.051 C 
HETATM   17  C15 UNL     1      44.010  60.850  80.786  1.00  0.00     0.119 C 
BRANCH  15  18
HETATM   18  O1  UNL     1      46.176  59.521  78.681  1.00  0.00    -0.391 OA
HETATM   19  C1  UNL     1      47.344  59.987  79.236  1.00  0.00     0.202 C 
ENDBRANCH  15  18
ENDBRANCH   1  12
TORSDOF 2
ENDMDL
MODEL 5
REMARK VINA RESULT: -8.176955339      0.921      1.466
REMARK  2 active torsions:
REMARK  status: ('A' for Active; 'I' for Inactive)
REMARK    1  A    between atoms: O1_2  and  C2_3 
REMARK    2  A    between atoms: N1_6  and  C5_7 
ROOT
HETATM    1  C5  UNL     1      42.938  62.306  80.405  1.00  0.00     0.087 C 
HETATM    2  C6  UNL     1      42.150  61.585  81.434  1.00  0.00     0.010 C 
HETATM    3  C7  UNL     1      40.710  62.139  81.331  1.00  0.00     0.011 C 
HETATM    4  C8  UNL     1      40.752  63.626  81.613  1.00  0.00    -0.012 C 
HETATM    5  C9  UNL     1      41.710  64.373  80.738  1.00  0.00     0.011 C 
HETATM    6  C10 UNL     1      43.113  63.747  80.821  1.00  0.00     0.010 C 
HETATM    7  C11 UNL     1      43.564  63.906  82.236  1.00  0.00     0.027 C 
HETATM    8  C12 UNL     1      42.586  63.311  83.191  1.00  0.00     0.019 C 
HETATM    9 BR1  UNL     1      43.134  63.528  85.019  1.00  0.00    -0.086 Br
HETATM   10  C13 UNL     1      41.193  63.882  83.053  1.00  0.00     0.025 C 
HETATM   11  C14 UNL     1      42.502  61.819  82.863  1.00  0.00     0.027 C 
ENDROOT
BRANCH   1  12
HETATM   12  N1  UNL     1      44.077  61.687  79.858  1.00  0.00    -0.407 N 
HETATM   13  C4  UNL     1      44.907  62.345  78.935  1.00  0.00     0.119 C 
HETATM   14  C3  UNL     1      46.241  61.587  78.923  1.00  0.00     0.051 C 
HETATM   15  C2  UNL     1      46.038  60.270  78.259  1.00  0.00     0.123 C 
HETATM   16  C16 UNL     1      44.626  59.812  78.377  1.00  0.00     0.051 C 
HETATM   17  C15 UNL     1      43.954  60.266  79.650  1.00  0.00     0.119 C 
BRANCH  15  18
HETATM   18  O1  UNL     1      46.958  59.309  78.674  1.00  0.00    -0.391 OA
HETATM   19  C1  UNL     1      47.945  59.806  79.492  1.00  0.00     0.202 C 
ENDBRANCH  15  18
ENDBRANCH   1  12
TORSDOF 2
ENDMDL
