MODEL 1
REMARK VINA RESULT: -7.611176790      0.000      0.000
REMARK  3 active torsions:
REMARK  status: ('A' for Active; 'I' for Inactive)
REMARK    1  A    between atoms: C4_4  and  C5_5 
REMARK    2  A    between atoms: C6_6  and  C7_7 
REMARK    3  A    between atoms: C12_16  and  C13_17 
ROOT
HETATM    1  C1  UNL     1     -19.631   9.490 -14.596  1.00  0.00     0.043 C 
HETATM    2  C2  UNL     1     -20.460   8.607 -15.066  1.00  0.00     0.024 A 
HETATM    3  C3  UNL     1     -20.119   7.629 -16.084  1.00  0.00     0.049 A 
HETATM    4  C4  UNL     1     -20.997   6.759 -16.523  1.00  0.00     0.022 A 
HETATM    5  C11 UNL     1     -22.358   6.794 -15.953  1.00  0.00     0.051 A 
HETATM    6  C12 UNL     1     -22.755   7.638 -15.034  1.00  0.00     0.044 A 
HETATM    7  N3  UNL     1     -21.808   8.575 -14.563  1.00  0.00    -0.356 N 
ATOM      8  H3  UNL     1     -22.087   9.246 -13.847  1.00  0.00     0.166 HD
ENDROOT
BRANCH   4   9
HETATM    9  C5  UNL     1     -20.635   5.798 -17.534  1.00  0.00    -0.058 C 
HETATM   10  C6  UNL     1     -20.320   4.977 -18.377  1.00  0.00    -0.024 C 
BRANCH  10  11
HETATM   11  C7  UNL     1     -19.926   4.006 -19.358  1.00  0.00     0.164 A 
HETATM   12  N1  UNL     1     -18.696   3.740 -19.849  1.00  0.00    -0.324 N 
HETATM   13  C8  UNL     1     -18.758   2.756 -20.752  1.00  0.00     0.121 A 
ATOM     14  H1  UNL     1     -17.840   4.221 -19.570  1.00  0.00     0.169 HD
HETATM   15 CL1  UNL     1     -17.368   2.127 -21.610  1.00  0.00    -0.063 Cl
HETATM   16  C9  UNL     1     -20.075   2.389 -20.833  1.00  0.00     0.135 A 
HETATM   17  N2  UNL     1     -20.785   3.169 -19.968  1.00  0.00    -0.337 N 
HETATM   18  C10 UNL     1     -22.221   3.063 -19.783  1.00  0.00     0.158 C 
ENDBRANCH  10  11
ENDBRANCH   4   9
BRANCH   6  19
HETATM   19  C13 UNL     1     -24.106   7.628 -14.508  1.00  0.00    -0.009 A 
HETATM   20  C14 UNL     1     -24.567   6.494 -13.888  1.00  0.00     0.013 A 
HETATM   21  C15 UNL     1     -25.853   6.480 -13.385  1.00  0.00     0.001 A 
HETATM   22  C16 UNL     1     -26.678   7.578 -13.493  1.00  0.00     0.000 A 
HETATM   23  C17 UNL     1     -26.222   8.718 -14.113  1.00  0.00     0.001 A 
HETATM   24  C18 UNL     1     -24.927   8.731 -14.619  1.00  0.00     0.013 A 
ENDBRANCH   6  19
TORSDOF 3
ENDMDL
MODEL 2
REMARK VINA RESULT: -7.600425659      1.447      1.897
REMARK  3 active torsions:
REMARK  status: ('A' for Active; 'I' for Inactive)
REMARK    1  A    between atoms: C4_4  and  C5_5 
REMARK    2  A    between atoms: C6_6  and  C7_7 
REMARK    3  A    between atoms: C12_16  and  C13_17 
ROOT
HETATM    1  C1  UNL     1     -19.447   9.143 -13.971  1.00  0.00     0.043 C 
HETATM    2  C2  UNL     1     -20.358   8.720 -14.795  1.00  0.00     0.024 A 
HETATM    3  C3  UNL     1     -20.176   7.607 -15.710  1.00  0.00     0.049 A 
HETATM    4  C4  UNL     1     -21.132   7.222 -16.523  1.00  0.00     0.022 A 
HETATM    5  C11 UNL     1     -22.414   7.952 -16.485  1.00  0.00     0.051 A 
HETATM    6  C12 UNL     1     -22.668   8.964 -15.696  1.00  0.00     0.044 A 
HETATM    7  N3  UNL     1     -21.637   9.379 -14.823  1.00  0.00    -0.356 N 
ATOM      8  H3  UNL     1     -21.804  10.165 -14.195  1.00  0.00     0.166 HD
ENDROOT
BRANCH   4   9
HETATM    9  C5  UNL     1     -20.928   6.114 -17.422  1.00  0.00    -0.058 C 
HETATM   10  C6  UNL     1     -20.752   5.169 -18.168  1.00  0.00    -0.024 C 
BRANCH  10  11
HETATM   11  C7  UNL     1     -20.527   4.045 -19.033  1.00  0.00     0.164 A 
HETATM   12  N1  UNL     1     -19.367   3.426 -19.342  1.00  0.00    -0.324 N 
HETATM   13  C8  UNL     1     -19.591   2.414 -20.188  1.00  0.00     0.121 A 
ATOM     14  H1  UNL     1     -18.450   3.692 -18.983  1.00  0.00     0.169 HD
HETATM   15 CL1  UNL     1     -18.334   1.373 -20.820  1.00  0.00    -0.063 Cl
HETATM   16  C9  UNL     1     -20.940   2.395 -20.419  1.00  0.00     0.135 A 
HETATM   17  N2  UNL     1     -21.506   3.407 -19.700  1.00  0.00    -0.337 N 
HETATM   18  C10 UNL     1     -22.929   3.693 -19.698  1.00  0.00     0.158 C 
ENDBRANCH  10  11
ENDBRANCH   4   9
BRANCH   6  19
HETATM   19  C13 UNL     1     -23.948   9.647 -15.701  1.00  0.00    -0.009 A 
HETATM   20  C14 UNL     1     -24.873   9.325 -14.740  1.00  0.00     0.013 A 
HETATM   21  C15 UNL     1     -26.093   9.973 -14.741  1.00  0.00     0.001 A 
HETATM   22  C16 UNL     1     -26.397  10.931 -15.683  1.00  0.00     0.000 A 
HETATM   23  C17 UNL     1     -25.473  11.258 -16.649  1.00  0.00     0.001 A 
HETATM   24  C18 UNL     1     -24.245  10.605 -16.647  1.00  0.00     0.013 A 
ENDBRANCH   6  19
TORSDOF 3
ENDMDL
MODEL 3
REMARK VINA RESULT: -7.593278516      1.725      2.411
REMARK  3 active torsions:
REMARK  status: ('A' for Active; 'I' for Inactive)
REMARK    1  A    between atoms: C4_4  and  C5_5 
REMARK    2  A    between atoms: C6_6  and  C7_7 
REMARK    3  A    between atoms: C12_16  and  C13_17 
ROOT
HETATM    1  C1  UNL     1     -19.482   9.105 -13.971  1.00  0.00     0.043 C 
HETATM    2  C2  UNL     1     -20.396   8.709 -14.805  1.00  0.00     0.024 A 
HETATM    3  C3  UNL     1     -20.222   7.617 -15.747  1.00  0.00     0.049 A 
HETATM    4  C4  UNL     1     -21.180   7.258 -16.568  1.00  0.00     0.022 A 
HETATM    5  C11 UNL     1     -22.457   7.996 -16.514  1.00  0.00     0.051 A 
HETATM    6  C12 UNL     1     -22.704   8.991 -15.700  1.00  0.00     0.044 A 
HETATM    7  N3  UNL     1     -21.671   9.376 -14.817  1.00  0.00    -0.356 N 
ATOM      8  H3  UNL     1     -21.832  10.149 -14.170  1.00  0.00     0.166 HD
ENDROOT
BRANCH   4   9
HETATM    9  C5  UNL     1     -20.983   6.171 -17.494  1.00  0.00    -0.058 C 
HETATM   10  C6  UNL     1     -20.807   5.245 -18.265  1.00  0.00    -0.024 C 
BRANCH  10  11
HETATM   11  C7  UNL     1     -20.575   4.152 -19.166  1.00  0.00     0.164 A 
HETATM   12  N1  UNL     1     -21.447   3.231 -19.632  1.00  0.00    -0.324 N 
HETATM   13  C8  UNL     1     -20.828   2.379 -20.455  1.00  0.00     0.121 A 
ATOM     14  H1  UNL     1     -22.438   3.193 -19.391  1.00  0.00     0.169 HD
HETATM   15 CL1  UNL     1     -21.625   1.044 -21.260  1.00  0.00    -0.063 Cl
HETATM   16  C9  UNL     1     -19.519   2.776 -20.509  1.00  0.00     0.135 A 
HETATM   17  N2  UNL     1     -19.376   3.871 -19.708  1.00  0.00    -0.337 N 
HETATM   18  C10 UNL     1     -18.118   4.569 -19.518  1.00  0.00     0.158 C 
ENDBRANCH  10  11
ENDBRANCH   4   9
BRANCH   6  19
HETATM   19  C13 UNL     1     -23.979   9.682 -15.689  1.00  0.00    -0.009 A 
HETATM   20  C14 UNL     1     -24.892   9.370 -14.714  1.00  0.00     0.013 A 
HETATM   21  C15 UNL     1     -26.108  10.026 -14.700  1.00  0.00     0.001 A 
HETATM   22  C16 UNL     1     -26.419  10.983 -15.640  1.00  0.00     0.000 A 
HETATM   23  C17 UNL     1     -25.506  11.302 -16.620  1.00  0.00     0.001 A 
HETATM   24  C18 UNL     1     -24.283  10.640 -16.634  1.00  0.00     0.013 A 
ENDBRANCH   6  19
TORSDOF 3
ENDMDL
MODEL 4
REMARK VINA RESULT: -7.584443372      1.423      2.053
REMARK  3 active torsions:
REMARK  status: ('A' for Active; 'I' for Inactive)
REMARK    1  A    between atoms: C4_4  and  C5_5 
REMARK    2  A    between atoms: C6_6  and  C7_7 
REMARK    3  A    between atoms: C12_16  and  C13_17 
ROOT
HETATM    1  C1  UNL     1     -19.445   9.132 -13.976  1.00  0.00     0.043 C 
HETATM    2  C2  UNL     1     -20.359   8.703 -14.793  1.00  0.00     0.024 A 
HETATM    3  C3  UNL     1     -20.174   7.594 -15.713  1.00  0.00     0.049 A 
HETATM    4  C4  UNL     1     -21.133   7.202 -16.518  1.00  0.00     0.022 A 
HETATM    5  C11 UNL     1     -22.421   7.920 -16.469  1.00  0.00     0.051 A 
HETATM    6  C12 UNL     1     -22.678   8.928 -15.675  1.00  0.00     0.044 A 
HETATM    7  N3  UNL     1     -21.644   9.350 -14.809  1.00  0.00    -0.356 N 
ATOM      8  H3  UNL     1     -21.813  10.133 -14.178  1.00  0.00     0.166 HD
ENDROOT
BRANCH   4   9
HETATM    9  C5  UNL     1     -20.926   6.098 -17.421  1.00  0.00    -0.058 C 
HETATM   10  C6  UNL     1     -20.747   5.156 -18.172  1.00  0.00    -0.024 C 
BRANCH  10  11
HETATM   11  C7  UNL     1     -20.517   4.037 -19.041  1.00  0.00     0.164 A 
HETATM   12  N1  UNL     1     -19.354   3.426 -19.357  1.00  0.00    -0.324 N 
HETATM   13  C8  UNL     1     -19.574   2.417 -20.205  1.00  0.00     0.121 A 
ATOM     14  H1  UNL     1     -18.438   3.697 -18.999  1.00  0.00     0.169 HD
HETATM   15 CL1  UNL     1     -18.313   1.385 -20.845  1.00  0.00    -0.063 Cl
HETATM   16  C9  UNL     1     -20.924   2.390 -20.432  1.00  0.00     0.135 A 
HETATM   17  N2  UNL     1     -21.494   3.395 -19.708  1.00  0.00    -0.337 N 
HETATM   18  C10 UNL     1     -22.919   3.673 -19.701  1.00  0.00     0.158 C 
ENDBRANCH  10  11
ENDBRANCH   4   9
BRANCH   6  19
HETATM   19  C13 UNL     1     -23.964   9.599 -15.668  1.00  0.00    -0.009 A 
HETATM   20  C14 UNL     1     -24.218  10.552 -16.622  1.00  0.00     0.013 A 
HETATM   21  C15 UNL     1     -25.441  11.194 -16.619  1.00  0.00     0.001 A 
HETATM   22  C16 UNL     1     -26.406  10.897 -15.683  1.00  0.00     0.000 A 
HETATM   23  C17 UNL     1     -26.158   9.941 -14.724  1.00  0.00     0.001 A 
HETATM   24  C18 UNL     1     -24.926   9.296 -14.727  1.00  0.00     0.013 A 
ENDBRANCH   6  19
TORSDOF 3
ENDMDL
MODEL 5
REMARK VINA RESULT: -7.579797501      0.040      1.016
REMARK  3 active torsions:
REMARK  status: ('A' for Active; 'I' for Inactive)
REMARK    1  A    between atoms: C4_4  and  C5_5 
REMARK    2  A    between atoms: C6_6  and  C7_7 
REMARK    3  A    between atoms: C12_16  and  C13_17 
ROOT
HETATM    1  C1  UNL     1     -19.647   9.523 -14.622  1.00  0.00     0.043 C 
HETATM    2  C2  UNL     1     -20.475   8.633 -15.080  1.00  0.00     0.024 A 
HETATM    3  C3  UNL     1     -20.137   7.650 -16.094  1.00  0.00     0.049 A 
HETATM    4  C4  UNL     1     -21.014   6.772 -16.521  1.00  0.00     0.022 A 
HETATM    5  C11 UNL     1     -22.370   6.804 -15.940  1.00  0.00     0.051 A 
HETATM    6  C12 UNL     1     -22.765   7.651 -15.023  1.00  0.00     0.044 A 
HETATM    7  N3  UNL     1     -21.819   8.596 -14.566  1.00  0.00    -0.356 N 
ATOM      8  H3  UNL     1     -22.096   9.270 -13.852  1.00  0.00     0.166 HD
ENDROOT
BRANCH   4   9
HETATM    9  C5  UNL     1     -20.655   5.807 -17.528  1.00  0.00    -0.058 C 
HETATM   10  C6  UNL     1     -20.340   4.984 -18.369  1.00  0.00    -0.024 C 
BRANCH  10  11
HETATM   11  C7  UNL     1     -19.946   4.013 -19.350  1.00  0.00     0.164 A 
HETATM   12  N1  UNL     1     -18.716   3.748 -19.842  1.00  0.00    -0.324 N 
HETATM   13  C8  UNL     1     -18.778   2.763 -20.744  1.00  0.00     0.121 A 
ATOM     14  H1  UNL     1     -17.861   4.232 -19.566  1.00  0.00     0.169 HD
HETATM   15 CL1  UNL     1     -17.388   2.137 -21.605  1.00  0.00    -0.063 Cl
HETATM   16  C9  UNL     1     -20.094   2.393 -20.823  1.00  0.00     0.135 A 
HETATM   17  N2  UNL     1     -20.804   3.173 -19.957  1.00  0.00    -0.337 N 
HETATM   18  C10 UNL     1     -22.240   3.063 -19.769  1.00  0.00     0.158 C 
ENDBRANCH  10  11
ENDBRANCH   4   9
BRANCH   6  19
HETATM   19  C13 UNL     1     -24.112   7.638 -14.487  1.00  0.00    -0.009 A 
HETATM   20  C14 UNL     1     -24.881   8.769 -14.603  1.00  0.00     0.013 A 
HETATM   21  C15 UNL     1     -26.165   8.761 -14.093  1.00  0.00     0.001 A 
HETATM   22  C16 UNL     1     -26.685   7.646 -13.474  1.00  0.00     0.000 A 
HETATM   23  C17 UNL     1     -25.919   6.509 -13.355  1.00  0.00     0.001 A 
HETATM   24  C18 UNL     1     -24.626   6.518 -13.868  1.00  0.00     0.013 A 
ENDBRANCH   6  19
TORSDOF 3
ENDMDL
