MODEL 1
REMARK VINA RESULT: -7.618404154      0.000      0.000
REMARK  8 active torsions:
REMARK  status: ('A' for Active; 'I' for Inactive)
REMARK    1  A    between atoms: N1_2  and  S1_4 
REMARK    2  A    between atoms: S1_4  and  C2_7 
REMARK    3  A    between atoms: C5_10  and  C6_11 
REMARK    4  A    between atoms: C6_11  and  C7_12 
REMARK    5  A    between atoms: C7_12  and  N2_13 
REMARK    6  A    between atoms: C7_12  and  C8_17 
REMARK    7  A    between atoms: C9_18  and  C10_19 
REMARK    8  A    between atoms: C13_22  and  C14_23 
ROOT
HETATM    1  C7  UNL     1     -28.790   8.415 -12.099  1.00  0.00     0.266 C 
ENDROOT
BRANCH   1   2
HETATM    2  C6  UNL     1     -27.794   7.635 -11.275  1.00  0.00     0.084 C 
BRANCH   2   3
HETATM    3  C5  UNL     1     -26.486   7.586 -11.981  1.00  0.00    -0.055 A 
HETATM    4  C4  UNL     1     -25.798   8.725 -12.346  1.00  0.00     0.009 A 
HETATM    5  C3  UNL     1     -24.584   8.694 -13.002  1.00  0.00     0.026 A 
HETATM    6  C2  UNL     1     -24.006   7.479 -13.322  1.00  0.00     0.079 A 
HETATM    7  C23 UNL     1     -24.680   6.337 -12.966  1.00  0.00     0.026 A 
HETATM    8  C22 UNL     1     -25.895   6.376 -12.309  1.00  0.00     0.009 A 
BRANCH   6   9
HETATM    9  S1  UNL     1     -22.468   7.472 -14.151  1.00  0.00     0.258 S 
HETATM   10  O1  UNL     1     -22.407   8.666 -15.047  1.00  0.00    -0.201 OA
HETATM   11  O2  UNL     1     -21.351   7.556 -13.150  1.00  0.00    -0.201 OA
BRANCH   9  12
HETATM   12  N1  UNL     1     -22.315   6.056 -15.116  1.00  0.00    -0.320 N 
HETATM   13  C1  UNL     1     -23.008   6.293 -16.369  1.00  0.00     0.159 C 
ATOM     14  H1  UNL     1     -21.824   5.201 -14.855  1.00  0.00     0.171 HD
ENDBRANCH   9  12
ENDBRANCH   6   9
ENDBRANCH   2   3
ENDBRANCH   1   2
BRANCH   1  15
HETATM   15  N2  UNL     1     -28.349   8.648 -13.439  1.00  0.00    -0.064 N 
ATOM     16  H23 UNL     1     -29.076   9.108 -13.987  1.00  0.00     0.275 HD
ATOM     17  H22 UNL     1     -27.634   9.375 -13.466  1.00  0.00     0.275 HD
ATOM     18  H21 UNL     1     -28.024   7.801 -13.906  1.00  0.00     0.275 HD
ENDBRANCH   1  15
BRANCH   1  19
HETATM   19  C8  UNL     1     -28.984   9.705 -11.406  1.00  0.00    -0.068 C 
HETATM   20  C9  UNL     1     -29.152  10.748 -10.824  1.00  0.00    -0.065 C 
BRANCH  20  21
HETATM   21  C10 UNL     1     -29.359  11.979 -10.110  1.00  0.00     0.017 A 
HETATM   22  C11 UNL     1     -29.739  13.153 -10.760  1.00  0.00     0.021 A 
HETATM   23  C12 UNL     1     -29.938  14.331 -10.078  1.00  0.00     0.013 A 
HETATM   24  C13 UNL     1     -29.754  14.342  -8.714  1.00  0.00    -0.026 A 
HETATM   25  C20 UNL     1     -29.377  13.209  -8.014  1.00  0.00     0.013 A 
HETATM   26  C21 UNL     1     -29.190  12.055  -8.738  1.00  0.00     0.021 A 
BRANCH  24  27
HETATM   27  C14 UNL     1     -29.962  15.583  -7.978  1.00  0.00    -0.026 A 
HETATM   28  C15 UNL     1     -28.896  16.247  -7.408  1.00  0.00     0.015 A 
HETATM   29  C16 UNL     1     -29.075  17.421  -6.708  1.00  0.00     0.043 A 
HETATM   30  C17 UNL     1     -30.328  17.979  -6.550  1.00  0.00     0.116 A 
HETATM   31  F1  UNL     1     -30.538  19.132  -5.869  1.00  0.00    -0.206 F 
HETATM   32  C18 UNL     1     -31.384  17.297  -7.131  1.00  0.00     0.043 A 
HETATM   33  C19 UNL     1     -31.220  16.125  -7.832  1.00  0.00     0.015 A 
ENDBRANCH  24  27
ENDBRANCH  20  21
ENDBRANCH   1  19
TORSDOF 8
ENDMDL
MODEL 2
REMARK VINA RESULT: -7.561310221      6.452     13.012
REMARK  8 active torsions:
REMARK  status: ('A' for Active; 'I' for Inactive)
REMARK    1  A    between atoms: N1_2  and  S1_4 
REMARK    2  A    between atoms: S1_4  and  C2_7 
REMARK    3  A    between atoms: C5_10  and  C6_11 
REMARK    4  A    between atoms: C6_11  and  C7_12 
REMARK    5  A    between atoms: C7_12  and  N2_13 
REMARK    6  A    between atoms: C7_12  and  C8_17 
REMARK    7  A    between atoms: C9_18  and  C10_19 
REMARK    8  A    between atoms: C13_22  and  C14_23 
ROOT
HETATM    1  C7  UNL     1     -26.942   8.405 -13.399  1.00  0.00     0.266 C 
ENDROOT
BRANCH   1   2
HETATM    2  C6  UNL     1     -26.214   9.087 -12.266  1.00  0.00     0.084 C 
BRANCH   2   3
HETATM    3  C5  UNL     1     -27.111  10.081 -11.618  1.00  0.00    -0.055 A 
HETATM    4  C4  UNL     1     -27.614  11.175 -12.291  1.00  0.00     0.009 A 
HETATM    5  C3  UNL     1     -28.447  12.105 -11.701  1.00  0.00     0.026 A 
HETATM    6  C2  UNL     1     -28.813  11.957 -10.376  1.00  0.00     0.079 A 
HETATM    7  C23 UNL     1     -28.320  10.872  -9.694  1.00  0.00     0.026 A 
HETATM    8  C22 UNL     1     -27.486   9.946 -10.290  1.00  0.00     0.009 A 
BRANCH   6   9
HETATM    9  S1  UNL     1     -29.871  13.149  -9.658  1.00  0.00     0.258 S 
HETATM   10  O1  UNL     1     -29.938  14.331 -10.569  1.00  0.00    -0.201 OA
HETATM   11  O2  UNL     1     -31.250  12.575  -9.501  1.00  0.00    -0.201 OA
BRANCH   9  12
HETATM   12  N1  UNL     1     -29.249  13.663  -8.139  1.00  0.00    -0.320 N 
HETATM   13  C1  UNL     1     -29.283  15.114  -8.111  1.00  0.00     0.159 C 
ATOM     14  H1  UNL     1     -28.915  13.056  -7.390  1.00  0.00     0.171 HD
ENDBRANCH   9  12
ENDBRANCH   6   9
ENDBRANCH   2   3
ENDBRANCH   1   2
BRANCH   1  15
HETATM   15  N2  UNL     1     -27.923   7.467 -12.951  1.00  0.00    -0.064 N 
ATOM     16  H23 UNL     1     -27.547   6.519 -12.953  1.00  0.00     0.275 HD
ATOM     17  H22 UNL     1     -28.100   7.574 -11.951  1.00  0.00     0.275 HD
ATOM     18  H21 UNL     1     -28.793   7.514 -13.480  1.00  0.00     0.275 HD
ENDBRANCH   1  15
BRANCH   1  19
HETATM   19  C8  UNL     1     -25.912   7.708 -14.197  1.00  0.00    -0.068 C 
HETATM   20  C9  UNL     1     -25.078   7.121 -14.839  1.00  0.00    -0.065 C 
BRANCH  20  21
HETATM   21  C10 UNL     1     -24.094   6.398 -15.600  1.00  0.00     0.017 A 
HETATM   22  C11 UNL     1     -22.741   6.419 -15.262  1.00  0.00     0.021 A 
HETATM   23  C12 UNL     1     -21.799   5.729 -15.988  1.00  0.00     0.013 A 
HETATM   24  C13 UNL     1     -22.213   4.998 -17.079  1.00  0.00    -0.026 A 
HETATM   25  C20 UNL     1     -23.541   4.939 -17.463  1.00  0.00     0.013 A 
HETATM   26  C21 UNL     1     -24.447   5.646 -16.707  1.00  0.00     0.021 A 
BRANCH  24  27
HETATM   27  C14 UNL     1     -21.225   4.261 -17.858  1.00  0.00    -0.026 A 
HETATM   28  C15 UNL     1     -20.037   4.857 -18.227  1.00  0.00     0.015 A 
HETATM   29  C16 UNL     1     -19.093   4.173 -18.964  1.00  0.00     0.043 A 
HETATM   30  C17 UNL     1     -19.298   2.867 -19.361  1.00  0.00     0.116 A 
HETATM   31  F1  UNL     1     -18.390   2.168 -20.085  1.00  0.00    -0.206 F 
HETATM   32  C18 UNL     1     -20.497   2.289 -18.980  1.00  0.00     0.043 A 
HETATM   33  C19 UNL     1     -21.448   2.958 -18.244  1.00  0.00     0.015 A 
ENDBRANCH  24  27
ENDBRANCH  20  21
ENDBRANCH   1  19
TORSDOF 8
ENDMDL
MODEL 3
REMARK VINA RESULT: -7.557289431      6.486     13.111
REMARK  8 active torsions:
REMARK  status: ('A' for Active; 'I' for Inactive)
REMARK    1  A    between atoms: N1_2  and  S1_4 
REMARK    2  A    between atoms: S1_4  and  C2_7 
REMARK    3  A    between atoms: C5_10  and  C6_11 
REMARK    4  A    between atoms: C6_11  and  C7_12 
REMARK    5  A    between atoms: C7_12  and  N2_13 
REMARK    6  A    between atoms: C7_12  and  C8_17 
REMARK    7  A    between atoms: C9_18  and  C10_19 
REMARK    8  A    between atoms: C13_22  and  C14_23 
ROOT
HETATM    1  C7  UNL     1     -26.766   8.554 -13.499  1.00  0.00     0.266 C 
ENDROOT
BRANCH   1   2
HETATM    2  C6  UNL     1     -26.021   9.199 -12.354  1.00  0.00     0.084 C 
BRANCH   2   3
HETATM    3  C5  UNL     1     -26.946  10.073 -11.583  1.00  0.00    -0.055 A 
HETATM    4  C4  UNL     1     -27.280   9.822 -10.269  1.00  0.00     0.009 A 
HETATM    5  C3  UNL     1     -28.137  10.624  -9.543  1.00  0.00     0.026 A 
HETATM    6  C2  UNL     1     -28.701  11.739 -10.134  1.00  0.00     0.079 A 
HETATM    7  C23 UNL     1     -28.378  12.001 -11.442  1.00  0.00     0.026 A 
HETATM    8  C22 UNL     1     -27.520  11.194 -12.163  1.00  0.00     0.009 A 
BRANCH   6   9
HETATM    9  S1  UNL     1     -29.780  12.737  -9.188  1.00  0.00     0.258 S 
HETATM   10  O1  UNL     1     -31.122  12.079  -9.150  1.00  0.00    -0.201 OA
HETATM   11  O2  UNL     1     -29.259  12.861  -7.785  1.00  0.00    -0.201 OA
BRANCH   9  12
HETATM   12  N1  UNL     1     -29.952  14.287  -9.913  1.00  0.00    -0.320 N 
HETATM   13  C1  UNL     1     -29.937  15.279  -8.854  1.00  0.00     0.159 C 
ATOM     14  H1  UNL     1     -30.047  14.476 -10.911  1.00  0.00     0.171 HD
ENDBRANCH   9  12
ENDBRANCH   6   9
ENDBRANCH   2   3
ENDBRANCH   1   2
BRANCH   1  15
HETATM   15  N2  UNL     1     -27.798   7.665 -13.066  1.00  0.00    -0.064 N 
ATOM     16  H23 UNL     1     -27.814   7.594 -12.049  1.00  0.00     0.275 HD
ATOM     17  H22 UNL     1     -28.720   8.076 -13.220  1.00  0.00     0.275 HD
ATOM     18  H21 UNL     1     -27.736   6.742 -13.495  1.00  0.00     0.275 HD
ENDBRANCH   1  15
BRANCH   1  19
HETATM   19  C8  UNL     1     -25.759   7.808 -14.281  1.00  0.00    -0.068 C 
HETATM   20  C9  UNL     1     -24.951   7.181 -14.919  1.00  0.00    -0.065 C 
BRANCH  20  21
HETATM   21  C10 UNL     1     -24.002   6.415 -15.682  1.00  0.00     0.017 A 
HETATM   22  C11 UNL     1     -22.643   6.403 -15.371  1.00  0.00     0.021 A 
HETATM   23  C12 UNL     1     -21.735   5.671 -16.099  1.00  0.00     0.013 A 
HETATM   24  C13 UNL     1     -22.190   4.930 -17.167  1.00  0.00    -0.026 A 
HETATM   25  C20 UNL     1     -23.527   4.902 -17.525  1.00  0.00     0.013 A 
HETATM   26  C21 UNL     1     -24.398   5.651 -16.767  1.00  0.00     0.021 A 
BRANCH  24  27
HETATM   27  C14 UNL     1     -21.240   4.148 -17.948  1.00  0.00    -0.026 A 
HETATM   28  C15 UNL     1     -21.559   2.874 -18.367  1.00  0.00     0.015 A 
HETATM   29  C16 UNL     1     -20.671   2.120 -19.107  1.00  0.00     0.043 A 
HETATM   30  C17 UNL     1     -19.429   2.612 -19.456  1.00  0.00     0.116 A 
HETATM   31  F1  UNL     1     -18.534   1.897 -20.181  1.00  0.00    -0.206 F 
HETATM   32  C18 UNL     1     -19.130   3.893 -19.025  1.00  0.00     0.043 A 
HETATM   33  C19 UNL     1     -20.006   4.656 -18.287  1.00  0.00     0.015 A 
ENDBRANCH  24  27
ENDBRANCH  20  21
ENDBRANCH   1  19
TORSDOF 8
ENDMDL
MODEL 4
REMARK VINA RESULT: -7.531508646      6.594     12.312
REMARK  8 active torsions:
REMARK  status: ('A' for Active; 'I' for Inactive)
REMARK    1  A    between atoms: N1_2  and  S1_4 
REMARK    2  A    between atoms: S1_4  and  C2_7 
REMARK    3  A    between atoms: C5_10  and  C6_11 
REMARK    4  A    between atoms: C6_11  and  C7_12 
REMARK    5  A    between atoms: C7_12  and  N2_13 
REMARK    6  A    between atoms: C7_12  and  C8_17 
REMARK    7  A    between atoms: C9_18  and  C10_19 
REMARK    8  A    between atoms: C13_22  and  C14_23 
ROOT
HETATM    1  C7  UNL     1     -27.272  12.340 -13.065  1.00  0.00     0.266 C 
ENDROOT
BRANCH   1   2
HETATM    2  C6  UNL     1     -28.580  11.797 -12.541  1.00  0.00     0.084 C 
BRANCH   2   3
HETATM    3  C5  UNL     1     -29.114  12.703 -11.488  1.00  0.00    -0.055 A 
HETATM    4  C4  UNL     1     -29.695  13.919 -11.783  1.00  0.00     0.009 A 
HETATM    5  C3  UNL     1     -30.193  14.769 -10.816  1.00  0.00     0.026 A 
HETATM    6  C2  UNL     1     -30.121  14.411  -9.482  1.00  0.00     0.079 A 
HETATM    7  C23 UNL     1     -29.545  13.204  -9.175  1.00  0.00     0.026 A 
HETATM    8  C22 UNL     1     -29.048  12.358 -10.147  1.00  0.00     0.009 A 
BRANCH   6   9
HETATM    9  S1  UNL     1     -30.763  15.507  -8.282  1.00  0.00     0.258 S 
HETATM   10  O1  UNL     1     -31.654  16.492  -8.967  1.00  0.00    -0.201 OA
HETATM   11  O2  UNL     1     -31.569  14.740  -7.273  1.00  0.00    -0.201 OA
BRANCH   9  12
HETATM   12  N1  UNL     1     -29.487  16.368  -7.514  1.00  0.00    -0.320 N 
HETATM   13  C1  UNL     1     -30.081  17.331  -6.605  1.00  0.00     0.159 C 
ATOM     14  H1  UNL     1     -28.489  16.227  -7.670  1.00  0.00     0.171 HD
ENDBRANCH   9  12
ENDBRANCH   6   9
ENDBRANCH   2   3
ENDBRANCH   1   2
BRANCH   1  15
HETATM   15  N2  UNL     1     -27.444  13.353 -14.059  1.00  0.00    -0.064 N 
ATOM     16  H23 UNL     1     -27.122  13.027 -14.970  1.00  0.00     0.275 HD
ATOM     17  H22 UNL     1     -28.432  13.492 -14.271  1.00  0.00     0.275 HD
ATOM     18  H21 UNL     1     -26.998  14.236 -13.811  1.00  0.00     0.275 HD
ENDBRANCH   1  15
BRANCH   1  19
HETATM   19  C8  UNL     1     -26.547  11.190 -13.643  1.00  0.00    -0.068 C 
HETATM   20  C9  UNL     1     -25.968  10.252 -14.132  1.00  0.00    -0.065 C 
BRANCH  20  21
HETATM   21  C10 UNL     1     -25.292   9.136 -14.736  1.00  0.00     0.017 A 
HETATM   22  C11 UNL     1     -23.903   9.010 -14.705  1.00  0.00     0.021 A 
HETATM   23  C12 UNL     1     -23.255   7.943 -15.281  1.00  0.00     0.013 A 
HETATM   24  C13 UNL     1     -24.008   6.975 -15.907  1.00  0.00    -0.026 A 
HETATM   25  C20 UNL     1     -25.389   7.044 -15.971  1.00  0.00     0.013 A 
HETATM   26  C21 UNL     1     -25.992   8.130 -15.380  1.00  0.00     0.021 A 
BRANCH  24  27
HETATM   27  C14 UNL     1     -23.335   5.837 -16.522  1.00  0.00    -0.026 A 
HETATM   28  C15 UNL     1     -24.046   4.926 -17.275  1.00  0.00     0.015 A 
HETATM   29  C16 UNL     1     -23.425   3.844 -17.863  1.00  0.00     0.043 A 
HETATM   30  C17 UNL     1     -22.068   3.631 -17.723  1.00  0.00     0.116 A 
HETATM   31  F1  UNL     1     -21.428   2.579 -18.288  1.00  0.00    -0.206 F 
HETATM   32  C18 UNL     1     -21.374   4.558 -16.964  1.00  0.00     0.043 A 
HETATM   33  C19 UNL     1     -21.980   5.642 -16.371  1.00  0.00     0.015 A 
ENDBRANCH  24  27
ENDBRANCH  20  21
ENDBRANCH   1  19
TORSDOF 8
ENDMDL
MODEL 5
REMARK VINA RESULT: -7.530997669      3.655      4.997
REMARK  8 active torsions:
REMARK  status: ('A' for Active; 'I' for Inactive)
REMARK    1  A    between atoms: N1_2  and  S1_4 
REMARK    2  A    between atoms: S1_4  and  C2_7 
REMARK    3  A    between atoms: C5_10  and  C6_11 
REMARK    4  A    between atoms: C6_11  and  C7_12 
REMARK    5  A    between atoms: C7_12  and  N2_13 
REMARK    6  A    between atoms: C7_12  and  C8_17 
REMARK    7  A    between atoms: C9_18  and  C10_19 
REMARK    8  A    between atoms: C13_22  and  C14_23 
ROOT
HETATM    1  C7  UNL     1     -24.413   8.456 -13.864  1.00  0.00     0.266 C 
ENDROOT
BRANCH   1   2
HETATM    2  C6  UNL     1     -24.107   7.211 -13.068  1.00  0.00     0.084 C 
BRANCH   2   3
HETATM    3  C5  UNL     1     -25.376   6.536 -12.684  1.00  0.00    -0.055 A 
HETATM    4  C4  UNL     1     -25.823   6.483 -11.380  1.00  0.00     0.009 A 
HETATM    5  C3  UNL     1     -26.997   5.860 -11.010  1.00  0.00     0.026 A 
HETATM    6  C2  UNL     1     -27.785   5.252 -11.971  1.00  0.00     0.079 A 
HETATM    7  C23 UNL     1     -27.353   5.297 -13.273  1.00  0.00     0.026 A 
HETATM    8  C22 UNL     1     -26.176   5.922 -13.636  1.00  0.00     0.009 A 
BRANCH   6   9
HETATM    9  S1  UNL     1     -29.268   4.473 -11.472  1.00  0.00     0.258 S 
HETATM   10  O1  UNL     1     -30.387   5.455 -11.607  1.00  0.00    -0.201 OA
HETATM   11  O2  UNL     1     -29.545   3.294 -12.360  1.00  0.00    -0.201 OA
BRANCH   9  12
HETATM   12  N1  UNL     1     -29.164   3.986  -9.826  1.00  0.00    -0.320 N 
HETATM   13  C1  UNL     1     -29.748   2.662  -9.715  1.00  0.00     0.159 C 
ATOM     14  H1  UNL     1     -28.764   4.531  -9.063  1.00  0.00     0.171 HD
ENDBRANCH   9  12
ENDBRANCH   6   9
ENDBRANCH   2   3
ENDBRANCH   1   2
BRANCH   1  15
HETATM   15  N2  UNL     1     -23.252   9.241 -14.146  1.00  0.00    -0.064 N 
ATOM     16  H23 UNL     1     -23.458  10.237 -14.068  1.00  0.00     0.275 HD
ATOM     17  H22 UNL     1     -22.563   9.153 -13.399  1.00  0.00     0.275 HD
ATOM     18  H21 UNL     1     -22.835   9.026 -15.052  1.00  0.00     0.275 HD
ENDBRANCH   1  15
BRANCH   1  19
HETATM   19  C8  UNL     1     -25.364   9.245 -13.053  1.00  0.00    -0.068 C 
HETATM   20  C9  UNL     1     -26.143   9.872 -12.379  1.00  0.00    -0.065 C 
BRANCH  20  21
HETATM   21  C10 UNL     1     -27.074  10.600 -11.559  1.00  0.00     0.017 A 
HETATM   22  C11 UNL     1     -27.742  11.731 -12.028  1.00  0.00     0.021 A 
HETATM   23  C12 UNL     1     -28.632  12.428 -11.245  1.00  0.00     0.013 A 
HETATM   24  C13 UNL     1     -28.864  11.989  -9.961  1.00  0.00    -0.026 A 
HETATM   25  C20 UNL     1     -28.232  10.874  -9.439  1.00  0.00     0.013 A 
HETATM   26  C21 UNL     1     -27.350  10.209 -10.260  1.00  0.00     0.021 A 
BRANCH  24  27
HETATM   27  C14 UNL     1     -29.805  12.718  -9.120  1.00  0.00    -0.026 A 
HETATM   28  C15 UNL     1     -29.654  14.073  -8.910  1.00  0.00     0.015 A 
HETATM   29  C16 UNL     1     -30.535  14.777  -8.116  1.00  0.00     0.043 A 
HETATM   30  C17 UNL     1     -31.603  14.154  -7.502  1.00  0.00     0.116 A 
HETATM   31  F1  UNL     1     -32.487  14.817  -6.716  1.00  0.00    -0.206 F 
HETATM   32  C18 UNL     1     -31.736  12.794  -7.726  1.00  0.00     0.043 A 
HETATM   33  C19 UNL     1     -30.865  12.079  -8.515  1.00  0.00     0.015 A 
ENDBRANCH  24  27
ENDBRANCH  20  21
ENDBRANCH   1  19
TORSDOF 8
ENDMDL
