MODEL 1
REMARK VINA RESULT: -8.132985286      0.000      0.000
REMARK  6 active torsions:
REMARK  status: ('A' for Active; 'I' for Inactive)
REMARK    1  A    between atoms: C2_2  and  C3_3 
REMARK    2  A    between atoms: C2_2  and  N3_13 
REMARK    3  A    between atoms: C3_3  and  C4_4 
REMARK    4  A    between atoms: C9_16  and  C10_17 
REMARK    5  A    between atoms: C16_24  and  C17_25 
REMARK    6  A    between atoms: C22_30  and  C23_31 
ROOT
HETATM    1  N3  UNL     1       6.370  34.868  79.242  1.00  0.00    -0.282 N 
HETATM    2  C8  UNL     1       5.732  34.916  77.978  1.00  0.00     0.236 C 
HETATM    3  O2  UNL     1       4.485  35.132  77.876  1.00  0.00    -0.272 OA
HETATM    4  C9  UNL     1       6.771  34.682  76.981  1.00  0.00     0.129 C 
HETATM    5  C16 UNL     1       7.931  33.990  77.752  1.00  0.00     0.129 C 
HETATM    6  C27 UNL     1       7.778  34.710  79.006  1.00  0.00     0.236 C 
HETATM    7  O3  UNL     1       8.664  35.150  79.786  1.00  0.00    -0.272 OA
ENDROOT
BRANCH   1   8
HETATM    8  C2  UNL     1       5.783  34.999  80.562  1.00  0.00     0.097 C 
HETATM    9  C1  UNL     1       6.571  33.944  81.384  1.00  0.00     0.033 C 
BRANCH   8  10
HETATM   10  C3  UNL     1       6.061  36.296  81.246  1.00  0.00     0.084 C 
BRANCH  10  11
HETATM   11  C4  UNL     1       5.633  37.426  80.414  1.00  0.00     0.028 A 
HETATM   12  C5  UNL     1       4.299  37.724  80.232  1.00  0.00     0.032 A 
HETATM   13  C6  UNL     1       3.899  38.765  79.413  1.00  0.00     0.077 A 
HETATM   14  C7  UNL     1       4.862  39.511  78.772  1.00  0.00     0.259 A 
HETATM   15  O1  UNL     1       4.572  40.479  78.006  1.00  0.00    -0.267 OA
HETATM   16  N1  UNL     1       6.171  39.193  78.972  1.00  0.00    -0.266 N 
HETATM   17  N2  UNL     1       6.514  38.187  79.764  1.00  0.00    -0.302 N 
ATOM     18  H1  UNL     1       6.897  39.736  78.505  1.00  0.00     0.190 HD
ATOM     19  H2  UNL     1       7.506  37.985  79.883  1.00  0.00     0.186 HD
ENDBRANCH  10  11
ENDBRANCH   8  10
ENDBRANCH   1   8
BRANCH   4  20
HETATM   20  C10 UNL     1       7.268  35.950  76.382  1.00  0.00    -0.044 A 
HETATM   21  C11 UNL     1       6.371  36.933  76.052  1.00  0.00     0.010 A 
HETATM   22  C12 UNL     1       6.773  38.139  75.498  1.00  0.00     0.024 A 
HETATM   23  C13 UNL     1       8.106  38.375  75.264  1.00  0.00     0.034 A 
HETATM   24 CL1  UNL     1       8.706  39.876  74.564  1.00  0.00    -0.084 Cl
HETATM   25  C14 UNL     1       9.036  37.391  75.589  1.00  0.00     0.024 A 
HETATM   26  C15 UNL     1       8.592  36.189  76.148  1.00  0.00     0.010 A 
ENDBRANCH   4  20
BRANCH   5  27
HETATM   27  C17 UNL     1       7.763  32.569  77.603  1.00  0.00    -0.037 A 
HETATM   28  C18 UNL     1       7.116  31.847  78.601  1.00  0.00     0.009 A 
HETATM   29  C19 UNL     1       6.868  30.492  78.540  1.00  0.00     0.001 A 
HETATM   30  C20 UNL     1       7.281  29.817  77.436  1.00  0.00     0.001 A 
HETATM   31  C21 UNL     1       7.920  30.518  76.446  1.00  0.00     0.008 A 
HETATM   32  C22 UNL     1       8.196  31.887  76.460  1.00  0.00    -0.043 A 
BRANCH  32  33
HETATM   33  C23 UNL     1       8.924  32.506  75.352  1.00  0.00    -0.024 C 
HETATM   34  C24 UNL     1       9.652  31.308  74.642  1.00  0.00     0.019 C 
HETATM   35  C25 UNL     1      10.159  33.299  75.774  1.00  0.00     0.019 C 
HETATM   36  C26 UNL     1       8.160  33.100  74.235  1.00  0.00     0.019 C 
ENDBRANCH  32  33
ENDBRANCH   5  27
TORSDOF 6
ENDMDL
MODEL 2
REMARK VINA RESULT: -8.095641280      0.731      1.165
REMARK  6 active torsions:
REMARK  status: ('A' for Active; 'I' for Inactive)
REMARK    1  A    between atoms: C2_2  and  C3_3 
REMARK    2  A    between atoms: C2_2  and  N3_13 
REMARK    3  A    between atoms: C3_3  and  C4_4 
REMARK    4  A    between atoms: C9_16  and  C10_17 
REMARK    5  A    between atoms: C16_24  and  C17_25 
REMARK    6  A    between atoms: C22_30  and  C23_31 
ROOT
HETATM    1  N3  UNL     1       6.369  34.883  79.166  1.00  0.00    -0.282 N 
HETATM    2  C8  UNL     1       5.721  34.913  77.906  1.00  0.00     0.236 C 
HETATM    3  O2  UNL     1       4.467  35.088  77.814  1.00  0.00    -0.272 OA
HETATM    4  C9  UNL     1       6.761  34.714  76.902  1.00  0.00     0.129 C 
HETATM    5  C16 UNL     1       7.947  34.059  77.663  1.00  0.00     0.129 C 
HETATM    6  C27 UNL     1       7.780  34.771  78.920  1.00  0.00     0.236 C 
HETATM    7  O3  UNL     1       8.656  35.239  79.694  1.00  0.00    -0.272 OA
ENDROOT
BRANCH   1   8
HETATM    8  C2  UNL     1       5.787  34.993  80.491  1.00  0.00     0.097 C 
HETATM    9  C1  UNL     1       6.650  34.002  81.317  1.00  0.00     0.033 C 
BRANCH   8  10
HETATM   10  C3  UNL     1       5.986  36.314  81.155  1.00  0.00     0.084 C 
BRANCH  10  11
HETATM   11  C4  UNL     1       5.413  37.395  80.347  1.00  0.00     0.028 A 
HETATM   12  C5  UNL     1       6.203  38.198  79.552  1.00  0.00     0.032 A 
HETATM   13  C6  UNL     1       5.663  39.244  78.823  1.00  0.00     0.077 A 
HETATM   14  C7  UNL     1       4.309  39.477  78.903  1.00  0.00     0.259 A 
HETATM   15  O1  UNL     1       3.744  40.417  78.265  1.00  0.00    -0.267 OA
HETATM   16  N1  UNL     1       3.555  38.667  79.696  1.00  0.00    -0.266 N 
HETATM   17  N2  UNL     1       4.109  37.676  80.379  1.00  0.00    -0.302 N 
ATOM     18  H1  UNL     1       2.550  38.826  79.766  1.00  0.00     0.190 HD
ATOM     19  H2  UNL     1       3.506  37.096  80.962  1.00  0.00     0.186 HD
ENDBRANCH  10  11
ENDBRANCH   8  10
ENDBRANCH   1   8
BRANCH   4  20
HETATM   20  C10 UNL     1       7.212  35.999  76.301  1.00  0.00    -0.044 A 
HETATM   21  C11 UNL     1       8.553  36.226  76.132  1.00  0.00     0.010 A 
HETATM   22  C12 UNL     1       9.035  37.399  75.572  1.00  0.00     0.024 A 
HETATM   23  C13 UNL     1       8.158  38.375  75.167  1.00  0.00     0.034 A 
HETATM   24 CL1  UNL     1       8.681  39.895  74.445  1.00  0.00    -0.084 Cl
HETATM   25  C14 UNL     1       6.791  38.168  75.329  1.00  0.00     0.024 A 
HETATM   26  C15 UNL     1       6.343  36.971  75.897  1.00  0.00     0.010 A 
ENDBRANCH   4  20
BRANCH   5  27
HETATM   27  C17 UNL     1       7.825  32.633  77.513  1.00  0.00    -0.037 A 
HETATM   28  C18 UNL     1       7.264  31.881  78.540  1.00  0.00     0.009 A 
HETATM   29  C19 UNL     1       7.065  30.519  78.483  1.00  0.00     0.001 A 
HETATM   30  C20 UNL     1       7.439  29.866  77.352  1.00  0.00     0.001 A 
HETATM   31  C21 UNL     1       7.993  30.597  76.332  1.00  0.00     0.008 A 
HETATM   32  C22 UNL     1       8.217  31.976  76.341  1.00  0.00    -0.043 A 
BRANCH  32  33
HETATM   33  C23 UNL     1       8.857  32.628  75.199  1.00  0.00    -0.024 C 
HETATM   34  C24 UNL     1       9.617  31.469  74.459  1.00  0.00     0.019 C 
HETATM   35  C25 UNL     1      10.064  33.492  75.560  1.00  0.00     0.019 C 
HETATM   36  C26 UNL     1       8.009  33.172  74.118  1.00  0.00     0.019 C 
ENDBRANCH  32  33
ENDBRANCH   5  27
TORSDOF 6
ENDMDL
MODEL 3
REMARK VINA RESULT: -7.886938791      0.577      1.031
REMARK  6 active torsions:
REMARK  status: ('A' for Active; 'I' for Inactive)
REMARK    1  A    between atoms: C2_2  and  C3_3 
REMARK    2  A    between atoms: C2_2  and  N3_13 
REMARK    3  A    between atoms: C3_3  and  C4_4 
REMARK    4  A    between atoms: C9_16  and  C10_17 
REMARK    5  A    between atoms: C16_24  and  C17_25 
REMARK    6  A    between atoms: C22_30  and  C23_31 
ROOT
HETATM    1  N3  UNL     1       6.257  34.868  79.176  1.00  0.00    -0.282 N 
HETATM    2  C8  UNL     1       5.733  34.819  77.861  1.00  0.00     0.236 C 
HETATM    3  O2  UNL     1       4.485  34.903  77.645  1.00  0.00    -0.272 OA
HETATM    4  C9  UNL     1       6.875  34.667  76.966  1.00  0.00     0.129 C 
HETATM    5  C16 UNL     1       8.024  34.116  77.857  1.00  0.00     0.129 C 
HETATM    6  C27 UNL     1       7.689  34.848  79.068  1.00  0.00     0.236 C 
HETATM    7  O3  UNL     1       8.453  35.395  79.906  1.00  0.00    -0.272 OA
ENDROOT
BRANCH   1   8
HETATM    8  C2  UNL     1       5.544  34.971  80.436  1.00  0.00     0.097 C 
HETATM    9  C1  UNL     1       6.220  33.868  81.293  1.00  0.00     0.033 C 
BRANCH   8  10
HETATM   10  C3  UNL     1       5.784  36.236  81.190  1.00  0.00     0.084 C 
BRANCH  10  11
HETATM   11  C4  UNL     1       5.468  37.404  80.361  1.00  0.00     0.028 A 
HETATM   12  C5  UNL     1       4.167  37.799  80.135  1.00  0.00     0.032 A 
HETATM   13  C6  UNL     1       3.872  38.877  79.318  1.00  0.00     0.077 A 
HETATM   14  C7  UNL     1       4.909  39.560  78.724  1.00  0.00     0.259 A 
HETATM   15  O1  UNL     1       4.717  40.557  77.963  1.00  0.00    -0.267 OA
HETATM   16  N1  UNL     1       6.184  39.147  78.967  1.00  0.00    -0.266 N 
HETATM   17  N2  UNL     1       6.425  38.110  79.755  1.00  0.00    -0.302 N 
ATOM     18  H1  UNL     1       6.964  39.644  78.535  1.00  0.00     0.190 HD
ATOM     19  H2  UNL     1       7.395  37.835  79.907  1.00  0.00     0.186 HD
ENDBRANCH  10  11
ENDBRANCH   8  10
ENDBRANCH   1   8
BRANCH   4  20
HETATM   20  C10 UNL     1       7.295  35.963  76.369  1.00  0.00    -0.044 A 
HETATM   21  C11 UNL     1       8.622  36.177  76.095  1.00  0.00     0.010 A 
HETATM   22  C12 UNL     1       9.073  37.361  75.531  1.00  0.00     0.024 A 
HETATM   23  C13 UNL     1       8.182  38.361  75.232  1.00  0.00     0.034 A 
HETATM   24 CL1  UNL     1       8.667  39.896  74.514  1.00  0.00    -0.084 Cl
HETATM   25  C14 UNL     1       6.830  38.168  75.501  1.00  0.00     0.024 A 
HETATM   26  C15 UNL     1       6.412  36.960  76.069  1.00  0.00     0.010 A 
ENDBRANCH   4  20
BRANCH   5  27
HETATM   27  C17 UNL     1       8.012  32.681  77.742  1.00  0.00    -0.037 A 
HETATM   28  C18 UNL     1       7.042  31.948  78.418  1.00  0.00     0.009 A 
HETATM   29  C19 UNL     1       6.917  30.577  78.345  1.00  0.00     0.001 A 
HETATM   30  C20 UNL     1       7.796  29.897  77.565  1.00  0.00     0.001 A 
HETATM   31  C21 UNL     1       8.757  30.609  76.894  1.00  0.00     0.008 A 
HETATM   32  C22 UNL     1       8.926  31.995  76.935  1.00  0.00    -0.043 A 
BRANCH  32  33
HETATM   33  C23 UNL     1      10.023  32.628  76.201  1.00  0.00    -0.024 C 
HETATM   34  C24 UNL     1      11.045  31.464  75.940  1.00  0.00     0.019 C 
HETATM   35  C25 UNL     1      10.918  33.525  77.054  1.00  0.00     0.019 C 
HETATM   36  C26 UNL     1       9.774  33.125  74.832  1.00  0.00     0.019 C 
ENDBRANCH  32  33
ENDBRANCH   5  27
TORSDOF 6
ENDMDL
MODEL 4
REMARK VINA RESULT: -7.670650658      3.877      6.289
REMARK  6 active torsions:
REMARK  status: ('A' for Active; 'I' for Inactive)
REMARK    1  A    between atoms: C2_2  and  C3_3 
REMARK    2  A    between atoms: C2_2  and  N3_13 
REMARK    3  A    between atoms: C3_3  and  C4_4 
REMARK    4  A    between atoms: C9_16  and  C10_17 
REMARK    5  A    between atoms: C16_24  and  C17_25 
REMARK    6  A    between atoms: C22_30  and  C23_31 
ROOT
HETATM    1  N3  UNL     1       8.138  32.900  75.863  1.00  0.00    -0.282 N 
HETATM    2  C8  UNL     1       7.871  32.086  76.991  1.00  0.00     0.236 C 
HETATM    3  O2  UNL     1       6.947  32.378  77.810  1.00  0.00    -0.272 OA
HETATM    4  C9  UNL     1       8.825  30.983  76.939  1.00  0.00     0.129 C 
HETATM    5  C16 UNL     1       9.978  31.479  76.022  1.00  0.00     0.129 C 
HETATM    6  C27 UNL     1       9.162  32.247  75.095  1.00  0.00     0.236 C 
HETATM    7  O3  UNL     1       9.266  32.359  73.845  1.00  0.00    -0.272 OA
ENDROOT
BRANCH   1   8
HETATM    8  C2  UNL     1       7.502  34.143  75.467  1.00  0.00     0.097 C 
HETATM    9  C1  UNL     1       6.041  33.697  75.190  1.00  0.00     0.033 C 
BRANCH   8  10
HETATM   10  C3  UNL     1       7.387  35.161  76.552  1.00  0.00     0.084 C 
BRANCH  10  11
HETATM   11  C4  UNL     1       7.588  36.513  76.021  1.00  0.00     0.028 A 
HETATM   12  C5  UNL     1       8.851  37.025  75.808  1.00  0.00     0.032 A 
HETATM   13  C6  UNL     1       9.036  38.317  75.347  1.00  0.00     0.077 A 
HETATM   14  C7  UNL     1       7.929  39.097  75.100  1.00  0.00     0.259 A 
HETATM   15  O1  UNL     1       8.021  40.289  74.676  1.00  0.00    -0.267 OA
HETATM   16  N1  UNL     1       6.696  38.564  75.318  1.00  0.00    -0.266 N 
HETATM   17  N2  UNL     1       6.559  37.322  75.762  1.00  0.00    -0.302 N 
ATOM     18  H1  UNL     1       5.865  39.128  75.139  1.00  0.00     0.190 HD
ATOM     19  H2  UNL     1       5.616  36.966  75.913  1.00  0.00     0.186 HD
ENDBRANCH  10  11
ENDBRANCH   8  10
ENDBRANCH   1   8
BRANCH   4  20
HETATM   20  C10 UNL     1       8.227  29.752  76.355  1.00  0.00    -0.044 A 
HETATM   21  C11 UNL     1       6.889  29.506  76.533  1.00  0.00     0.010 A 
HETATM   22  C12 UNL     1       6.273  28.381  76.006  1.00  0.00     0.024 A 
HETATM   23  C13 UNL     1       7.006  27.475  75.281  1.00  0.00     0.034 A 
HETATM   24 CL1  UNL     1       6.306  26.020  74.575  1.00  0.00    -0.084 Cl
HETATM   25  C14 UNL     1       8.366  27.702  75.087  1.00  0.00     0.024 A 
HETATM   26  C15 UNL     1       8.952  28.849  75.633  1.00  0.00     0.010 A 
ENDBRANCH   4  20
BRANCH   5  27
HETATM   27  C17 UNL     1      10.995  32.042  76.870  1.00  0.00    -0.037 A 
HETATM   28  C18 UNL     1      10.866  33.352  77.320  1.00  0.00     0.009 A 
HETATM   29  C19 UNL     1      11.761  33.972  78.165  1.00  0.00     0.001 A 
HETATM   30  C20 UNL     1      12.838  33.261  78.588  1.00  0.00     0.001 A 
HETATM   31  C21 UNL     1      12.976  31.969  78.150  1.00  0.00     0.008 A 
HETATM   32  C22 UNL     1      12.100  31.296  77.295  1.00  0.00    -0.043 A 
BRANCH  32  33
HETATM   33  C23 UNL     1      12.388  29.925  76.871  1.00  0.00    -0.024 C 
HETATM   34  C24 UNL     1      13.920  29.737  77.162  1.00  0.00     0.019 C 
HETATM   35  C25 UNL     1      12.421  29.726  75.358  1.00  0.00     0.019 C 
HETATM   36  C26 UNL     1      11.797  28.803  77.630  1.00  0.00     0.019 C 
ENDBRANCH  32  33
ENDBRANCH   5  27
TORSDOF 6
ENDMDL
MODEL 5
REMARK VINA RESULT: -7.612023596      3.124      4.942
REMARK  6 active torsions:
REMARK  status: ('A' for Active; 'I' for Inactive)
REMARK    1  A    between atoms: C2_2  and  C3_3 
REMARK    2  A    between atoms: C2_2  and  N3_13 
REMARK    3  A    between atoms: C3_3  and  C4_4 
REMARK    4  A    between atoms: C9_16  and  C10_17 
REMARK    5  A    between atoms: C16_24  and  C17_25 
REMARK    6  A    between atoms: C22_30  and  C23_31 
ROOT
HETATM    1  N3  UNL     1       6.017  35.205  77.934  1.00  0.00    -0.282 N 
HETATM    2  C8  UNL     1       6.094  34.040  78.735  1.00  0.00     0.236 C 
HETATM    3  O2  UNL     1       5.789  34.066  79.967  1.00  0.00    -0.272 OA
HETATM    4  C9  UNL     1       6.554  32.967  77.861  1.00  0.00     0.129 C 
HETATM    5  C16 UNL     1       7.226  33.679  76.655  1.00  0.00     0.129 C 
HETATM    6  C27 UNL     1       6.326  34.819  76.585  1.00  0.00     0.236 C 
HETATM    7  O3  UNL     1       5.857  35.405  75.574  1.00  0.00    -0.272 OA
ENDROOT
BRANCH   1   8
HETATM    8  C2  UNL     1       5.651  36.555  78.323  1.00  0.00     0.097 C 
HETATM    9  C1  UNL     1       5.105  36.350  79.762  1.00  0.00     0.033 C 
BRANCH   8  10
HETATM   10  C3  UNL     1       6.800  37.493  78.485  1.00  0.00     0.084 C 
BRANCH  10  11
HETATM   11  C4  UNL     1       7.250  37.994  77.182  1.00  0.00     0.028 A 
HETATM   12  C5  UNL     1       8.564  37.884  76.780  1.00  0.00     0.032 A 
HETATM   13  C6  UNL     1       8.993  38.396  75.567  1.00  0.00     0.077 A 
HETATM   14  C7  UNL     1       8.078  39.026  74.755  1.00  0.00     0.259 A 
HETATM   15  O1  UNL     1       8.397  39.520  73.631  1.00  0.00    -0.267 OA
HETATM   16  N1  UNL     1       6.787  39.120  75.178  1.00  0.00    -0.266 N 
HETATM   17  N2  UNL     1       6.416  38.617  76.347  1.00  0.00    -0.302 N 
ATOM     18  H1  UNL     1       6.097  39.583  74.588  1.00  0.00     0.190 HD
ATOM     19  H2  UNL     1       5.439  38.712  76.624  1.00  0.00     0.186 HD
ENDBRANCH  10  11
ENDBRANCH   8  10
ENDBRANCH   1   8
BRANCH   4  20
HETATM   20  C10 UNL     1       5.430  32.124  77.370  1.00  0.00    -0.044 A 
HETATM   21  C11 UNL     1       5.455  31.658  76.080  1.00  0.00     0.010 A 
HETATM   22  C12 UNL     1       4.441  30.862  75.567  1.00  0.00     0.024 A 
HETATM   23  C13 UNL     1       3.373  30.520  76.358  1.00  0.00     0.034 A 
HETATM   24 CL1  UNL     1       2.042  29.514  75.790  1.00  0.00    -0.084 Cl
HETATM   25  C14 UNL     1       3.325  30.981  77.671  1.00  0.00     0.024 A 
HETATM   26  C15 UNL     1       4.366  31.780  78.153  1.00  0.00     0.010 A 
ENDBRANCH   4  20
BRANCH   5  27
HETATM   27  C17 UNL     1       8.635  33.770  76.934  1.00  0.00    -0.037 A 
HETATM   28  C18 UNL     1       9.096  34.732  77.826  1.00  0.00     0.009 A 
HETATM   29  C19 UNL     1      10.417  34.878  78.194  1.00  0.00     0.001 A 
HETATM   30  C20 UNL     1      11.328  34.030  77.651  1.00  0.00     0.001 A 
HETATM   31  C21 UNL     1      10.885  33.077  76.770  1.00  0.00     0.008 A 
HETATM   32  C22 UNL     1       9.561  32.888  76.365  1.00  0.00    -0.043 A 
BRANCH  32  33
HETATM   33  C23 UNL     1       9.228  31.857  75.382  1.00  0.00    -0.024 C 
HETATM   34  C24 UNL     1      10.619  31.358  74.850  1.00  0.00     0.019 C 
HETATM   35  C25 UNL     1       8.665  32.394  74.069  1.00  0.00     0.019 C 
HETATM   36  C26 UNL     1       8.613  30.596  75.848  1.00  0.00     0.019 C 
ENDBRANCH  32  33
ENDBRANCH   5  27
TORSDOF 6
ENDMDL
