MODEL 1
REMARK VINA RESULT: -7.426504189      0.000      0.000
REMARK  13 active torsions:
REMARK  status: ('A' for Active; 'I' for Inactive)
REMARK    1  A    between atoms: C2_5  and  C3_6 
REMARK    2  A    between atoms: C3_6  and  N3_7 
REMARK    3  A    between atoms: C3_6  and  C10_29 
REMARK       I    between atoms: N3_7  and  C4_9 
REMARK       I    between atoms: C4_9  and  N4_11 
REMARK    4  A    between atoms: N4_11  and  C5_13 
REMARK    5  A    between atoms: C6_15  and  C7_16 
REMARK    6  A    between atoms: C7_16  and  N5_17 
REMARK    7  A    between atoms: C8_21  and  N6_22 
REMARK    8  A    between atoms: C9_26  and  O3_27 
REMARK    9  A    between atoms: C10_29  and  N7_30 
REMARK   10  A    between atoms: C10_29  and  C11_34 
REMARK   11  A    between atoms: C11_34  and  O4_35 
REMARK   12  A    between atoms: C11_34  and  C12_37 
REMARK   13  A    between atoms: C15_45  and  N11_46 
ROOT
HETATM    1  C3  UNL     1      16.787 -19.436  -7.444  1.00  0.00     0.093 C 
ENDROOT
BRANCH   1   2
HETATM    2  C2  UNL     1      15.338 -19.500  -7.352  1.00  0.00     0.155 A 
HETATM    3  N2  UNL     1      14.538 -19.310  -8.462  1.00  0.00    -0.279 N 
HETATM    4  N1  UNL     1      13.241 -19.366  -8.458  1.00  0.00    -0.257 N 
ATOM      5  H2  UNL     1      15.000 -19.112  -9.350  1.00  0.00     0.189 HD
HETATM    6  C1  UNL     1      12.507 -19.150  -9.685  1.00  0.00     0.181 C 
HETATM    7  C18 UNL     1      12.558 -19.620  -7.341  1.00  0.00     0.306 A 
HETATM    8  C13 UNL     1      13.305 -19.820  -6.199  1.00  0.00     0.187 A 
HETATM    9  O6  UNL     1      11.303 -19.684  -7.289  1.00  0.00    -0.262 OA
HETATM   10  N9  UNL     1      14.672 -19.757  -6.227  1.00  0.00    -0.259 N 
HETATM   11  N10 UNL     1      12.886 -20.104  -4.953  1.00  0.00    -0.331 N 
HETATM   12  C17 UNL     1      15.042 -20.015  -4.959  1.00  0.00     0.147 A 
HETATM   13  C14 UNL     1      13.939 -20.232  -4.158  1.00  0.00     0.123 A 
HETATM   14  N13 UNL     1      16.227 -20.098  -4.384  1.00  0.00    -0.336 N 
HETATM   15  C15 UNL     1      14.148 -20.517  -2.826  1.00  0.00     0.131 A 
HETATM   16  N12 UNL     1      15.396 -20.580  -2.330  1.00  0.00    -0.337 N 
HETATM   17  C16 UNL     1      16.471 -20.370  -3.103  1.00  0.00     0.183 A 
ATOM     18  H12 UNL     1      15.528 -20.792  -1.342  1.00  0.00     0.168 HD
ATOM     19  H13 UNL     1      17.038 -19.937  -4.981  1.00  0.00     0.168 HD
ATOM     20  H10 UNL     1      11.912 -20.205  -4.665  1.00  0.00     0.168 HD
BRANCH  15  21
HETATM   21  N11 UNL     1      13.120 -20.721  -2.070  1.00  0.00    -0.383 N 
ATOM     22 2H11 UNL     1      12.343 -21.302  -2.384  1.00  0.00     0.157 HD
ATOM     23 1H11 UNL     1      13.100 -20.286  -1.147  1.00  0.00     0.157 HD
ENDBRANCH  15  21
ENDBRANCH   1   2
BRANCH   1  24
HETATM   24  N3  UNL     1      17.439 -20.119  -8.519  1.00  0.00    -0.307 N 
HETATM   25  C4  UNL     1      17.741 -21.504  -8.432  1.00  0.00     0.322 C 
HETATM   26  O1  UNL     1      17.441 -22.145  -7.412  1.00  0.00    -0.247 OA
HETATM   27  N4  UNL     1      18.379 -22.151  -9.499  1.00  0.00    -0.314 N 
ATOM     28  H4  UNL     1      18.619 -21.612 -10.332  1.00  0.00     0.167 HD
ATOM     29  H3  UNL     1      17.691 -19.602  -9.362  1.00  0.00     0.170 HD
BRANCH  27  30
HETATM   30  C5  UNL     1      18.708 -23.562  -9.455  1.00  0.00     0.256 C 
HETATM   31  O2  UNL     1      17.860 -24.196 -10.387  1.00  0.00    -0.355 OA
HETATM   32  C6  UNL     1      18.416 -25.465 -10.544  1.00  0.00     0.182 C 
HETATM   33  C8  UNL     1      19.913 -25.275 -10.517  1.00  0.00     0.246 C 
HETATM   34  C9  UNL     1      20.065 -23.853 -10.008  1.00  0.00     0.200 C 
BRANCH  32  35
HETATM   35  C7  UNL     1      18.031 -26.104 -11.843  1.00  0.00     0.263 C 
BRANCH  35  36
HETATM   36  N5  UNL     1      16.708 -25.621 -12.198  1.00  0.00    -0.077 N 
ATOM     37  H53 UNL     1      16.218 -25.194 -11.411  1.00  0.00     0.274 HD
ATOM     38  H52 UNL     1      16.735 -24.799 -12.802  1.00  0.00     0.274 HD
ATOM     39  H51 UNL     1      16.195 -26.399 -12.610  1.00  0.00     0.274 HD
ENDBRANCH  35  36
ENDBRANCH  32  35
BRANCH  33  40
HETATM   40  N6  UNL     1      20.469 -26.232  -9.578  1.00  0.00    -0.070 N 
ATOM     41  H63 UNL     1      20.960 -25.786  -8.804  1.00  0.00     0.274 HD
ATOM     42  H62 UNL     1      19.754 -26.709  -9.030  1.00  0.00     0.274 HD
ATOM     43  H61 UNL     1      21.061 -26.879 -10.101  1.00  0.00     0.274 HD
ENDBRANCH  33  40
BRANCH  34  44
HETATM   44  O3  UNL     1      20.349 -22.996 -11.074  1.00  0.00    -0.389 OA
ATOM     45  H3  UNL     1      21.270 -23.046 -11.301  1.00  0.00     0.210 HD
ENDBRANCH  34  44
ENDBRANCH  27  30
ENDBRANCH   1  24
BRANCH   1  46
HETATM   46  C10 UNL     1      17.443 -18.171  -6.969  1.00  0.00     0.274 C 
BRANCH  46  47
HETATM   47  N7  UNL     1      17.899 -17.371  -8.096  1.00  0.00    -0.067 N 
ATOM     48  H73 UNL     1      17.130 -17.125  -8.721  1.00  0.00     0.275 HD
ATOM     49  H72 UNL     1      18.168 -16.430  -7.807  1.00  0.00     0.275 HD
ATOM     50  H71 UNL     1      18.653 -17.843  -8.594  1.00  0.00     0.275 HD
ENDBRANCH  46  47
BRANCH  46  51
HETATM   51  C11 UNL     1      18.708 -18.451  -6.164  1.00  0.00     0.243 C 
BRANCH  51  52
HETATM   52  O4  UNL     1      18.799 -19.756  -5.750  1.00  0.00    -0.384 OA
ATOM     53  H4  UNL     1      19.395 -20.272  -6.281  1.00  0.00     0.210 HD
ENDBRANCH  51  52
BRANCH  51  54
HETATM   54  C12 UNL     1      19.851 -18.076  -7.062  1.00  0.00     0.262 C 
HETATM   55  N8  UNL     1      20.340 -18.941  -8.074  1.00  0.00    -0.060 NA
HETATM   56  O5  UNL     1      20.413 -16.959  -6.932  1.00  0.00    -0.274 OA
ENDBRANCH  51  54
ENDBRANCH  46  51
ENDBRANCH   1  46
TORSDOF 13
ENDMDL
MODEL 2
REMARK VINA RESULT: -7.122792328      1.281      1.816
REMARK  13 active torsions:
REMARK  status: ('A' for Active; 'I' for Inactive)
REMARK    1  A    between atoms: C2_5  and  C3_6 
REMARK    2  A    between atoms: C3_6  and  N3_7 
REMARK    3  A    between atoms: C3_6  and  C10_29 
REMARK       I    between atoms: N3_7  and  C4_9 
REMARK       I    between atoms: C4_9  and  N4_11 
REMARK    4  A    between atoms: N4_11  and  C5_13 
REMARK    5  A    between atoms: C6_15  and  C7_16 
REMARK    6  A    between atoms: C7_16  and  N5_17 
REMARK    7  A    between atoms: C8_21  and  N6_22 
REMARK    8  A    between atoms: C9_26  and  O3_27 
REMARK    9  A    between atoms: C10_29  and  N7_30 
REMARK   10  A    between atoms: C10_29  and  C11_34 
REMARK   11  A    between atoms: C11_34  and  O4_35 
REMARK   12  A    between atoms: C11_34  and  C12_37 
REMARK   13  A    between atoms: C15_45  and  N11_46 
ROOT
HETATM    1  C3  UNL     1      16.528 -19.810  -7.003  1.00  0.00     0.093 C 
ENDROOT
BRANCH   1   2
HETATM    2  C2  UNL     1      15.078 -19.768  -7.105  1.00  0.00     0.155 A 
HETATM    3  N2  UNL     1      14.449 -19.537  -8.313  1.00  0.00    -0.279 N 
HETATM    4  N1  UNL     1      13.163 -19.499  -8.482  1.00  0.00    -0.257 N 
ATOM      5  H2  UNL     1      15.038 -19.385  -9.132  1.00  0.00     0.189 HD
HETATM    6  C1  UNL     1      12.615 -19.247  -9.797  1.00  0.00     0.181 C 
HETATM    7  C18 UNL     1      12.320 -19.688  -7.465  1.00  0.00     0.306 A 
HETATM    8  C13 UNL     1      12.892 -19.925  -6.233  1.00  0.00     0.187 A 
HETATM    9  O6  UNL     1      11.068 -19.660  -7.581  1.00  0.00    -0.262 OA
HETATM   10  N9  UNL     1      14.251 -19.961  -6.078  1.00  0.00    -0.259 N 
HETATM   11  N10 UNL     1      12.291 -20.161  -5.053  1.00  0.00    -0.331 N 
HETATM   12  C17 UNL     1      14.430 -20.227  -4.771  1.00  0.00     0.147 A 
HETATM   13  C14 UNL     1      13.217 -20.353  -4.124  1.00  0.00     0.123 A 
HETATM   14  N13 UNL     1      15.518 -20.387  -4.043  1.00  0.00    -0.336 N 
HETATM   15  C15 UNL     1      13.227 -20.634  -2.775  1.00  0.00     0.131 A 
HETATM   16  N12 UNL     1      14.389 -20.779  -2.117  1.00  0.00    -0.337 N 
HETATM   17  C16 UNL     1      15.569 -20.659  -2.740  1.00  0.00     0.183 A 
ATOM     18  H12 UNL     1      14.373 -20.987  -1.119  1.00  0.00     0.168 HD
ATOM     19  H13 UNL     1      16.412 -20.294  -4.527  1.00  0.00     0.168 HD
ATOM     20  H10 UNL     1      11.283 -20.188  -4.898  1.00  0.00     0.168 HD
BRANCH  15  21
HETATM   21  N11 UNL     1      12.094 -20.752  -2.162  1.00  0.00    -0.383 N 
ATOM     22 2H11 UNL     1      11.300 -21.210  -2.609  1.00  0.00     0.157 HD
ATOM     23 1H11 UNL     1      12.011 -20.377  -1.217  1.00  0.00     0.157 HD
ENDBRANCH  15  21
ENDBRANCH   1   2
BRANCH   1  24
HETATM   24  N3  UNL     1      17.214 -20.986  -7.441  1.00  0.00    -0.307 N 
HETATM   25  C4  UNL     1      17.096 -21.449  -8.779  1.00  0.00     0.322 C 
HETATM   26  O1  UNL     1      16.389 -20.833  -9.592  1.00  0.00    -0.247 OA
HETATM   27  N4  UNL     1      17.779 -22.604  -9.184  1.00  0.00    -0.314 N 
ATOM     28  H4  UNL     1      18.357 -23.100  -8.505  1.00  0.00     0.167 HD
ATOM     29  H3  UNL     1      17.797 -21.501  -6.781  1.00  0.00     0.170 HD
BRANCH  27  30
HETATM   30  C5  UNL     1      17.689 -23.114 -10.538  1.00  0.00     0.256 C 
HETATM   31  O2  UNL     1      18.775 -23.998 -10.703  1.00  0.00    -0.355 OA
HETATM   32  C6  UNL     1      18.474 -24.693 -11.873  1.00  0.00     0.182 C 
HETATM   33  C8  UNL     1      16.984 -24.929 -11.851  1.00  0.00     0.246 C 
HETATM   34  C9  UNL     1      16.512 -24.014 -10.735  1.00  0.00     0.200 C 
BRANCH  32  35
HETATM   35  C7  UNL     1      19.174 -26.015 -11.952  1.00  0.00     0.263 C 
BRANCH  35  36
HETATM   36  N5  UNL     1      18.389 -26.974 -11.195  1.00  0.00    -0.077 N 
ATOM     37  H53 UNL     1      18.958 -27.715 -10.784  1.00  0.00     0.274 HD
ATOM     38  H52 UNL     1      18.021 -26.589 -10.326  1.00  0.00     0.274 HD
ATOM     39  H51 UNL     1      17.658 -27.330 -11.811  1.00  0.00     0.274 HD
ENDBRANCH  35  36
ENDBRANCH  32  35
BRANCH  33  40
HETATM   40  N6  UNL     1      16.445 -24.516 -13.134  1.00  0.00    -0.070 N 
ATOM     41  H63 UNL     1      16.085 -23.561 -13.122  1.00  0.00     0.274 HD
ATOM     42  H62 UNL     1      17.168 -24.380 -13.840  1.00  0.00     0.274 HD
ATOM     43  H61 UNL     1      15.742 -25.199 -13.415  1.00  0.00     0.274 HD
ENDBRANCH  33  40
BRANCH  34  44
HETATM   44  O3  UNL     1      16.273 -24.760  -9.579  1.00  0.00    -0.389 OA
ATOM     45  H3  UNL     1      16.035 -25.652  -9.805  1.00  0.00     0.210 HD
ENDBRANCH  34  44
ENDBRANCH  27  30
ENDBRANCH   1  24
BRANCH   1  46
HETATM   46  C10 UNL     1      17.259 -18.511  -7.184  1.00  0.00     0.274 C 
BRANCH  46  47
HETATM   47  N7  UNL     1      18.413 -18.684  -8.054  1.00  0.00    -0.067 N 
ATOM     48  H73 UNL     1      19.059 -17.898  -7.986  1.00  0.00     0.275 HD
ATOM     49  H72 UNL     1      19.033 -19.422  -7.717  1.00  0.00     0.275 HD
ATOM     50  H71 UNL     1      18.120 -18.848  -9.017  1.00  0.00     0.275 HD
ENDBRANCH  46  47
BRANCH  46  51
HETATM   51  C11 UNL     1      17.844 -17.998  -5.873  1.00  0.00     0.243 C 
BRANCH  51  52
HETATM   52  O4  UNL     1      17.957 -18.978  -4.918  1.00  0.00    -0.384 OA
ATOM     53  H4  UNL     1      18.815 -19.386  -4.905  1.00  0.00     0.210 HD
ENDBRANCH  51  52
BRANCH  51  54
HETATM   54  C12 UNL     1      19.183 -17.417  -6.225  1.00  0.00     0.262 C 
HETATM   55  N8  UNL     1      20.398 -18.117  -6.013  1.00  0.00    -0.060 NA
HETATM   56  O5  UNL     1      19.257 -16.268  -6.731  1.00  0.00    -0.274 OA
ENDBRANCH  51  54
ENDBRANCH  46  51
ENDBRANCH   1  46
TORSDOF 13
ENDMDL
MODEL 3
REMARK VINA RESULT: -6.897652360      2.415      5.480
REMARK  13 active torsions:
REMARK  status: ('A' for Active; 'I' for Inactive)
REMARK    1  A    between atoms: C2_5  and  C3_6 
REMARK    2  A    between atoms: C3_6  and  N3_7 
REMARK    3  A    between atoms: C3_6  and  C10_29 
REMARK       I    between atoms: N3_7  and  C4_9 
REMARK       I    between atoms: C4_9  and  N4_11 
REMARK    4  A    between atoms: N4_11  and  C5_13 
REMARK    5  A    between atoms: C6_15  and  C7_16 
REMARK    6  A    between atoms: C7_16  and  N5_17 
REMARK    7  A    between atoms: C8_21  and  N6_22 
REMARK    8  A    between atoms: C9_26  and  O3_27 
REMARK    9  A    between atoms: C10_29  and  N7_30 
REMARK   10  A    between atoms: C10_29  and  C11_34 
REMARK   11  A    between atoms: C11_34  and  O4_35 
REMARK   12  A    between atoms: C11_34  and  C12_37 
REMARK   13  A    between atoms: C15_45  and  N11_46 
ROOT
HETATM    1  C3  UNL     1      15.243 -19.595  -5.271  1.00  0.00     0.093 C 
ENDROOT
BRANCH   1   2
HETATM    2  C2  UNL     1      15.652 -18.895  -4.065  1.00  0.00     0.155 A 
HETATM    3  N2  UNL     1      15.053 -19.151  -2.847  1.00  0.00    -0.279 N 
HETATM    4  N1  UNL     1      15.374 -18.575  -1.729  1.00  0.00    -0.257 N 
ATOM      5  H2  UNL     1      14.304 -19.842  -2.825  1.00  0.00     0.189 HD
HETATM    6  C1  UNL     1      14.675 -18.924  -0.512  1.00  0.00     0.181 C 
HETATM    7  C18 UNL     1      16.344 -17.660  -1.669  1.00  0.00     0.306 A 
HETATM    8  C13 UNL     1      16.979 -17.365  -2.856  1.00  0.00     0.187 A 
HETATM    9  O6  UNL     1      16.688 -17.077  -0.609  1.00  0.00    -0.262 OA
HETATM   10  N9  UNL     1      16.624 -17.984  -4.023  1.00  0.00    -0.259 N 
HETATM   11  N10 UNL     1      17.988 -16.504  -3.084  1.00  0.00    -0.331 N 
HETATM   12  C17 UNL     1      17.456 -17.462  -4.943  1.00  0.00     0.147 A 
HETATM   13  C14 UNL     1      18.308 -16.540  -4.369  1.00  0.00     0.123 A 
HETATM   14  N13 UNL     1      17.592 -17.680  -6.237  1.00  0.00    -0.336 N 
HETATM   15  C15 UNL     1      19.232 -15.916  -5.180  1.00  0.00     0.131 A 
HETATM   16  N12 UNL     1      19.294 -16.205  -6.491  1.00  0.00    -0.337 N 
HETATM   17  C16 UNL     1      18.470 -17.099  -7.053  1.00  0.00     0.183 A 
ATOM     18  H12 UNL     1      19.985 -15.731  -7.072  1.00  0.00     0.168 HD
ATOM     19  H13 UNL     1      16.960 -18.363  -6.656  1.00  0.00     0.168 HD
ATOM     20  H10 UNL     1      18.434 -15.917  -2.379  1.00  0.00     0.168 HD
BRANCH  15  21
HETATM   21  N11 UNL     1      20.033 -15.051  -4.649  1.00  0.00    -0.383 N 
ATOM     22 2H11 UNL     1      20.857 -15.348  -4.126  1.00  0.00     0.157 HD
ATOM     23 1H11 UNL     1      19.824 -14.059  -4.765  1.00  0.00     0.157 HD
ENDBRANCH  15  21
ENDBRANCH   1   2
BRANCH   1  24
HETATM   24  N3  UNL     1      15.938 -20.790  -5.641  1.00  0.00    -0.307 N 
HETATM   25  C4  UNL     1      16.574 -20.907  -6.906  1.00  0.00     0.322 C 
HETATM   26  O1  UNL     1      16.535 -19.965  -7.714  1.00  0.00    -0.247 OA
HETATM   27  N4  UNL     1      17.249 -22.087  -7.244  1.00  0.00    -0.314 N 
ATOM     28  H4  UNL     1      17.274 -22.854  -6.571  1.00  0.00     0.167 HD
ATOM     29  H3  UNL     1      15.976 -21.571  -4.986  1.00  0.00     0.170 HD
BRANCH  27  30
HETATM   30  C5  UNL     1      17.912 -22.253  -8.523  1.00  0.00     0.256 C 
HETATM   31  O2  UNL     1      19.183 -22.797  -8.244  1.00  0.00    -0.355 OA
HETATM   32  C6  UNL     1      19.648 -23.230  -9.484  1.00  0.00     0.182 C 
HETATM   33  C8  UNL     1      18.451 -23.797 -10.208  1.00  0.00     0.246 C 
HETATM   34  C9  UNL     1      17.285 -23.319  -9.362  1.00  0.00     0.200 C 
BRANCH  32  35
HETATM   35  C7  UNL     1      20.693 -24.296  -9.366  1.00  0.00     0.263 C 
BRANCH  35  36
HETATM   36  N5  UNL     1      20.019 -25.540  -9.037  1.00  0.00    -0.077 N 
ATOM     37  H53 UNL     1      20.135 -25.807  -8.059  1.00  0.00     0.274 HD
ATOM     38  H52 UNL     1      19.003 -25.451  -9.033  1.00  0.00     0.274 HD
ATOM     39  H51 UNL     1      20.351 -26.253  -9.686  1.00  0.00     0.274 HD
ENDBRANCH  35  36
ENDBRANCH  32  35
BRANCH  33  40
HETATM   40  N6  UNL     1      18.412 -23.212 -11.536  1.00  0.00    -0.070 N 
ATOM     41  H63 UNL     1      18.057 -22.256 -11.536  1.00  0.00     0.274 HD
ATOM     42  H62 UNL     1      19.342 -23.011 -11.907  1.00  0.00     0.274 HD
ATOM     43  H61 UNL     1      17.873 -23.834 -12.139  1.00  0.00     0.274 HD
ENDBRANCH  33  40
BRANCH  34  44
HETATM   44  O3  UNL     1      16.825 -24.363  -8.556  1.00  0.00    -0.389 OA
ATOM     45  H3  UNL     1      16.380 -25.015  -9.084  1.00  0.00     0.210 HD
ENDBRANCH  34  44
ENDBRANCH  27  30
ENDBRANCH   1  24
BRANCH   1  46
HETATM   46  C10 UNL     1      13.786 -19.539  -5.628  1.00  0.00     0.274 C 
BRANCH  46  47
HETATM   47  N7  UNL     1      13.341 -20.807  -6.188  1.00  0.00    -0.067 N 
ATOM     48  H73 UNL     1      13.738 -21.601  -5.686  1.00  0.00     0.275 HD
ATOM     49  H72 UNL     1      12.354 -20.980  -5.995  1.00  0.00     0.275 HD
ATOM     50  H71 UNL     1      13.544 -20.853  -7.187  1.00  0.00     0.275 HD
ENDBRANCH  46  47
BRANCH  46  51
HETATM   51  C11 UNL     1      13.506 -18.518  -6.727  1.00  0.00     0.243 C 
BRANCH  51  52
HETATM   52  O4  UNL     1      14.644 -17.905  -7.188  1.00  0.00    -0.384 OA
ATOM     53  H4  UNL     1      14.480 -17.322  -7.921  1.00  0.00     0.210 HD
ENDBRANCH  51  52
BRANCH  51  54
HETATM   54  C12 UNL     1      12.809 -19.278  -7.818  1.00  0.00     0.262 C 
HETATM   55  N8  UNL     1      11.464 -19.714  -7.702  1.00  0.00    -0.060 NA
HETATM   56  O5  UNL     1      13.417 -19.548  -8.885  1.00  0.00    -0.274 OA
ENDBRANCH  51  54
ENDBRANCH  46  51
ENDBRANCH   1  46
TORSDOF 13
ENDMDL
MODEL 4
REMARK VINA RESULT: -6.792558081      2.511      6.632
REMARK  13 active torsions:
REMARK  status: ('A' for Active; 'I' for Inactive)
REMARK    1  A    between atoms: C2_5  and  C3_6 
REMARK    2  A    between atoms: C3_6  and  N3_7 
REMARK    3  A    between atoms: C3_6  and  C10_29 
REMARK       I    between atoms: N3_7  and  C4_9 
REMARK       I    between atoms: C4_9  and  N4_11 
REMARK    4  A    between atoms: N4_11  and  C5_13 
REMARK    5  A    between atoms: C6_15  and  C7_16 
REMARK    6  A    between atoms: C7_16  and  N5_17 
REMARK    7  A    between atoms: C8_21  and  N6_22 
REMARK    8  A    between atoms: C9_26  and  O3_27 
REMARK    9  A    between atoms: C10_29  and  N7_30 
REMARK   10  A    between atoms: C10_29  and  C11_34 
REMARK   11  A    between atoms: C11_34  and  O4_35 
REMARK   12  A    between atoms: C11_34  and  C12_37 
REMARK   13  A    between atoms: C15_45  and  N11_46 
ROOT
HETATM    1  C3  UNL     1      19.063 -20.631  -7.028  1.00  0.00     0.093 C 
ENDROOT
BRANCH   1   2
HETATM    2  C2  UNL     1      18.344 -21.152  -8.179  1.00  0.00     0.155 A 
HETATM    3  N2  UNL     1      18.927 -22.060  -9.040  1.00  0.00    -0.279 N 
HETATM    4  N1  UNL     1      18.343 -22.577 -10.078  1.00  0.00    -0.257 N 
ATOM      5  H2  UNL     1      19.887 -22.346  -8.847  1.00  0.00     0.189 HD
HETATM    6  C1  UNL     1      19.054 -23.521 -10.911  1.00  0.00     0.181 C 
HETATM    7  C18 UNL     1      17.088 -22.258 -10.402  1.00  0.00     0.306 A 
HETATM    8  C13 UNL     1      16.454 -21.355  -9.576  1.00  0.00     0.187 A 
HETATM    9  O6  UNL     1      16.482 -22.732 -11.397  1.00  0.00    -0.262 OA
HETATM   10  N9  UNL     1      17.089 -20.823  -8.487  1.00  0.00    -0.259 N 
HETATM   11  N10 UNL     1      15.201 -20.872  -9.655  1.00  0.00    -0.331 N 
HETATM   12  C17 UNL     1      16.170 -20.015  -7.928  1.00  0.00     0.147 A 
HETATM   13  C14 UNL     1      14.992 -20.037  -8.646  1.00  0.00     0.123 A 
HETATM   14  N13 UNL     1      16.204 -19.247  -6.855  1.00  0.00    -0.336 N 
HETATM   15  C15 UNL     1      13.943 -19.264  -8.199  1.00  0.00     0.131 A 
HETATM   16  N12 UNL     1      14.073 -18.512  -7.092  1.00  0.00    -0.337 N 
HETATM   17  C16 UNL     1      15.214 -18.487  -6.391  1.00  0.00     0.183 A 
ATOM     18  H12 UNL     1      13.284 -17.948  -6.779  1.00  0.00     0.168 HD
ATOM     19  H13 UNL     1      17.077 -19.235  -6.328  1.00  0.00     0.168 HD
ATOM     20  H10 UNL     1      14.520 -21.110 -10.376  1.00  0.00     0.168 HD
BRANCH  15  21
HETATM   21  N11 UNL     1      12.836 -19.280  -8.868  1.00  0.00    -0.383 N 
ATOM     22 2H11 UNL     1      12.214 -18.471  -8.874  1.00  0.00     0.157 HD
ATOM     23 1H11 UNL     1      12.596 -20.121  -9.392  1.00  0.00     0.157 HD
ENDBRANCH  15  21
ENDBRANCH   1   2
BRANCH   1  24
HETATM   24  N3  UNL     1      18.992 -21.347  -5.792  1.00  0.00    -0.307 N 
HETATM   25  C4  UNL     1      18.546 -20.714  -4.601  1.00  0.00     0.322 C 
HETATM   26  O1  UNL     1      18.210 -19.519  -4.618  1.00  0.00    -0.247 OA
HETATM   27  N4  UNL     1      18.485 -21.437  -3.402  1.00  0.00    -0.314 N 
ATOM     28  H4  UNL     1      18.764 -22.419  -3.402  1.00  0.00     0.167 HD
ATOM     29  H3  UNL     1      19.266 -22.330  -5.765  1.00  0.00     0.170 HD
BRANCH  27  30
HETATM   30  C5  UNL     1      18.038 -20.833  -2.163  1.00  0.00     0.256 C 
HETATM   31  O2  UNL     1      16.689 -20.471  -2.361  1.00  0.00    -0.355 OA
HETATM   32  C6  UNL     1      16.218 -20.198  -1.078  1.00  0.00     0.182 C 
HETATM   33  C8  UNL     1      16.860 -21.217  -0.168  1.00  0.00     0.246 C 
HETATM   34  C9  UNL     1      17.944 -21.819  -1.044  1.00  0.00     0.200 C 
BRANCH  32  35
HETATM   35  C7  UNL     1      14.729 -20.325  -0.974  1.00  0.00     0.263 C 
BRANCH  35  36
HETATM   36  N5  UNL     1      14.329 -21.482  -1.755  1.00  0.00    -0.077 N 
ATOM     37  H53 UNL     1      13.536 -21.980  -1.349  1.00  0.00     0.274 HD
ATOM     38  H52 UNL     1      13.891 -21.231  -2.641  1.00  0.00     0.274 HD
ATOM     39  H51 UNL     1      15.151 -22.074  -1.874  1.00  0.00     0.274 HD
ENDBRANCH  35  36
ENDBRANCH  32  35
BRANCH  33  40
HETATM   40  N6  UNL     1      17.431 -20.509   0.964  1.00  0.00    -0.070 N 
ATOM     41  H63 UNL     1      18.374 -20.167   0.781  1.00  0.00     0.274 HD
ATOM     42  H62 UNL     1      16.987 -19.605   1.129  1.00  0.00     0.274 HD
ATOM     43  H61 UNL     1      17.385 -21.125   1.776  1.00  0.00     0.274 HD
ENDBRANCH  33  40
BRANCH  34  44
HETATM   44  O3  UNL     1      17.527 -23.062  -1.527  1.00  0.00    -0.389 OA
ATOM     45  H3  UNL     1      18.206 -23.451  -2.065  1.00  0.00     0.210 HD
ENDBRANCH  34  44
ENDBRANCH  27  30
ENDBRANCH   1  24
BRANCH   1  46
HETATM   46  C10 UNL     1      20.350 -19.908  -7.301  1.00  0.00     0.274 C 
BRANCH  46  47
HETATM   47  N7  UNL     1      21.169 -19.839  -6.100  1.00  0.00    -0.067 N 
ATOM     48  H73 UNL     1      22.044 -19.340  -6.268  1.00  0.00     0.275 HD
ATOM     49  H72 UNL     1      20.766 -19.212  -5.403  1.00  0.00     0.275 HD
ATOM     50  H71 UNL     1      21.334 -20.770  -5.720  1.00  0.00     0.275 HD
ENDBRANCH  46  47
BRANCH  46  51
HETATM   51  C11 UNL     1      20.116 -18.451  -7.687  1.00  0.00     0.243 C 
BRANCH  51  52
HETATM   52  O4  UNL     1      19.077 -17.876  -6.998  1.00  0.00    -0.384 OA
ATOM     53  H4  UNL     1      18.255 -18.338  -7.115  1.00  0.00     0.210 HD
ENDBRANCH  51  52
BRANCH  51  54
HETATM   54  C12 UNL     1      21.413 -17.747  -7.417  1.00  0.00     0.262 C 
HETATM   55  N8  UNL     1      22.614 -18.073  -8.099  1.00  0.00    -0.060 NA
HETATM   56  O5  UNL     1      21.464 -16.828  -6.560  1.00  0.00    -0.274 OA
ENDBRANCH  51  54
ENDBRANCH  46  51
ENDBRANCH   1  46
TORSDOF 13
ENDMDL
MODEL 5
REMARK VINA RESULT: -6.779779392      3.900      8.555
REMARK  13 active torsions:
REMARK  status: ('A' for Active; 'I' for Inactive)
REMARK    1  A    between atoms: C2_5  and  C3_6 
REMARK    2  A    between atoms: C3_6  and  N3_7 
REMARK    3  A    between atoms: C3_6  and  C10_29 
REMARK       I    between atoms: N3_7  and  C4_9 
REMARK       I    between atoms: C4_9  and  N4_11 
REMARK    4  A    between atoms: N4_11  and  C5_13 
REMARK    5  A    between atoms: C6_15  and  C7_16 
REMARK    6  A    between atoms: C7_16  and  N5_17 
REMARK    7  A    between atoms: C8_21  and  N6_22 
REMARK    8  A    between atoms: C9_26  and  O3_27 
REMARK    9  A    between atoms: C10_29  and  N7_30 
REMARK   10  A    between atoms: C10_29  and  C11_34 
REMARK   11  A    between atoms: C11_34  and  O4_35 
REMARK   12  A    between atoms: C11_34  and  C12_37 
REMARK   13  A    between atoms: C15_45  and  N11_46 
ROOT
HETATM    1  C3  UNL     1      16.065 -18.411  -4.625  1.00  0.00     0.093 C 
ENDROOT
BRANCH   1   2
HETATM    2  C2  UNL     1      15.892 -18.947  -5.965  1.00  0.00     0.155 A 
HETATM    3  N2  UNL     1      14.700 -18.807  -6.647  1.00  0.00    -0.279 N 
HETATM    4  N1  UNL     1      14.477 -19.247  -7.848  1.00  0.00    -0.257 N 
ATOM      5  H2  UNL     1      13.938 -18.322  -6.173  1.00  0.00     0.189 HD
HETATM    6  C1  UNL     1      13.185 -19.042  -8.463  1.00  0.00     0.181 C 
HETATM    7  C18 UNL     1      15.419 -19.892  -8.539  1.00  0.00     0.306 A 
HETATM    8  C13 UNL     1      16.633 -20.060  -7.908  1.00  0.00     0.187 A 
HETATM    9  O6  UNL     1      15.250 -20.336  -9.704  1.00  0.00    -0.262 OA
HETATM   10  N9  UNL     1      16.845 -19.588  -6.642  1.00  0.00    -0.259 N 
HETATM   11  N10 UNL     1      17.751 -20.652  -8.368  1.00  0.00    -0.331 N 
HETATM   12  C17 UNL     1      18.122 -19.918  -6.373  1.00  0.00     0.147 A 
HETATM   13  C14 UNL     1      18.694 -20.580  -7.439  1.00  0.00     0.123 A 
HETATM   14  N13 UNL     1      18.882 -19.716  -5.313  1.00  0.00    -0.336 N 
HETATM   15  C15 UNL     1      20.007 -20.983  -7.326  1.00  0.00     0.131 A 
HETATM   16  N12 UNL     1      20.703 -20.732  -6.203  1.00  0.00    -0.337 N 
HETATM   17  C16 UNL     1      20.152 -20.089  -5.165  1.00  0.00     0.183 A 
ATOM     18  H12 UNL     1      21.673 -21.039  -6.141  1.00  0.00     0.168 HD
ATOM     19  H13 UNL     1      18.454 -19.225  -4.528  1.00  0.00     0.168 HD
ATOM     20  H10 UNL     1      17.855 -21.087  -9.285  1.00  0.00     0.168 HD
BRANCH  15  21
HETATM   21  N11 UNL     1      20.550 -21.605  -8.321  1.00  0.00    -0.383 N 
ATOM     22 2H11 UNL     1      19.980 -21.986  -9.077  1.00  0.00     0.157 HD
ATOM     23 1H11 UNL     1      21.565 -21.709  -8.335  1.00  0.00     0.157 HD
ENDBRANCH  15  21
ENDBRANCH   1   2
BRANCH   1  24
HETATM   24  N3  UNL     1      16.637 -17.108  -4.475  1.00  0.00    -0.307 N 
HETATM   25  C4  UNL     1      17.837 -16.914  -3.740  1.00  0.00     0.322 C 
HETATM   26  O1  UNL     1      18.409 -17.881  -3.213  1.00  0.00    -0.247 OA
HETATM   27  N4  UNL     1      18.378 -15.628  -3.608  1.00  0.00    -0.314 N 
ATOM     28  H4  UNL     1      17.898 -14.842  -4.047  1.00  0.00     0.167 HD
ATOM     29  H3  UNL     1      16.175 -16.305  -4.903  1.00  0.00     0.170 HD
BRANCH  27  30
HETATM   30  C5  UNL     1      19.599 -15.381  -2.867  1.00  0.00     0.256 C 
HETATM   31  O2  UNL     1      20.135 -14.179  -3.373  1.00  0.00    -0.355 OA
HETATM   32  C6  UNL     1      21.106 -13.820  -2.440  1.00  0.00     0.182 C 
HETATM   33  C8  UNL     1      20.541 -14.174  -1.086  1.00  0.00     0.246 C 
HETATM   34  C9  UNL     1      19.343 -15.039  -1.434  1.00  0.00     0.200 C 
BRANCH  32  35
HETATM   35  C7  UNL     1      21.416 -12.354  -2.468  1.00  0.00     0.263 C 
BRANCH  35  36
HETATM   36  N5  UNL     1      20.205 -11.656  -2.861  1.00  0.00    -0.077 N 
ATOM     37  H53 UNL     1      20.370 -10.676  -3.093  1.00  0.00     0.274 HD
ATOM     38  H52 UNL     1      19.853 -11.952  -3.772  1.00  0.00     0.274 HD
ATOM     39  H51 UNL     1      19.521 -11.777  -2.114  1.00  0.00     0.274 HD
ENDBRANCH  35  36
ENDBRANCH  32  35
BRANCH  33  40
HETATM   40  N6  UNL     1      21.547 -14.933  -0.365  1.00  0.00    -0.070 N 
ATOM     41  H63 UNL     1      21.588 -14.693   0.625  1.00  0.00     0.274 HD
ATOM     42  H62 UNL     1      21.296 -15.916  -0.256  1.00  0.00     0.274 HD
ATOM     43  H61 UNL     1      22.440 -14.804  -0.840  1.00  0.00     0.274 HD
ENDBRANCH  33  40
BRANCH  34  44
HETATM   44  O3  UNL     1      18.169 -14.292  -1.317  1.00  0.00    -0.389 OA
ATOM     45  H3  UNL     1      17.426 -14.793  -1.635  1.00  0.00     0.210 HD
ENDBRANCH  34  44
ENDBRANCH  27  30
ENDBRANCH   1  24
BRANCH   1  46
HETATM   46  C10 UNL     1      15.045 -18.808  -3.597  1.00  0.00     0.274 C 
BRANCH  46  47
HETATM   47  N7  UNL     1      15.582 -18.661  -2.252  1.00  0.00    -0.067 N 
ATOM     48  H73 UNL     1      16.424 -19.221  -2.118  1.00  0.00     0.275 HD
ATOM     49  H72 UNL     1      15.988 -17.736  -2.107  1.00  0.00     0.275 HD
ATOM     50  H71 UNL     1      14.871 -18.875  -1.553  1.00  0.00     0.275 HD
ENDBRANCH  46  47
BRANCH  46  51
HETATM   51  C11 UNL     1      14.676 -20.284  -3.701  1.00  0.00     0.243 C 
BRANCH  51  52
HETATM   52  O4  UNL     1      15.246 -21.048  -2.712  1.00  0.00    -0.384 OA
ATOM     53  H4  UNL     1      14.764 -21.848  -2.538  1.00  0.00     0.210 HD
ENDBRANCH  51  52
BRANCH  51  54
HETATM   54  C12 UNL     1      13.177 -20.333  -3.639  1.00  0.00     0.262 C 
HETATM   55  N8  UNL     1      12.466 -20.400  -2.413  1.00  0.00    -0.060 NA
HETATM   56  O5  UNL     1      12.503 -20.314  -4.700  1.00  0.00    -0.274 OA
ENDBRANCH  51  54
ENDBRANCH  46  51
ENDBRANCH   1  46
TORSDOF 13
ENDMDL
