MODEL 1
REMARK VINA RESULT: -7.995074620      0.000      0.000
REMARK  8 active torsions:
REMARK  status: ('A' for Active; 'I' for Inactive)
REMARK       I    between atoms: C1_4  and  N3_6 
REMARK    1  A    between atoms: N3_6  and  C2_8 
REMARK    2  A    between atoms: C3_11  and  N5_12 
REMARK    3  A    between atoms: N5_12  and  C4_14 
REMARK    4  A    between atoms: C4_14  and  C5_15 
REMARK    5  A    between atoms: C5_15  and  N6_16 
REMARK    6  A    between atoms: N10_24  and  C8_26 
REMARK    7  A    between atoms: C8_26  and  C9_27 
REMARK    8  A    between atoms: C9_27  and  N11_28 
ROOT
HETATM    1  C2  UNL     1     -30.987 -54.290   6.564  1.00  0.00     0.713 A 
HETATM    2  N4  UNL     1     -32.131 -54.399   7.283  1.00  0.00    -0.021 N 
ATOM      3  H4  UNL     1     -33.003 -54.011   6.923  1.00  0.00     0.203 HD
HETATM    4  C3  UNL     1     -32.107 -55.011   8.454  1.00  0.00     0.707 A 
HETATM    5  N9  UNL     1     -30.928 -55.530   8.935  1.00  0.00    -0.022 N 
ATOM      6  H9  UNL     1     -30.932 -55.998   9.843  1.00  0.00     0.203 HD
HETATM    7  C7  UNL     1     -29.778 -55.445   8.261  1.00  0.00     0.707 A 
HETATM    8  N10 UNL     1     -28.670 -55.909   8.668  1.00  0.00    -0.223 N 
ATOM      9  H10 UNL     1     -27.883 -55.762   8.036  1.00  0.00     0.177 HD
HETATM   10  N13 UNL     1     -29.859 -54.801   7.054  1.00  0.00    -0.021 N 
ATOM     11  H13 UNL     1     -29.008 -54.708   6.499  1.00  0.00     0.203 HD
ENDROOT
BRANCH   8  12
HETATM   12  C8  UNL     1     -28.356 -56.600   9.868  1.00  0.00     0.168 C 
BRANCH  12  13
HETATM   13  C9  UNL     1     -28.150 -58.088   9.701  1.00  0.00     0.294 C 
BRANCH  13  14
HETATM   14  N11 UNL     1     -29.223 -58.924  10.029  1.00  0.00     0.117 N 
HETATM   15  C10 UNL     1     -30.225 -59.155   9.043  1.00  0.00     0.302 C 
HETATM   16  C11 UNL     1     -31.276 -59.922   9.846  1.00  0.00     0.264 C 
HETATM   17  N12 UNL     1     -30.799 -59.920  11.235  1.00  0.00    -0.047 N 
HETATM   18  C12 UNL     1     -29.971 -58.688  11.208  1.00  0.00     0.502 C 
ATOM     19 2H12 UNL     1     -31.519 -59.959  11.956  1.00  0.00     0.279 HD
ATOM     20 1H12 UNL     1     -30.328 -60.768  11.549  1.00  0.00     0.279 HD
ENDBRANCH  13  14
ENDBRANCH  12  13
ENDBRANCH   8  12
BRANCH   4  21
HETATM   21  N5  UNL     1     -33.129 -55.163   9.196  1.00  0.00    -0.224 N 
ATOM     22  H5  UNL     1     -33.453 -54.395   9.785  1.00  0.00     0.177 HD
BRANCH  21  23
HETATM   23  C4  UNL     1     -33.829 -56.427   9.199  1.00  0.00     0.157 C 
BRANCH  23  24
HETATM   24  C5  UNL     1     -35.258 -56.117   8.773  1.00  0.00     0.142 C 
BRANCH  24  25
HETATM   25  N6  UNL     1     -35.394 -56.633   7.431  1.00  0.00    -0.365 N 
HETATM   26  C6  UNL     1     -35.375 -55.826   6.440  1.00  0.00     0.197 C 
HETATM   27  N7  UNL     1     -35.222 -54.439   6.681  1.00  0.00    -0.067 NA
HETATM   28  N8  UNL     1     -35.509 -56.354   5.128  1.00  0.00    -0.067 NA
ATOM     29  H6  UNL     1     -35.504 -57.635   7.274  1.00  0.00     0.161 HD
ENDBRANCH  24  25
ENDBRANCH  23  24
ENDBRANCH  21  23
ENDBRANCH   4  21
BRANCH   1  30
HETATM   30  N3  UNL     1     -31.055 -53.696   5.441  1.00  0.00    -0.163 N 
HETATM   31  C1  UNL     1     -30.050 -53.794   4.453  1.00  0.00     0.200 C 
HETATM   32  N1  UNL     1     -29.892 -54.902   3.822  1.00  0.00    -0.373 N 
HETATM   33  N2  UNL     1     -29.223 -52.659   4.167  1.00  0.00    -0.063 NA
ATOM     34  H12 UNL     1     -29.166 -54.974   3.109  1.00  0.00     0.158 HD
ATOM     35  H11 UNL     1     -30.480 -55.710   4.027  1.00  0.00     0.158 HD
ATOM     36  H3  UNL     1     -31.874 -53.121   5.245  1.00  0.00     0.187 HD
ENDBRANCH   1  30
TORSDOF 8
ENDMDL
MODEL 2
REMARK VINA RESULT: -7.973976450      1.564      4.767
REMARK  8 active torsions:
REMARK  status: ('A' for Active; 'I' for Inactive)
REMARK       I    between atoms: C1_4  and  N3_6 
REMARK    1  A    between atoms: N3_6  and  C2_8 
REMARK    2  A    between atoms: C3_11  and  N5_12 
REMARK    3  A    between atoms: N5_12  and  C4_14 
REMARK    4  A    between atoms: C4_14  and  C5_15 
REMARK    5  A    between atoms: C5_15  and  N6_16 
REMARK    6  A    between atoms: N10_24  and  C8_26 
REMARK    7  A    between atoms: C8_26  and  C9_27 
REMARK    8  A    between atoms: C9_27  and  N11_28 
ROOT
HETATM    1  C2  UNL     1     -30.785 -54.172   6.650  1.00  0.00     0.713 A 
HETATM    2  N4  UNL     1     -29.608 -54.676   7.096  1.00  0.00    -0.021 N 
ATOM      3  H4  UNL     1     -28.750 -54.529   6.564  1.00  0.00     0.203 HD
HETATM    4  C3  UNL     1     -29.582 -55.360   8.228  1.00  0.00     0.707 A 
HETATM    5  N9  UNL     1     -30.741 -55.556   8.940  1.00  0.00    -0.022 N 
ATOM      6  H9  UNL     1     -30.698 -56.087   9.811  1.00  0.00     0.203 HD
HETATM    7  C7  UNL     1     -31.921 -55.078   8.537  1.00  0.00     0.707 A 
HETATM    8  N10 UNL     1     -33.013 -55.236   9.163  1.00  0.00    -0.223 N 
ATOM      9  H10 UNL     1     -33.828 -54.809   8.723  1.00  0.00     0.177 HD
HETATM   10  N13 UNL     1     -31.892 -54.378   7.359  1.00  0.00    -0.021 N 
ATOM     11  H13 UNL     1     -32.768 -53.992   7.006  1.00  0.00     0.203 HD
ENDROOT
BRANCH   8  12
HETATM   12  C8  UNL     1     -33.276 -55.916  10.382  1.00  0.00     0.168 C 
BRANCH  12  13
HETATM   13  C9  UNL     1     -33.283 -57.423  10.273  1.00  0.00     0.294 C 
BRANCH  13  14
HETATM   14  N11 UNL     1     -33.927 -57.981   9.162  1.00  0.00     0.117 N 
HETATM   15  C10 UNL     1     -35.347 -58.094   9.192  1.00  0.00     0.302 C 
HETATM   16  C11 UNL     1     -35.616 -58.910   7.927  1.00  0.00     0.264 C 
HETATM   17  N12 UNL     1     -34.296 -59.276   7.397  1.00  0.00    -0.047 N 
HETATM   18  C12 UNL     1     -33.508 -59.234   8.654  1.00  0.00     0.502 C 
ATOM     19 2H12 UNL     1     -34.252 -60.148   6.870  1.00  0.00     0.279 HD
ATOM     20 1H12 UNL     1     -33.946 -58.702   6.630  1.00  0.00     0.279 HD
ENDBRANCH  13  14
ENDBRANCH  12  13
ENDBRANCH   8  12
BRANCH   4  21
HETATM   21  N5  UNL     1     -28.527 -55.867   8.725  1.00  0.00    -0.224 N 
ATOM     22  H5  UNL     1     -27.715 -56.044   8.133  1.00  0.00     0.177 HD
BRANCH  21  23
HETATM   23  C4  UNL     1     -28.484 -56.190  10.133  1.00  0.00     0.157 C 
BRANCH  23  24
HETATM   24  C5  UNL     1     -27.880 -57.585  10.226  1.00  0.00     0.142 C 
BRANCH  24  25
HETATM   25  N6  UNL     1     -28.797 -58.364  11.025  1.00  0.00    -0.365 N 
HETATM   26  C6  UNL     1     -29.774 -58.964  10.459  1.00  0.00     0.197 C 
HETATM   27  N7  UNL     1     -29.935 -58.852   9.057  1.00  0.00    -0.067 NA
HETATM   28  N8  UNL     1     -30.663 -59.726  11.262  1.00  0.00    -0.067 NA
ATOM     29  H6  UNL     1     -28.667 -58.434  12.034  1.00  0.00     0.161 HD
ENDBRANCH  24  25
ENDBRANCH  23  24
ENDBRANCH  21  23
ENDBRANCH   4  21
BRANCH   1  30
HETATM   30  N3  UNL     1     -30.765 -53.519   5.558  1.00  0.00    -0.163 N 
HETATM   31  C1  UNL     1     -29.885 -53.819   4.495  1.00  0.00     0.200 C 
HETATM   32  N1  UNL     1     -30.062 -54.893   3.813  1.00  0.00    -0.373 N 
HETATM   33  N2  UNL     1     -28.809 -52.922   4.190  1.00  0.00    -0.063 NA
ATOM     34  H12 UNL     1     -29.427 -55.110   3.045  1.00  0.00     0.158 HD
ATOM     35  H11 UNL     1     -30.828 -55.531   4.030  1.00  0.00     0.158 HD
ATOM     36  H3  UNL     1     -31.415 -52.742   5.446  1.00  0.00     0.187 HD
ENDBRANCH   1  30
TORSDOF 8
ENDMDL
MODEL 3
REMARK VINA RESULT: -7.918913813      1.532      1.834
REMARK  8 active torsions:
REMARK  status: ('A' for Active; 'I' for Inactive)
REMARK       I    between atoms: C1_4  and  N3_6 
REMARK    1  A    between atoms: N3_6  and  C2_8 
REMARK    2  A    between atoms: C3_11  and  N5_12 
REMARK    3  A    between atoms: N5_12  and  C4_14 
REMARK    4  A    between atoms: C4_14  and  C5_15 
REMARK    5  A    between atoms: C5_15  and  N6_16 
REMARK    6  A    between atoms: N10_24  and  C8_26 
REMARK    7  A    between atoms: C8_26  and  C9_27 
REMARK    8  A    between atoms: C9_27  and  N11_28 
ROOT
HETATM    1  C2  UNL     1     -30.791 -54.149   6.330  1.00  0.00     0.713 A 
HETATM    2  N4  UNL     1     -32.016 -54.348   6.874  1.00  0.00    -0.021 N 
ATOM      3  H4  UNL     1     -32.856 -54.060   6.372  1.00  0.00     0.203 HD
HETATM    4  C3  UNL     1     -32.114 -54.918   8.063  1.00  0.00     0.707 A 
HETATM    5  N9  UNL     1     -30.979 -55.303   8.737  1.00  0.00    -0.022 N 
ATOM      6  H9  UNL     1     -31.078 -55.740   9.654  1.00  0.00     0.203 HD
HETATM    7  C7  UNL     1     -29.753 -55.126   8.238  1.00  0.00     0.707 A 
HETATM    8  N10 UNL     1     -28.682 -55.466   8.826  1.00  0.00    -0.223 N 
ATOM      9  H10 UNL     1     -27.825 -55.262   8.311  1.00  0.00     0.177 HD
HETATM   10  N13 UNL     1     -29.709 -54.531   7.004  1.00  0.00    -0.021 N 
ATOM     11  H13 UNL     1     -28.796 -54.372   6.579  1.00  0.00     0.203 HD
ENDROOT
BRANCH   8  12
HETATM   12  C8  UNL     1     -28.491 -56.086  10.089  1.00  0.00     0.168 C 
BRANCH  12  13
HETATM   13  C9  UNL     1     -28.125 -57.551  10.023  1.00  0.00     0.294 C 
BRANCH  13  14
HETATM   14  N11 UNL     1     -29.120 -58.474  10.363  1.00  0.00     0.117 N 
HETATM   15  C10 UNL     1     -29.562 -59.389   9.363  1.00  0.00     0.302 C 
HETATM   16  C11 UNL     1     -30.749 -60.055  10.059  1.00  0.00     0.264 C 
HETATM   17  N12 UNL     1     -30.922 -59.339  11.330  1.00  0.00    -0.047 N 
HETATM   18  C12 UNL     1     -30.326 -58.032  10.958  1.00  0.00     0.502 C 
ATOM     19 2H12 UNL     1     -31.871 -59.309  11.702  1.00  0.00     0.279 HD
ATOM     20 1H12 UNL     1     -30.529 -59.791  12.156  1.00  0.00     0.279 HD
ENDBRANCH  13  14
ENDBRANCH  12  13
ENDBRANCH   8  12
BRANCH   4  21
HETATM   21  N5  UNL     1     -33.219 -55.146   8.651  1.00  0.00    -0.224 N 
ATOM     22  H5  UNL     1     -34.100 -55.010   8.156  1.00  0.00     0.177 HD
BRANCH  21  23
HETATM   23  C4  UNL     1     -33.218 -55.600  10.023  1.00  0.00     0.157 C 
BRANCH  23  24
HETATM   24  C5  UNL     1     -34.152 -56.802  10.069  1.00  0.00     0.142 C 
BRANCH  24  25
HETATM   25  N6  UNL     1     -33.574 -57.790   9.189  1.00  0.00    -0.365 N 
HETATM   26  C6  UNL     1     -34.267 -58.804   8.838  1.00  0.00     0.197 C 
HETATM   27  N7  UNL     1     -35.591 -58.938   9.321  1.00  0.00    -0.067 NA
HETATM   28  N8  UNL     1     -33.681 -59.764   7.970  1.00  0.00    -0.067 NA
ATOM     29  H6  UNL     1     -32.618 -57.679   8.850  1.00  0.00     0.161 HD
ENDBRANCH  24  25
ENDBRANCH  23  24
ENDBRANCH  21  23
ENDBRANCH   4  21
BRANCH   1  30
HETATM   30  N3  UNL     1     -30.742 -53.600   5.183  1.00  0.00    -0.163 N 
HETATM   31  C1  UNL     1     -29.668 -53.782   4.285  1.00  0.00     0.200 C 
HETATM   32  N1  UNL     1     -29.511 -54.921   3.711  1.00  0.00    -0.373 N 
HETATM   33  N2  UNL     1     -28.769 -52.697   4.023  1.00  0.00    -0.063 NA
ATOM     34  H12 UNL     1     -28.735 -55.053   3.063  1.00  0.00     0.158 HD
ATOM     35  H11 UNL     1     -30.150 -55.694   3.898  1.00  0.00     0.158 HD
ATOM     36  H3  UNL     1     -31.516 -52.999   4.899  1.00  0.00     0.187 HD
ENDBRANCH   1  30
TORSDOF 8
ENDMDL
MODEL 4
REMARK VINA RESULT: -7.916820275      1.181      1.746
REMARK  8 active torsions:
REMARK  status: ('A' for Active; 'I' for Inactive)
REMARK       I    between atoms: C1_4  and  N3_6 
REMARK    1  A    between atoms: N3_6  and  C2_8 
REMARK    2  A    between atoms: C3_11  and  N5_12 
REMARK    3  A    between atoms: N5_12  and  C4_14 
REMARK    4  A    between atoms: C4_14  and  C5_15 
REMARK    5  A    between atoms: C5_15  and  N6_16 
REMARK    6  A    between atoms: N10_24  and  C8_26 
REMARK    7  A    between atoms: C8_26  and  C9_27 
REMARK    8  A    between atoms: C9_27  and  N11_28 
ROOT
HETATM    1  C2  UNL     1     -30.897 -54.167   6.439  1.00  0.00     0.713 A 
HETATM    2  N4  UNL     1     -32.112 -54.345   7.013  1.00  0.00    -0.021 N 
ATOM      3  H4  UNL     1     -32.958 -54.040   6.532  1.00  0.00     0.203 HD
HETATM    4  C3  UNL     1     -32.191 -54.918   8.202  1.00  0.00     0.707 A 
HETATM    5  N9  UNL     1     -31.047 -55.326   8.847  1.00  0.00    -0.022 N 
ATOM      6  H9  UNL     1     -31.132 -55.765   9.765  1.00  0.00     0.203 HD
HETATM    7  C7  UNL     1     -29.831 -55.170   8.319  1.00  0.00     0.707 A 
HETATM    8  N10 UNL     1     -28.752 -55.532   8.879  1.00  0.00    -0.223 N 
ATOM      9  H10 UNL     1     -27.904 -55.343   8.344  1.00  0.00     0.177 HD
HETATM   10  N13 UNL     1     -29.806 -54.572   7.086  1.00  0.00    -0.021 N 
ATOM     11  H13 UNL     1     -28.900 -54.428   6.639  1.00  0.00     0.203 HD
ENDROOT
BRANCH   8  12
HETATM   12  C8  UNL     1     -28.542 -56.160  10.135  1.00  0.00     0.168 C 
BRANCH  12  13
HETATM   13  C9  UNL     1     -28.340 -57.656  10.065  1.00  0.00     0.294 C 
BRANCH  13  14
HETATM   14  N11 UNL     1     -29.482 -58.460  10.153  1.00  0.00     0.117 N 
HETATM   15  C10 UNL     1     -29.750 -59.119  11.387  1.00  0.00     0.302 C 
HETATM   16  C11 UNL     1     -30.926 -60.019  11.006  1.00  0.00     0.264 C 
HETATM   17  N12 UNL     1     -31.101 -59.858   9.557  1.00  0.00    -0.047 N 
HETATM   18  C12 UNL     1     -29.718 -59.466   9.186  1.00  0.00     0.502 C 
ATOM     19 2H12 UNL     1     -31.487 -60.661   9.060  1.00  0.00     0.279 HD
ATOM     20 1H12 UNL     1     -31.840 -59.221   9.263  1.00  0.00     0.279 HD
ENDBRANCH  13  14
ENDBRANCH  12  13
ENDBRANCH   8  12
BRANCH   4  21
HETATM   21  N5  UNL     1     -33.285 -55.128   8.817  1.00  0.00    -0.224 N 
ATOM     22  H5  UNL     1     -33.285 -55.285   9.825  1.00  0.00     0.177 HD
BRANCH  21  23
HETATM   23  C4  UNL     1     -34.528 -55.141   8.079  1.00  0.00     0.157 C 
BRANCH  23  24
HETATM   24  C5  UNL     1     -35.311 -56.340   8.596  1.00  0.00     0.142 C 
BRANCH  24  25
HETATM   25  N6  UNL     1     -34.891 -57.466   7.795  1.00  0.00    -0.365 N 
HETATM   26  C6  UNL     1     -34.091 -58.330   8.292  1.00  0.00     0.197 C 
HETATM   27  N7  UNL     1     -33.632 -58.163   9.621  1.00  0.00    -0.067 NA
HETATM   28  N8  UNL     1     -33.691 -59.431   7.489  1.00  0.00    -0.067 NA
ATOM     29  H6  UNL     1     -35.230 -57.571   6.840  1.00  0.00     0.161 HD
ENDBRANCH  24  25
ENDBRANCH  23  24
ENDBRANCH  21  23
ENDBRANCH   4  21
BRANCH   1  30
HETATM   30  N3  UNL     1     -30.866 -53.615   5.294  1.00  0.00    -0.163 N 
HETATM   31  C1  UNL     1     -29.801 -53.788   4.382  1.00  0.00     0.200 C 
HETATM   32  N1  UNL     1     -29.644 -54.924   3.804  1.00  0.00    -0.373 N 
HETATM   33  N2  UNL     1     -28.914 -52.695   4.112  1.00  0.00    -0.063 NA
ATOM     34  H12 UNL     1     -28.875 -55.049   3.145  1.00  0.00     0.158 HD
ATOM     35  H11 UNL     1     -30.275 -55.702   3.996  1.00  0.00     0.158 HD
ATOM     36  H3  UNL     1     -31.647 -53.019   5.021  1.00  0.00     0.187 HD
ENDBRANCH   1  30
TORSDOF 8
ENDMDL
MODEL 5
REMARK VINA RESULT: -7.876710841      1.398      2.031
REMARK  8 active torsions:
REMARK  status: ('A' for Active; 'I' for Inactive)
REMARK       I    between atoms: C1_4  and  N3_6 
REMARK    1  A    between atoms: N3_6  and  C2_8 
REMARK    2  A    between atoms: C3_11  and  N5_12 
REMARK    3  A    between atoms: N5_12  and  C4_14 
REMARK    4  A    between atoms: C4_14  and  C5_15 
REMARK    5  A    between atoms: C5_15  and  N6_16 
REMARK    6  A    between atoms: N10_24  and  C8_26 
REMARK    7  A    between atoms: C8_26  and  C9_27 
REMARK    8  A    between atoms: C9_27  and  N11_28 
ROOT
HETATM    1  C2  UNL     1     -30.897 -54.200   6.476  1.00  0.00     0.713 A 
HETATM    2  N4  UNL     1     -32.093 -54.321   7.102  1.00  0.00    -0.021 N 
ATOM      3  H4  UNL     1     -32.947 -53.996   6.648  1.00  0.00     0.203 HD
HETATM    4  C3  UNL     1     -32.144 -54.863   8.307  1.00  0.00     0.707 A 
HETATM    5  N9  UNL     1     -30.990 -55.299   8.915  1.00  0.00    -0.022 N 
ATOM      6  H9  UNL     1     -31.053 -55.713   9.845  1.00  0.00     0.203 HD
HETATM    7  C7  UNL     1     -29.792 -55.199   8.335  1.00  0.00     0.707 A 
HETATM    8  N10 UNL     1     -28.704 -55.587   8.860  1.00  0.00    -0.223 N 
ATOM      9  H10 UNL     1     -27.873 -55.440   8.287  1.00  0.00     0.177 HD
HETATM   10  N13 UNL     1     -29.795 -54.629   7.088  1.00  0.00    -0.021 N 
ATOM     11  H13 UNL     1     -28.905 -54.529   6.601  1.00  0.00     0.203 HD
ENDROOT
BRANCH   8  12
HETATM   12  C8  UNL     1     -28.466 -56.194  10.121  1.00  0.00     0.168 C 
BRANCH  12  13
HETATM   13  C9  UNL     1     -28.411 -57.704  10.093  1.00  0.00     0.294 C 
BRANCH  13  14
HETATM   14  N11 UNL     1     -29.626 -58.390  10.189  1.00  0.00     0.117 N 
HETATM   15  C10 UNL     1     -29.813 -59.283  11.284  1.00  0.00     0.302 C 
HETATM   16  C11 UNL     1     -31.136 -59.952  10.913  1.00  0.00     0.264 C 
HETATM   17  N12 UNL     1     -31.479 -59.449   9.576  1.00  0.00    -0.047 N 
HETATM   18  C12 UNL     1     -30.118 -59.122   9.082  1.00  0.00     0.502 C 
ATOM     19 2H12 UNL     1     -32.030 -60.076   8.990  1.00  0.00     0.279 HD
ATOM     20 1H12 UNL     1     -32.161 -58.692   9.544  1.00  0.00     0.279 HD
ENDBRANCH  13  14
ENDBRANCH  12  13
ENDBRANCH   8  12
BRANCH   4  21
HETATM   21  N5  UNL     1     -33.219 -55.020   8.969  1.00  0.00    -0.224 N 
ATOM     22  H5  UNL     1     -33.835 -54.225   9.140  1.00  0.00     0.177 HD
BRANCH  21  23
HETATM   23  C4  UNL     1     -33.562 -56.328   9.476  1.00  0.00     0.157 C 
BRANCH  23  24
HETATM   24  C5  UNL     1     -34.281 -57.045   8.341  1.00  0.00     0.142 C 
BRANCH  24  25
HETATM   25  N6  UNL     1     -35.293 -57.866   8.963  1.00  0.00    -0.365 N 
HETATM   26  C6  UNL     1     -35.208 -59.138   8.885  1.00  0.00     0.197 C 
HETATM   27  N7  UNL     1     -34.121 -59.717   8.186  1.00  0.00    -0.067 NA
HETATM   28  N8  UNL     1     -36.212 -59.928   9.506  1.00  0.00    -0.067 NA
ATOM     29  H6  UNL     1     -36.069 -57.433   9.463  1.00  0.00     0.161 HD
ENDBRANCH  24  25
ENDBRANCH  23  24
ENDBRANCH  21  23
ENDBRANCH   4  21
BRANCH   1  30
HETATM   30  N3  UNL     1     -30.893 -53.675   5.317  1.00  0.00    -0.163 N 
HETATM   31  C1  UNL     1     -29.820 -53.815   4.409  1.00  0.00     0.200 C 
HETATM   32  N1  UNL     1     -29.605 -54.956   3.859  1.00  0.00    -0.373 N 
HETATM   33  N2  UNL     1     -28.989 -52.686   4.113  1.00  0.00    -0.063 NA
ATOM     34  H12 UNL     1     -28.830 -55.058   3.203  1.00  0.00     0.158 HD
ATOM     35  H11 UNL     1     -30.196 -55.760   4.071  1.00  0.00     0.158 HD
ATOM     36  H3  UNL     1     -31.703 -53.126   5.030  1.00  0.00     0.187 HD
ENDBRANCH   1  30
TORSDOF 8
ENDMDL
