MODEL 1
REMARK VINA RESULT: -9.075115860      0.000      0.000
REMARK  8 active torsions:
REMARK  status: ('A' for Active; 'I' for Inactive)
REMARK    1  A    between atoms: C4_11  and  N4_12 
REMARK    2  A    between atoms: N4_12  and  C5_14 
REMARK    3  A    between atoms: C5_14  and  C6_15 
REMARK    4  A    between atoms: C6_15  and  N5_16 
REMARK    5  A    between atoms: N8_20  and  C7_21 
REMARK    6  A    between atoms: C7_21  and  C8_22 
REMARK    7  A    between atoms: C13_31  and  N10_32 
REMARK    8  A    between atoms: C17_36  and  O3_37 
ROOT
HETATM    1  N1  UNL     1      20.791   8.223   2.455  1.00  0.00    -0.234 N 
ATOM      2  H11 UNL     1      20.658   8.988   1.793  1.00  0.00     0.174 HD
ATOM      3  H12 UNL     1      21.601   7.684   2.149  1.00  0.00     0.174 HD
HETATM    4  C1  UNL     1      20.025   8.061   3.453  1.00  0.00     0.698 A 
HETATM    5  N2  UNL     1      20.206   7.020   4.354  1.00  0.00    -0.198 N 
ATOM      6  H2  UNL     1      20.945   6.319   4.295  1.00  0.00     0.183 HD
HETATM    7  C2  UNL     1      19.283   7.068   5.297  1.00  0.00     0.157 A 
HETATM    8  C3  UNL     1      18.507   8.161   4.987  1.00  0.00     0.178 A 
HETATM    9  N3  UNL     1      17.420   8.691   5.602  1.00  0.00    -0.173 N 
ATOM     10  H3  UNL     1      17.079   8.235   6.449  1.00  0.00     0.186 HD
HETATM   11  C4  UNL     1      16.768   9.775   5.164  1.00  0.00     0.694 A 
HETATM   12  N9  UNL     1      17.246  10.340   4.054  1.00  0.00    -0.021 N 
ATOM     13  H9  UNL     1      16.777  11.169   3.688  1.00  0.00     0.203 HD
HETATM   14  C13 UNL     1      18.340   9.856   3.384  1.00  0.00     0.717 A 
HETATM   15  N11 UNL     1      18.962   8.770   3.856  1.00  0.00     0.040 N 
ENDROOT
BRANCH  11  16
HETATM   16  N4  UNL     1      15.730  10.261   5.773  1.00  0.00    -0.224 N 
ATOM     17  H4  UNL     1      15.795  10.359   6.786  1.00  0.00     0.177 HD
BRANCH  16  18
HETATM   18  C5  UNL     1      14.509  10.670   5.164  1.00  0.00     0.160 C 
BRANCH  18  19
HETATM   19  C6  UNL     1      13.725   9.527   4.549  1.00  0.00     0.175 C 
BRANCH  19  20
HETATM   20  N5  UNL     1      13.594   9.774   3.125  1.00  0.00    -0.227 N 
HETATM   21  N6  UNL     1      12.748  10.544   2.498  1.00  0.00    -0.220 N 
HETATM   22  N7  UNL     1      12.978  10.479   1.179  1.00  0.00     0.000 NA
ATOM     23  H6  UNL     1      12.024  11.107   2.943  1.00  0.00     0.206 HD
HETATM   24  N8  UNL     1      13.988   9.654   0.959  1.00  0.00    -0.221 N 
HETATM   25  C12 UNL     1      14.379   9.210   2.168  1.00  0.00     0.357 A 
HETATM   26  O2  UNL     1      15.323   8.396   2.420  1.00  0.00    -0.244 OA
BRANCH  24  27
HETATM   27  C7  UNL     1      14.566   9.295  -0.317  1.00  0.00     0.183 C 
BRANCH  27  28
HETATM   28  C8  UNL     1      14.396  10.455  -1.295  1.00  0.00     0.141 C 
HETATM   29  C9  UNL     1      15.656  10.743  -2.031  1.00  0.00     0.036 C 
HETATM   30  C10 UNL     1      15.223  10.801  -3.484  1.00  0.00     0.029 C 
HETATM   31  C11 UNL     1      13.924  10.034  -3.439  1.00  0.00     0.168 C 
HETATM   32  O1  UNL     1      13.381  10.246  -2.183  1.00  0.00    -0.384 OA
ENDBRANCH  27  28
ENDBRANCH  24  27
ENDBRANCH  19  20
ENDBRANCH  18  19
ENDBRANCH  16  18
ENDBRANCH  11  16
BRANCH  14  33
HETATM   33  N10 UNL     1      18.761  10.527   2.225  1.00  0.00    -0.215 N 
HETATM   34  C14 UNL     1      18.326  10.198   0.878  1.00  0.00     0.146 C 
HETATM   35  C15 UNL     1      19.324  10.856  -0.049  1.00  0.00     0.015 A 
HETATM   36  C16 UNL     1      18.835  12.033  -0.823  1.00  0.00     0.039 A 
HETATM   37  C18 UNL     1      20.175  11.757   0.784  1.00  0.00     0.039 A 
HETATM   38  C17 UNL     1      19.618  12.968   0.068  1.00  0.00     0.124 A 
HETATM   39  C19 UNL     1      19.734  11.610   2.213  1.00  0.00     0.148 C 
BRANCH  38  40
HETATM   40  O3  UNL     1      18.850  13.815   0.829  1.00  0.00    -0.395 OA
ATOM     41  H3  UNL     1      19.316  14.562   1.186  1.00  0.00     0.210 HD
ENDBRANCH  38  40
ENDBRANCH  14  33
TORSDOF 8
ENDMDL
MODEL 2
REMARK VINA RESULT: -9.017664058      3.146      6.842
REMARK  8 active torsions:
REMARK  status: ('A' for Active; 'I' for Inactive)
REMARK    1  A    between atoms: C4_11  and  N4_12 
REMARK    2  A    between atoms: N4_12  and  C5_14 
REMARK    3  A    between atoms: C5_14  and  C6_15 
REMARK    4  A    between atoms: C6_15  and  N5_16 
REMARK    5  A    between atoms: N8_20  and  C7_21 
REMARK    6  A    between atoms: C7_21  and  C8_22 
REMARK    7  A    between atoms: C13_31  and  N10_32 
REMARK    8  A    between atoms: C17_36  and  O3_37 
ROOT
HETATM    1  N1  UNL     1      18.165  11.043  -2.361  1.00  0.00    -0.234 N 
ATOM      2  H11 UNL     1      18.824  11.121  -1.586  1.00  0.00     0.174 HD
ATOM      3  H12 UNL     1      18.698  11.095  -3.229  1.00  0.00     0.174 HD
HETATM    4  C1  UNL     1      16.919  10.906  -2.168  1.00  0.00     0.698 A 
HETATM    5  N2  UNL     1      16.022  10.799  -3.223  1.00  0.00    -0.198 N 
ATOM      6  H2  UNL     1      16.277  10.820  -4.211  1.00  0.00     0.183 HD
HETATM    7  C2  UNL     1      14.791  10.668  -2.764  1.00  0.00     0.157 A 
HETATM    8  C3  UNL     1      14.914  10.690  -1.393  1.00  0.00     0.178 A 
HETATM    9  N3  UNL     1      13.985  10.594  -0.409  1.00  0.00    -0.173 N 
ATOM     10  H3  UNL     1      13.008  10.484  -0.682  1.00  0.00     0.186 HD
HETATM   11  C4  UNL     1      14.273  10.635   0.898  1.00  0.00     0.694 A 
HETATM   12  N9  UNL     1      15.562  10.779   1.211  1.00  0.00    -0.021 N 
ATOM     13  H9  UNL     1      15.823  10.814   2.197  1.00  0.00     0.203 HD
HETATM   14  C13 UNL     1      16.551  10.881   0.267  1.00  0.00     0.717 A 
HETATM   15  N11 UNL     1      16.219  10.836  -1.028  1.00  0.00     0.040 N 
ENDROOT
BRANCH  11  16
HETATM   16  N4  UNL     1      13.363  10.540   1.818  1.00  0.00    -0.224 N 
ATOM     17  H4  UNL     1      12.714  11.322   1.906  1.00  0.00     0.177 HD
BRANCH  16  18
HETATM   18  C5  UNL     1      13.183   9.451   2.717  1.00  0.00     0.160 C 
BRANCH  18  19
HETATM   19  C6  UNL     1      14.421   9.122   3.529  1.00  0.00     0.175 C 
BRANCH  19  20
HETATM   20  N5  UNL     1      14.131   9.369   4.930  1.00  0.00    -0.227 N 
HETATM   21  N6  UNL     1      13.409   8.666   5.756  1.00  0.00    -0.220 N 
HETATM   22  N7  UNL     1      13.404   9.257   6.960  1.00  0.00     0.000 NA
ATOM     23  H6  UNL     1      12.923   7.800   5.524  1.00  0.00     0.206 HD
HETATM   24  N8  UNL     1      14.136  10.357   6.900  1.00  0.00    -0.221 N 
HETATM   25  C12 UNL     1      14.594  10.435   5.638  1.00  0.00     0.357 A 
HETATM   26  O2  UNL     1      15.340  11.339   5.144  1.00  0.00    -0.244 OA
BRANCH  24  27
HETATM   27  C7  UNL     1      14.400  11.293   7.970  1.00  0.00     0.183 C 
BRANCH  27  28
HETATM   28  C8  UNL     1      13.372  11.097   9.082  1.00  0.00     0.141 C 
HETATM   29  C9  UNL     1      14.014  11.047  10.422  1.00  0.00     0.036 C 
HETATM   30  C10 UNL     1      13.203  12.026  11.250  1.00  0.00     0.029 C 
HETATM   31  C11 UNL     1      12.571  12.875  10.175  1.00  0.00     0.168 C 
HETATM   32  O1  UNL     1      12.401  12.055   9.071  1.00  0.00    -0.384 OA
ENDBRANCH  27  28
ENDBRANCH  24  27
ENDBRANCH  19  20
ENDBRANCH  18  19
ENDBRANCH  16  18
ENDBRANCH  11  16
BRANCH  14  33
HETATM   33  N10 UNL     1      17.876  11.029   0.705  1.00  0.00    -0.215 N 
HETATM   34  C14 UNL     1      18.808   9.931   0.902  1.00  0.00     0.146 C 
HETATM   35  C15 UNL     1      19.922  10.486   1.763  1.00  0.00     0.015 A 
HETATM   36  C16 UNL     1      21.238  10.693   1.092  1.00  0.00     0.039 A 
HETATM   37  C18 UNL     1      19.728  11.965   1.839  1.00  0.00     0.039 A 
HETATM   38  C17 UNL     1      21.017  12.187   1.079  1.00  0.00     0.124 A 
HETATM   39  C19 UNL     1      18.478  12.302   1.075  1.00  0.00     0.148 C 
BRANCH  38  40
HETATM   40  O3  UNL     1      20.888  12.738  -0.172  1.00  0.00    -0.395 OA
ATOM     41  H3  UNL     1      21.626  13.266  -0.453  1.00  0.00     0.210 HD
ENDBRANCH  38  40
ENDBRANCH  14  33
TORSDOF 8
ENDMDL
MODEL 3
REMARK VINA RESULT: -8.946664918      3.089      6.907
REMARK  8 active torsions:
REMARK  status: ('A' for Active; 'I' for Inactive)
REMARK    1  A    between atoms: C4_11  and  N4_12 
REMARK    2  A    between atoms: N4_12  and  C5_14 
REMARK    3  A    between atoms: C5_14  and  C6_15 
REMARK    4  A    between atoms: C6_15  and  N5_16 
REMARK    5  A    between atoms: N8_20  and  C7_21 
REMARK    6  A    between atoms: C7_21  and  C8_22 
REMARK    7  A    between atoms: C13_31  and  N10_32 
REMARK    8  A    between atoms: C17_36  and  O3_37 
ROOT
HETATM    1  N1  UNL     1      18.267  11.142  -2.376  1.00  0.00    -0.234 N 
ATOM      2  H11 UNL     1      18.916  11.232  -1.594  1.00  0.00     0.174 HD
ATOM      3  H12 UNL     1      18.803  11.238  -3.238  1.00  0.00     0.174 HD
HETATM    4  C1  UNL     1      17.026  10.946  -2.196  1.00  0.00     0.698 A 
HETATM    5  N2  UNL     1      16.143  10.823  -3.261  1.00  0.00    -0.198 N 
ATOM      6  H2  UNL     1      16.405  10.876  -4.245  1.00  0.00     0.183 HD
HETATM    7  C2  UNL     1      14.916  10.626  -2.815  1.00  0.00     0.157 A 
HETATM    8  C3  UNL     1      15.028  10.623  -1.443  1.00  0.00     0.178 A 
HETATM    9  N3  UNL     1      14.096  10.465  -0.469  1.00  0.00    -0.173 N 
ATOM     10  H3  UNL     1      13.127  10.317  -0.753  1.00  0.00     0.186 HD
HETATM   11  C4  UNL     1      14.373  10.490   0.841  1.00  0.00     0.694 A 
HETATM   12  N9  UNL     1      15.651  10.684   1.168  1.00  0.00    -0.021 N 
ATOM     13  H9  UNL     1      15.903  10.710   2.156  1.00  0.00     0.203 HD
HETATM   14  C13 UNL     1      16.642  10.851   0.234  1.00  0.00     0.717 A 
HETATM   15  N11 UNL     1      16.322  10.819  -1.064  1.00  0.00     0.040 N 
ENDROOT
BRANCH  11  16
HETATM   16  N4  UNL     1      13.461  10.335   1.751  1.00  0.00    -0.224 N 
ATOM     17  H4  UNL     1      12.515  10.139   1.426  1.00  0.00     0.177 HD
BRANCH  16  18
HETATM   18  C5  UNL     1      13.654  10.411   3.160  1.00  0.00     0.160 C 
BRANCH  18  19
HETATM   19  C6  UNL     1      13.722   9.056   3.838  1.00  0.00     0.175 C 
BRANCH  19  20
HETATM   20  N5  UNL     1      14.573   9.171   5.009  1.00  0.00    -0.227 N 
HETATM   21  N6  UNL     1      15.871   9.271   5.075  1.00  0.00    -0.220 N 
HETATM   22  N7  UNL     1      16.248   9.356   6.359  1.00  0.00     0.000 NA
ATOM     23  H6  UNL     1      16.502   9.284   4.274  1.00  0.00     0.206 HD
HETATM   24  N8  UNL     1      15.172   9.309   7.125  1.00  0.00    -0.221 N 
HETATM   25  C12 UNL     1      14.122   9.194   6.292  1.00  0.00     0.357 A 
HETATM   26  O2  UNL     1      12.893   9.116   6.609  1.00  0.00    -0.244 OA
BRANCH  24  27
HETATM   27  C7  UNL     1      15.121   9.369   8.569  1.00  0.00     0.183 C 
BRANCH  27  28
HETATM   28  C8  UNL     1      14.899  10.814   9.010  1.00  0.00     0.141 C 
HETATM   29  C9  UNL     1      13.514  11.031   9.504  1.00  0.00     0.036 C 
HETATM   30  C10 UNL     1      13.708  11.737  10.833  1.00  0.00     0.029 C 
HETATM   31  C11 UNL     1      15.132  11.361  11.165  1.00  0.00     0.168 C 
HETATM   32  O1  UNL     1      15.796  11.214   9.958  1.00  0.00    -0.384 OA
ENDBRANCH  27  28
ENDBRANCH  24  27
ENDBRANCH  19  20
ENDBRANCH  18  19
ENDBRANCH  16  18
ENDBRANCH  11  16
BRANCH  14  33
HETATM   33  N10 UNL     1      17.955  11.049   0.687  1.00  0.00    -0.215 N 
HETATM   34  C14 UNL     1      18.924   9.986   0.899  1.00  0.00     0.146 C 
HETATM   35  C15 UNL     1      20.007  10.584   1.770  1.00  0.00     0.015 A 
HETATM   36  C16 UNL     1      21.323  10.835   1.114  1.00  0.00     0.039 A 
HETATM   37  C18 UNL     1      19.759  12.055   1.837  1.00  0.00     0.039 A 
HETATM   38  C17 UNL     1      21.049  12.320   1.091  1.00  0.00     0.124 A 
HETATM   39  C19 UNL     1      18.508  12.344   1.058  1.00  0.00     0.148 C 
BRANCH  38  40
HETATM   40  O3  UNL     1      20.914  12.860  -0.165  1.00  0.00    -0.395 OA
ATOM     41  H3  UNL     1      20.589  13.753  -0.181  1.00  0.00     0.210 HD
ENDBRANCH  38  40
ENDBRANCH  14  33
TORSDOF 8
ENDMDL
MODEL 4
REMARK VINA RESULT: -8.919058661      2.306      6.362
REMARK  8 active torsions:
REMARK  status: ('A' for Active; 'I' for Inactive)
REMARK    1  A    between atoms: C4_11  and  N4_12 
REMARK    2  A    between atoms: N4_12  and  C5_14 
REMARK    3  A    between atoms: C5_14  and  C6_15 
REMARK    4  A    between atoms: C6_15  and  N5_16 
REMARK    5  A    between atoms: N8_20  and  C7_21 
REMARK    6  A    between atoms: C7_21  and  C8_22 
REMARK    7  A    between atoms: C13_31  and  N10_32 
REMARK    8  A    between atoms: C17_36  and  O3_37 
ROOT
HETATM    1  N1  UNL     1      12.912   9.128   4.307  1.00  0.00    -0.234 N 
ATOM      2  H11 UNL     1      13.218   9.049   5.276  1.00  0.00     0.174 HD
ATOM      3  H12 UNL     1      11.997   8.683   4.232  1.00  0.00     0.174 HD
HETATM    4  C1  UNL     1      13.621   9.703   3.426  1.00  0.00     0.698 A 
HETATM    5  N2  UNL     1      13.204   9.811   2.105  1.00  0.00    -0.198 N 
ATOM      6  H2  UNL     1      12.321   9.452   1.741  1.00  0.00     0.183 HD
HETATM    7  C2  UNL     1      14.115  10.445   1.390  1.00  0.00     0.157 A 
HETATM    8  C3  UNL     1      15.124  10.744   2.276  1.00  0.00     0.178 A 
HETATM    9  N3  UNL     1      16.307  11.386   2.102  1.00  0.00    -0.173 N 
ATOM     10  H3  UNL     1      16.534  11.728   1.168  1.00  0.00     0.186 HD
HETATM   11  C4  UNL     1      17.194  11.599   3.083  1.00  0.00     0.694 A 
HETATM   12  N9  UNL     1      16.858  11.137   4.288  1.00  0.00    -0.021 N 
ATOM     13  H9  UNL     1      17.507  11.279   5.063  1.00  0.00     0.203 HD
HETATM   14  C13 UNL     1      15.679  10.480   4.533  1.00  0.00     0.717 A 
HETATM   15  N11 UNL     1      14.822  10.289   3.524  1.00  0.00     0.040 N 
ENDROOT
BRANCH  11  16
HETATM   16  N4  UNL     1      18.318  12.217   2.888  1.00  0.00    -0.224 N 
ATOM     17  H4  UNL     1      18.298  13.235   2.936  1.00  0.00     0.177 HD
BRANCH  16  18
HETATM   18  C5  UNL     1      19.577  11.611   2.612  1.00  0.00     0.160 C 
BRANCH  18  19
HETATM   19  C6  UNL     1      20.246  12.143   1.359  1.00  0.00     0.175 C 
BRANCH  19  20
HETATM   20  N5  UNL     1      19.719  11.421   0.215  1.00  0.00    -0.227 N 
HETATM   21  N6  UNL     1      20.172  10.339  -0.354  1.00  0.00    -0.220 N 
HETATM   22  N7  UNL     1      19.379  10.010  -1.384  1.00  0.00     0.000 NA
ATOM     23  H6  UNL     1      21.001   9.823  -0.062  1.00  0.00     0.206 HD
HETATM   24  N8  UNL     1      18.402  10.897  -1.473  1.00  0.00    -0.221 N 
HETATM   25  C12 UNL     1      18.606  11.781  -0.479  1.00  0.00     0.357 A 
HETATM   26  O2  UNL     1      17.898  12.800  -0.198  1.00  0.00    -0.244 OA
BRANCH  24  27
HETATM   27  C7  UNL     1      17.326  10.923  -2.438  1.00  0.00     0.183 C 
BRANCH  27  28
HETATM   28  C8  UNL     1      15.987  10.869  -1.707  1.00  0.00     0.141 C 
HETATM   29  C9  UNL     1      14.882  11.412  -2.542  1.00  0.00     0.036 C 
HETATM   30  C10 UNL     1      13.805  10.348  -2.457  1.00  0.00     0.029 C 
HETATM   31  C11 UNL     1      14.610   9.140  -2.044  1.00  0.00     0.168 C 
HETATM   32  O1  UNL     1      15.671   9.610  -1.287  1.00  0.00    -0.384 OA
ENDBRANCH  27  28
ENDBRANCH  24  27
ENDBRANCH  19  20
ENDBRANCH  18  19
ENDBRANCH  16  18
ENDBRANCH  11  16
BRANCH  14  33
HETATM   33  N10 UNL     1      15.425  10.035   5.839  1.00  0.00    -0.215 N 
HETATM   34  C14 UNL     1      14.608  10.747   6.809  1.00  0.00     0.146 C 
HETATM   35  C15 UNL     1      14.957  10.152   8.156  1.00  0.00     0.015 A 
HETATM   36  C16 UNL     1      13.912   9.302   8.796  1.00  0.00     0.039 A 
HETATM   37  C18 UNL     1      15.790   8.939   7.902  1.00  0.00     0.039 A 
HETATM   38  C17 UNL     1      14.699   8.055   8.466  1.00  0.00     0.124 A 
HETATM   39  C19 UNL     1      15.990   8.825   6.417  1.00  0.00     0.148 C 
BRANCH  38  40
HETATM   40  O3  UNL     1      14.089   7.210   7.571  1.00  0.00    -0.395 OA
ATOM     41  H3  UNL     1      14.684   6.740   6.999  1.00  0.00     0.210 HD
ENDBRANCH  38  40
ENDBRANCH  14  33
TORSDOF 8
ENDMDL
MODEL 5
REMARK VINA RESULT: -8.902253017      2.116      4.062
REMARK  8 active torsions:
REMARK  status: ('A' for Active; 'I' for Inactive)
REMARK    1  A    between atoms: C4_11  and  N4_12 
REMARK    2  A    between atoms: N4_12  and  C5_14 
REMARK    3  A    between atoms: C5_14  and  C6_15 
REMARK    4  A    between atoms: C6_15  and  N5_16 
REMARK    5  A    between atoms: N8_20  and  C7_21 
REMARK    6  A    between atoms: C7_21  and  C8_22 
REMARK    7  A    between atoms: C13_31  and  N10_32 
REMARK    8  A    between atoms: C17_36  and  O3_37 
ROOT
HETATM    1  N1  UNL     1      20.662   8.415  -0.054  1.00  0.00    -0.234 N 
ATOM      2  H11 UNL     1      20.922   7.922   0.801  1.00  0.00     0.174 HD
ATOM      3  H12 UNL     1      21.074   7.913  -0.840  1.00  0.00     0.174 HD
HETATM    4  C1  UNL     1      19.946   9.462  -0.031  1.00  0.00     0.698 A 
HETATM    5  N2  UNL     1      19.592  10.133  -1.194  1.00  0.00    -0.198 N 
ATOM      6  H2  UNL     1      19.866   9.852  -2.136  1.00  0.00     0.183 HD
HETATM    7  C2  UNL     1      18.851  11.187  -0.905  1.00  0.00     0.157 A 
HETATM    8  C3  UNL     1      18.733  11.179   0.466  1.00  0.00     0.178 A 
HETATM    9  N3  UNL     1      18.087  12.018   1.314  1.00  0.00    -0.173 N 
ATOM     10  H3  UNL     1      17.583  12.810   0.913  1.00  0.00     0.186 HD
HETATM   11  C4  UNL     1      18.070  11.870   2.645  1.00  0.00     0.694 A 
HETATM   12  N9  UNL     1      18.740  10.822   3.127  1.00  0.00    -0.021 N 
ATOM     13  H9  UNL     1      18.752  10.674   4.136  1.00  0.00     0.203 HD
HETATM   14  C13 UNL     1      19.414   9.936   2.327  1.00  0.00     0.717 A 
HETATM   15  N11 UNL     1      19.405  10.122   1.002  1.00  0.00     0.040 N 
ENDROOT
BRANCH  11  16
HETATM   16  N4  UNL     1      17.443  12.689   3.432  1.00  0.00    -0.224 N 
ATOM     17  H4  UNL     1      18.016  13.307   4.005  1.00  0.00     0.177 HD
BRANCH  16  18
HETATM   18  C5  UNL     1      16.031  12.807   3.573  1.00  0.00     0.160 C 
BRANCH  18  19
HETATM   19  C6  UNL     1      15.343  11.500   3.918  1.00  0.00     0.175 C 
BRANCH  19  20
HETATM   20  N5  UNL     1      14.418  11.172   2.848  1.00  0.00    -0.227 N 
HETATM   21  N6  UNL     1      13.171  11.522   2.703  1.00  0.00    -0.220 N 
HETATM   22  N7  UNL     1      12.689  10.998   1.567  1.00  0.00     0.000 NA
ATOM     23  H6  UNL     1      12.644  12.105   3.353  1.00  0.00     0.206 HD
HETATM   24  N8  UNL     1      13.645  10.301   0.977  1.00  0.00    -0.221 N 
HETATM   25  C12 UNL     1      14.728  10.404   1.768  1.00  0.00     0.357 A 
HETATM   26  O2  UNL     1      15.874   9.885   1.577  1.00  0.00    -0.244 OA
BRANCH  24  27
HETATM   27  C7  UNL     1      13.557   9.572  -0.269  1.00  0.00     0.183 C 
BRANCH  27  28
HETATM   28  C8  UNL     1      13.584  10.556  -1.436  1.00  0.00     0.141 C 
HETATM   29  C9  UNL     1      14.966  11.015  -1.736  1.00  0.00     0.036 C 
HETATM   30  C10 UNL     1      15.096  10.822  -3.235  1.00  0.00     0.029 C 
HETATM   31  C11 UNL     1      14.007   9.812  -3.501  1.00  0.00     0.168 C 
HETATM   32  O1  UNL     1      13.013  10.044  -2.565  1.00  0.00    -0.384 OA
ENDBRANCH  27  28
ENDBRANCH  24  27
ENDBRANCH  19  20
ENDBRANCH  18  19
ENDBRANCH  16  18
ENDBRANCH  11  16
BRANCH  14  33
HETATM   33  N10 UNL     1      20.087   8.867   2.938  1.00  0.00    -0.215 N 
HETATM   34  C14 UNL     1      19.436   7.691   3.492  1.00  0.00     0.146 C 
HETATM   35  C15 UNL     1      20.460   7.044   4.399  1.00  0.00     0.015 A 
HETATM   36  C16 UNL     1      21.047   5.757   3.925  1.00  0.00     0.039 A 
HETATM   37  C18 UNL     1      21.764   7.729   4.155  1.00  0.00     0.039 A 
HETATM   38  C17 UNL     1      22.344   6.452   3.587  1.00  0.00     0.124 A 
HETATM   39  C19 UNL     1      21.527   8.818   3.148  1.00  0.00     0.148 C 
BRANCH  38  40
HETATM   40  O3  UNL     1      22.652   6.477   2.249  1.00  0.00    -0.395 OA
ATOM     41  H3  UNL     1      23.554   6.701   2.052  1.00  0.00     0.210 HD
ENDBRANCH  38  40
ENDBRANCH  14  33
TORSDOF 8
ENDMDL
