MODEL 1
REMARK VINA RESULT: -8.406699643      0.000      0.000
REMARK  11 active torsions:
REMARK  status: ('A' for Active; 'I' for Inactive)
REMARK    1  A    between atoms: O1_2  and  C2_3 
REMARK    2  A    between atoms: C5_7  and  O3_8 
REMARK    3  A    between atoms: O3_8  and  C6_9 
REMARK    4  A    between atoms: C8_12  and  N1_13 
REMARK    5  A    between atoms: N2_16  and  C11_17 
REMARK    6  A    between atoms: C12_18  and  O4_19 
REMARK    7  A    between atoms: C13_21  and  O5_22 
REMARK    8  A    between atoms: C14_24  and  O6_25 
REMARK    9  A    between atoms: C15_27  and  O7_28 
REMARK   10  A    between atoms: C16_30  and  C17_31 
REMARK   11  A    between atoms: C17_31  and  O8_32 
ROOT
HETATM    1  N1  UNL     1      17.984  10.755   2.370  1.00  0.00     0.157 N 
HETATM    2  C9  UNL     1      17.423  12.086   2.536  1.00  0.00     0.309 C 
HETATM    3  C10 UNL     1      16.352  11.910   3.621  1.00  0.00     0.305 C 
HETATM    4  N2  UNL     1      16.912  10.798   4.362  1.00  0.00     0.126 N 
HETATM    5  C18 UNL     1      17.225   9.897   3.271  1.00  0.00     0.547 C 
ENDROOT
BRANCH   4   6
HETATM    6  C11 UNL     1      16.075  10.274   5.374  1.00  0.00     0.265 C 
HETATM    7  C12 UNL     1      14.606  10.168   5.006  1.00  0.00     0.183 C 
HETATM    8  C13 UNL     1      13.827   9.887   6.279  1.00  0.00     0.180 C 
HETATM    9  C14 UNL     1      14.306   8.608   6.936  1.00  0.00     0.178 C 
HETATM   10  C15 UNL     1      15.766   8.742   7.226  1.00  0.00     0.157 C 
HETATM   11  C16 UNL     1      16.483   8.914   5.877  1.00  0.00     0.077 C 
BRANCH   7  12
HETATM   12  O4  UNL     1      14.442   9.043   4.197  1.00  0.00    -0.391 OA
ATOM     13  H4  UNL     1      13.519   8.819   4.188  1.00  0.00     0.210 HD
ENDBRANCH   7  12
BRANCH   8  14
HETATM   14  O5  UNL     1      13.959  10.922   7.174  1.00  0.00    -0.390 OA
ATOM     15  H5  UNL     1      13.956  10.599   8.067  1.00  0.00     0.210 HD
ENDBRANCH   8  14
BRANCH   9  16
HETATM   16  O6  UNL     1      13.536   8.388   8.056  1.00  0.00    -0.390 OA
ATOM     17  H6  UNL     1      13.865   7.611   8.492  1.00  0.00     0.210 HD
ENDBRANCH   9  16
BRANCH  10  18
HETATM   18  O7  UNL     1      16.284   7.671   7.937  1.00  0.00    -0.392 OA
ATOM     19  H7  UNL     1      16.837   7.934   8.664  1.00  0.00     0.210 HD
ENDBRANCH  10  18
BRANCH  11  20
HETATM   20  C17 UNL     1      17.980   8.812   6.082  1.00  0.00     0.173 C 
BRANCH  20  21
HETATM   21  O8  UNL     1      18.294   7.450   6.114  1.00  0.00    -0.400 OA
ATOM     22  H8  UNL     1      18.518   7.197   5.226  1.00  0.00     0.209 HD
ENDBRANCH  20  21
ENDBRANCH  11  20
ENDBRANCH   4   6
BRANCH   1  23
HETATM   23  C8  UNL     1      17.814  10.399   0.980  1.00  0.00     0.428 C 
HETATM   24  S1  UNL     1      19.391  10.644   0.062  1.00  0.00    -0.102 SA
HETATM   25  C7  UNL     1      18.628  11.572  -1.336  1.00  0.00     0.139 C 
HETATM   26  C6  UNL     1      17.156  11.310  -0.979  1.00  0.00     0.276 C 
HETATM   27  O9  UNL     1      17.040  11.370   0.387  1.00  0.00    -0.318 OA
BRANCH  26  28
HETATM   28  O3  UNL     1      16.678  10.168  -1.552  1.00  0.00    -0.330 OA
BRANCH  28  29
HETATM   29  C5  UNL     1      15.449  10.426  -2.144  1.00  0.00     0.270 C 
HETATM   30  C4  UNL     1      14.669  11.488  -1.400  1.00  0.00     0.087 C 
HETATM   31  C3  UNL     1      13.262  10.936  -1.199  1.00  0.00     0.178 C 
HETATM   32  O2  UNL     1      12.827  10.414  -2.418  1.00  0.00    -0.339 OA
HETATM   33  C2  UNL     1      13.558   9.309  -2.808  1.00  0.00     0.414 C 
HETATM   34  O10 UNL     1      14.698   9.239  -2.019  1.00  0.00    -0.308 OA
BRANCH  33  35
HETATM   35  O1  UNL     1      13.830   9.288  -4.169  1.00  0.00    -0.344 OA
HETATM   36  C1  UNL     1      12.680   9.433  -4.939  1.00  0.00     0.207 C 
ENDBRANCH  33  35
ENDBRANCH  28  29
ENDBRANCH  26  28
ENDBRANCH   1  23
TORSDOF 11
ENDMDL
MODEL 2
REMARK VINA RESULT: -8.102275596      3.542      7.905
REMARK  11 active torsions:
REMARK  status: ('A' for Active; 'I' for Inactive)
REMARK    1  A    between atoms: O1_2  and  C2_3 
REMARK    2  A    between atoms: C5_7  and  O3_8 
REMARK    3  A    between atoms: O3_8  and  C6_9 
REMARK    4  A    between atoms: C8_12  and  N1_13 
REMARK    5  A    between atoms: N2_16  and  C11_17 
REMARK    6  A    between atoms: C12_18  and  O4_19 
REMARK    7  A    between atoms: C13_21  and  O5_22 
REMARK    8  A    between atoms: C14_24  and  O6_25 
REMARK    9  A    between atoms: C15_27  and  O7_28 
REMARK   10  A    between atoms: C16_30  and  C17_31 
REMARK   11  A    between atoms: C17_31  and  O8_32 
ROOT
HETATM    1  N1  UNL     1      19.092  10.857   2.476  1.00  0.00     0.157 N 
HETATM    2  C9  UNL     1      19.377  12.127   1.828  1.00  0.00     0.309 C 
HETATM    3  C10 UNL     1      18.398  12.175   0.647  1.00  0.00     0.305 C 
HETATM    4  N2  UNL     1      17.315  11.370   1.174  1.00  0.00     0.126 N 
HETATM    5  C18 UNL     1      18.060  10.228   1.662  1.00  0.00     0.547 C 
ENDROOT
BRANCH   4   6
HETATM    6  C11 UNL     1      16.281  11.086   0.252  1.00  0.00     0.265 C 
HETATM    7  C12 UNL     1      16.733  10.889  -1.184  1.00  0.00     0.183 C 
HETATM    8  C13 UNL     1      15.496  10.899  -2.066  1.00  0.00     0.180 C 
HETATM    9  C14 UNL     1      14.529   9.808  -1.656  1.00  0.00     0.178 C 
HETATM   10  C15 UNL     1      14.160  10.014  -0.223  1.00  0.00     0.157 C 
HETATM   11  C16 UNL     1      15.450   9.879   0.602  1.00  0.00     0.077 C 
BRANCH   7  12
HETATM   12  O4  UNL     1      17.275   9.608  -1.296  1.00  0.00    -0.391 OA
ATOM     13  H4  UNL     1      17.526   9.472  -2.202  1.00  0.00     0.210 HD
ENDBRANCH   7  12
BRANCH   8  14
HETATM   14  O5  UNL     1      14.854  12.112  -1.994  1.00  0.00    -0.390 OA
ATOM     15  H5  UNL     1      13.919  12.008  -2.130  1.00  0.00     0.210 HD
ENDBRANCH   8  14
BRANCH   9  16
HETATM   16  O6  UNL     1      13.455   9.843  -2.517  1.00  0.00    -0.390 OA
ATOM     17  H6  UNL     1      13.214  10.752  -2.651  1.00  0.00     0.210 HD
ENDBRANCH   9  16
BRANCH  10  18
HETATM   18  O7  UNL     1      13.184   9.137   0.224  1.00  0.00    -0.392 OA
ATOM     19  H7  UNL     1      12.458   9.042  -0.382  1.00  0.00     0.210 HD
ENDBRANCH  10  18
BRANCH  11  20
HETATM   20  C17 UNL     1      15.106   9.836   2.076  1.00  0.00     0.173 C 
BRANCH  20  21
HETATM   21  O8  UNL     1      15.053   8.488   2.443  1.00  0.00    -0.400 OA
ATOM     22  H8  UNL     1      15.951   8.185   2.512  1.00  0.00     0.209 HD
ENDBRANCH  20  21
ENDBRANCH  11  20
ENDBRANCH   4   6
BRANCH   1  23
HETATM   23  C8  UNL     1      20.328  10.107   2.491  1.00  0.00     0.428 C 
HETATM   24  S1  UNL     1      21.179  10.250   0.864  1.00  0.00    -0.102 SA
HETATM   25  C7  UNL     1      21.496   8.443   0.683  1.00  0.00     0.139 C 
HETATM   26  C6  UNL     1      21.099   8.020   2.106  1.00  0.00     0.276 C 
HETATM   27  O9  UNL     1      20.010   8.769   2.477  1.00  0.00    -0.318 OA
BRANCH  26  28
HETATM   28  O3  UNL     1      22.152   8.060   2.973  1.00  0.00    -0.330 OA
BRANCH  28  29
HETATM   29  C5  UNL     1      22.079   6.977   3.840  1.00  0.00     0.270 C 
HETATM   30  C4  UNL     1      23.314   6.857   4.707  1.00  0.00     0.087 C 
HETATM   31  C3  UNL     1      23.765   5.403   4.623  1.00  0.00     0.178 C 
HETATM   32  O2  UNL     1      22.644   4.594   4.812  1.00  0.00    -0.339 OA
HETATM   33  C2  UNL     1      21.730   4.711   3.784  1.00  0.00     0.414 C 
HETATM   34  O10 UNL     1      22.065   5.826   3.027  1.00  0.00    -0.308 OA
BRANCH  33  35
HETATM   35  O1  UNL     1      20.413   4.720   4.222  1.00  0.00    -0.344 OA
HETATM   36  C1  UNL     1      19.606   3.861   3.483  1.00  0.00     0.207 C 
ENDBRANCH  33  35
ENDBRANCH  28  29
ENDBRANCH  26  28
ENDBRANCH   1  23
TORSDOF 11
ENDMDL
MODEL 3
REMARK VINA RESULT: -7.997245170      2.258      8.803
REMARK  11 active torsions:
REMARK  status: ('A' for Active; 'I' for Inactive)
REMARK    1  A    between atoms: O1_2  and  C2_3 
REMARK    2  A    between atoms: C5_7  and  O3_8 
REMARK    3  A    between atoms: O3_8  and  C6_9 
REMARK    4  A    between atoms: C8_12  and  N1_13 
REMARK    5  A    between atoms: N2_16  and  C11_17 
REMARK    6  A    between atoms: C12_18  and  O4_19 
REMARK    7  A    between atoms: C13_21  and  O5_22 
REMARK    8  A    between atoms: C14_24  and  O6_25 
REMARK    9  A    between atoms: C15_27  and  O7_28 
REMARK   10  A    between atoms: C16_30  and  C17_31 
REMARK   11  A    between atoms: C17_31  and  O8_32 
ROOT
HETATM    1  N1  UNL     1      16.531  11.500   3.178  1.00  0.00     0.157 N 
HETATM    2  C9  UNL     1      17.856  11.172   2.679  1.00  0.00     0.309 C 
HETATM    3  C10 UNL     1      17.591  10.433   1.361  1.00  0.00     0.305 C 
HETATM    4  N2  UNL     1      16.333  11.038   0.972  1.00  0.00     0.126 N 
HETATM    5  C18 UNL     1      15.599  10.924   2.217  1.00  0.00     0.547 C 
ENDROOT
BRANCH   4   6
HETATM    6  C11 UNL     1      15.719  10.459  -0.162  1.00  0.00     0.265 C 
HETATM    7  C12 UNL     1      14.245  10.133  -0.002  1.00  0.00     0.183 C 
HETATM    8  C13 UNL     1      13.832   9.258  -1.173  1.00  0.00     0.180 C 
HETATM    9  C14 UNL     1      14.083   9.963  -2.491  1.00  0.00     0.178 C 
HETATM   10  C15 UNL     1      15.534  10.311  -2.574  1.00  0.00     0.157 C 
HETATM   11  C16 UNL     1      15.835  11.281  -1.420  1.00  0.00     0.077 C 
BRANCH   7  12
HETATM   12  O4  UNL     1      13.521  11.320  -0.134  1.00  0.00    -0.391 OA
ATOM     13  H4  UNL     1      13.055  11.472   0.679  1.00  0.00     0.210 HD
ENDBRANCH   7  12
BRANCH   8  14
HETATM   14  O5  UNL     1      14.524   8.071  -1.166  1.00  0.00    -0.390 OA
ATOM     15  H5  UNL     1      14.801   7.835  -2.043  1.00  0.00     0.210 HD
ENDBRANCH   8  14
BRANCH   9  16
HETATM   16  O6  UNL     1      13.651   9.139  -3.506  1.00  0.00    -0.390 OA
ATOM     17  H6  UNL     1      13.783   9.592  -4.330  1.00  0.00     0.210 HD
ENDBRANCH   9  16
BRANCH  10  18
HETATM   18  O7  UNL     1      15.898  10.857  -3.796  1.00  0.00    -0.392 OA
ATOM     19  H7  UNL     1      16.798  11.160  -3.819  1.00  0.00     0.210 HD
ENDBRANCH  10  18
BRANCH  11  20
HETATM   20  C17 UNL     1      17.224  11.858  -1.593  1.00  0.00     0.173 C 
BRANCH  20  21
HETATM   21  O8  UNL     1      18.023  10.843  -2.127  1.00  0.00    -0.400 OA
ATOM     22  H8  UNL     1      18.927  11.106  -1.997  1.00  0.00     0.209 HD
ENDBRANCH  20  21
ENDBRANCH  11  20
ENDBRANCH   4   6
BRANCH   1  23
HETATM   23  C8  UNL     1      16.419  10.907   4.492  1.00  0.00     0.428 C 
HETATM   24  S1  UNL     1      16.153   9.091   4.350  1.00  0.00    -0.102 SA
HETATM   25  C7  UNL     1      14.740   9.036   5.532  1.00  0.00     0.139 C 
HETATM   26  C6  UNL     1      14.867  10.469   6.073  1.00  0.00     0.276 C 
HETATM   27  O9  UNL     1      15.207  11.284   5.023  1.00  0.00    -0.318 OA
BRANCH  26  28
HETATM   28  O3  UNL     1      15.695  10.543   7.155  1.00  0.00    -0.330 OA
BRANCH  28  29
HETATM   29  C5  UNL     1      14.941  10.491   8.320  1.00  0.00     0.270 C 
HETATM   30  C4  UNL     1      14.711   9.070   8.788  1.00  0.00     0.087 C 
HETATM   31  C3  UNL     1      13.219   8.942   9.076  1.00  0.00     0.178 C 
HETATM   32  O2  UNL     1      12.833  10.045   9.838  1.00  0.00    -0.339 OA
HETATM   33  C2  UNL     1      12.928  11.230   9.135  1.00  0.00     0.414 C 
HETATM   34  O10 UNL     1      13.669  10.997   7.984  1.00  0.00    -0.308 OA
BRANCH  33  35
HETATM   35  O1  UNL     1      13.417  12.281   9.899  1.00  0.00    -0.344 OA
HETATM   36  C1  UNL     1      13.403  11.993  11.260  1.00  0.00     0.207 C 
ENDBRANCH  33  35
ENDBRANCH  28  29
ENDBRANCH  26  28
ENDBRANCH   1  23
TORSDOF 11
ENDMDL
MODEL 4
REMARK VINA RESULT: -7.973203053      2.622      8.944
REMARK  11 active torsions:
REMARK  status: ('A' for Active; 'I' for Inactive)
REMARK    1  A    between atoms: O1_2  and  C2_3 
REMARK    2  A    between atoms: C5_7  and  O3_8 
REMARK    3  A    between atoms: O3_8  and  C6_9 
REMARK    4  A    between atoms: C8_12  and  N1_13 
REMARK    5  A    between atoms: N2_16  and  C11_17 
REMARK    6  A    between atoms: C12_18  and  O4_19 
REMARK    7  A    between atoms: C13_21  and  O5_22 
REMARK    8  A    between atoms: C14_24  and  O6_25 
REMARK    9  A    between atoms: C15_27  and  O7_28 
REMARK   10  A    between atoms: C16_30  and  C17_31 
REMARK   11  A    between atoms: C17_31  and  O8_32 
ROOT
HETATM    1  N1  UNL     1      14.506   9.308   3.390  1.00  0.00     0.157 N 
HETATM    2  C9  UNL     1      13.539  10.083   2.630  1.00  0.00     0.309 C 
HETATM    3  C10 UNL     1      14.397  11.057   1.812  1.00  0.00     0.305 C 
HETATM    4  N2  UNL     1      15.613  10.281   1.674  1.00  0.00     0.126 N 
HETATM    5  C18 UNL     1      15.808   9.866   3.048  1.00  0.00     0.547 C 
ENDROOT
BRANCH   4   6
HETATM    6  C11 UNL     1      16.694  10.969   1.077  1.00  0.00     0.265 C 
HETATM    7  C12 UNL     1      18.005  10.893   1.837  1.00  0.00     0.183 C 
HETATM    8  C13 UNL     1      18.953  11.915   1.233  1.00  0.00     0.180 C 
HETATM    9  C14 UNL     1      19.175  11.644  -0.241  1.00  0.00     0.178 C 
HETATM   10  C15 UNL     1      17.850  11.673  -0.933  1.00  0.00     0.157 C 
HETATM   11  C16 UNL     1      17.000  10.541  -0.335  1.00  0.00     0.077 C 
BRANCH   7  12
HETATM   12  O4  UNL     1      18.578   9.644   1.592  1.00  0.00    -0.391 OA
ATOM     13  H4  UNL     1      19.256   9.498   2.241  1.00  0.00     0.210 HD
ENDBRANCH   7  12
BRANCH   8  14
HETATM   14  O5  UNL     1      18.459  13.189   1.380  1.00  0.00    -0.390 OA
ATOM     15  H5  UNL     1      17.566  13.245   1.060  1.00  0.00     0.210 HD
ENDBRANCH   8  14
BRANCH   9  16
HETATM   16  O6  UNL     1      20.071  12.574  -0.717  1.00  0.00    -0.390 OA
ATOM     17  H6  UNL     1      20.509  12.970   0.027  1.00  0.00     0.210 HD
ENDBRANCH   9  16
BRANCH  10  18
HETATM   18  O7  UNL     1      17.949  11.553  -2.311  1.00  0.00    -0.392 OA
ATOM     19  H7  UNL     1      17.417  12.183  -2.782  1.00  0.00     0.210 HD
ENDBRANCH  10  18
BRANCH  11  20
HETATM   20  C17 UNL     1      15.742  10.364  -1.159  1.00  0.00     0.173 C 
BRANCH  20  21
HETATM   21  O8  UNL     1      15.321  11.642  -1.539  1.00  0.00    -0.400 OA
ATOM     22  H8  UNL     1      14.441  11.551  -1.886  1.00  0.00     0.209 HD
ENDBRANCH  20  21
ENDBRANCH  11  20
ENDBRANCH   4   6
BRANCH   1  23
HETATM   23  C8  UNL     1      14.172   9.476   4.786  1.00  0.00     0.428 C 
HETATM   24  S1  UNL     1      15.675   9.931   5.749  1.00  0.00    -0.102 SA
HETATM   25  C7  UNL     1      15.402   8.687   7.082  1.00  0.00     0.139 C 
HETATM   26  C6  UNL     1      13.978   8.267   6.684  1.00  0.00     0.276 C 
HETATM   27  O9  UNL     1      13.920   8.230   5.313  1.00  0.00    -0.318 OA
BRANCH  26  28
HETATM   28  O3  UNL     1      13.023   9.035   7.283  1.00  0.00    -0.330 OA
BRANCH  28  29
HETATM   29  C5  UNL     1      13.527   9.562   8.466  1.00  0.00     0.270 C 
HETATM   30  C4  UNL     1      12.611   9.300   9.642  1.00  0.00     0.087 C 
HETATM   31  C3  UNL     1      12.438  10.632  10.364  1.00  0.00     0.178 C 
HETATM   32  O2  UNL     1      13.701  11.204  10.520  1.00  0.00    -0.339 OA
HETATM   33  C2  UNL     1      14.270  11.560   9.313  1.00  0.00     0.414 C 
HETATM   34  O10 UNL     1      13.543  10.961   8.294  1.00  0.00    -0.308 OA
BRANCH  33  35
HETATM   35  O1  UNL     1      15.630  11.287   9.250  1.00  0.00    -0.344 OA
HETATM   36  C1  UNL     1      16.221  11.258  10.510  1.00  0.00     0.207 C 
ENDBRANCH  33  35
ENDBRANCH  28  29
ENDBRANCH  26  28
ENDBRANCH   1  23
TORSDOF 11
ENDMDL
MODEL 5
REMARK VINA RESULT: -7.912126285      2.243      8.842
REMARK  11 active torsions:
REMARK  status: ('A' for Active; 'I' for Inactive)
REMARK    1  A    between atoms: O1_2  and  C2_3 
REMARK    2  A    between atoms: C5_7  and  O3_8 
REMARK    3  A    between atoms: O3_8  and  C6_9 
REMARK    4  A    between atoms: C8_12  and  N1_13 
REMARK    5  A    between atoms: N2_16  and  C11_17 
REMARK    6  A    between atoms: C12_18  and  O4_19 
REMARK    7  A    between atoms: C13_21  and  O5_22 
REMARK    8  A    between atoms: C14_24  and  O6_25 
REMARK    9  A    between atoms: C15_27  and  O7_28 
REMARK   10  A    between atoms: C16_30  and  C17_31 
REMARK   11  A    between atoms: C17_31  and  O8_32 
ROOT
HETATM    1  N1  UNL     1      14.243   9.224   2.891  1.00  0.00     0.157 N 
HETATM    2  C9  UNL     1      13.108  10.118   2.735  1.00  0.00     0.309 C 
HETATM    3  C10 UNL     1      13.213  10.611   1.286  1.00  0.00     0.305 C 
HETATM    4  N2  UNL     1      13.878   9.479   0.673  1.00  0.00     0.126 N 
HETATM    5  C18 UNL     1      14.955   9.273   1.621  1.00  0.00     0.547 C 
ENDROOT
BRANCH   4   6
HETATM    6  C11 UNL     1      14.267   9.673  -0.672  1.00  0.00     0.265 C 
HETATM    7  C12 UNL     1      13.149  10.076  -1.615  1.00  0.00     0.183 C 
HETATM    8  C13 UNL     1      13.668   9.942  -3.036  1.00  0.00     0.180 C 
HETATM    9  C14 UNL     1      14.888  10.814  -3.252  1.00  0.00     0.178 C 
HETATM   10  C15 UNL     1      15.937  10.416  -2.263  1.00  0.00     0.157 C 
HETATM   11  C16 UNL     1      15.366  10.686  -0.862  1.00  0.00     0.077 C 
BRANCH   7  12
HETATM   12  O4  UNL     1      12.890  11.434  -1.426  1.00  0.00    -0.391 OA
ATOM     13  H4  UNL     1      12.344  11.525  -0.654  1.00  0.00     0.210 HD
ENDBRANCH   7  12
BRANCH   8  14
HETATM   14  O5  UNL     1      14.000   8.639  -3.317  1.00  0.00    -0.390 OA
ATOM     15  H5  UNL     1      13.488   8.308  -4.045  1.00  0.00     0.210 HD
ENDBRANCH   8  14
BRANCH   9  16
HETATM   16  O6  UNL     1      15.283  10.682  -4.564  1.00  0.00    -0.390 OA
ATOM     17  H6  UNL     1      15.970  11.317  -4.731  1.00  0.00     0.210 HD
ENDBRANCH   9  16
BRANCH  10  18
HETATM   18  O7  UNL     1      17.143  11.073  -2.449  1.00  0.00    -0.392 OA
ATOM     19  H7  UNL     1      17.563  11.326  -1.635  1.00  0.00     0.210 HD
ENDBRANCH  10  18
BRANCH  11  20
HETATM   20  C17 UNL     1      16.463  10.533   0.170  1.00  0.00     0.173 C 
BRANCH  20  21
HETATM   21  O8  UNL     1      17.029  11.798   0.353  1.00  0.00    -0.400 OA
ATOM     22  H8  UNL     1      17.006  11.979   1.285  1.00  0.00     0.209 HD
ENDBRANCH  20  21
ENDBRANCH  11  20
ENDBRANCH   4   6
BRANCH   1  23
HETATM   23  C8  UNL     1      15.029   9.732   3.994  1.00  0.00     0.428 C 
HETATM   24  S1  UNL     1      16.823   9.487   3.663  1.00  0.00    -0.102 SA
HETATM   25  C7  UNL     1      17.199   8.758   5.314  1.00  0.00     0.139 C 
HETATM   26  C6  UNL     1      15.854   9.071   5.989  1.00  0.00     0.276 C 
HETATM   27  O9  UNL     1      14.864   8.877   5.059  1.00  0.00    -0.318 OA
BRANCH  26  28
HETATM   28  O3  UNL     1      15.849  10.294   6.594  1.00  0.00    -0.330 OA
BRANCH  28  29
HETATM   29  C5  UNL     1      15.160  10.213   7.797  1.00  0.00     0.270 C 
HETATM   30  C4  UNL     1      14.845   8.783   8.179  1.00  0.00     0.087 C 
HETATM   31  C3  UNL     1      13.367   8.745   8.549  1.00  0.00     0.178 C 
HETATM   32  O2  UNL     1      13.112   9.816   9.407  1.00  0.00    -0.339 OA
HETATM   33  C2  UNL     1      13.260  11.038   8.783  1.00  0.00     0.414 C 
HETATM   34  O10 UNL     1      13.914  10.835   7.576  1.00  0.00    -0.308 OA
BRANCH  33  35
HETATM   35  O1  UNL     1      13.872  11.990   9.586  1.00  0.00    -0.344 OA
HETATM   36  C1  UNL     1      13.631  11.773  10.939  1.00  0.00     0.207 C 
ENDBRANCH  33  35
ENDBRANCH  28  29
ENDBRANCH  26  28
ENDBRANCH   1  23
TORSDOF 11
ENDMDL
