MODEL 1
REMARK VINA RESULT: -5.607808723      0.000      0.000
REMARK  14 active torsions:
REMARK  status: ('A' for Active; 'I' for Inactive)
REMARK    1  A    between atoms: N1_1  and  N2_4 
REMARK    2  A    between atoms: N2_4  and  C1_6 
REMARK    3  A    between atoms: C2_9  and  C3_10 
REMARK    4  A    between atoms: C3_10  and  N4_11 
REMARK    5  A    between atoms: C3_10  and  S1_18 
REMARK    6  A    between atoms: N4_11  and  N5_13 
REMARK       I    between atoms: N5_13  and  C4_15 
REMARK    7  A    between atoms: S1_18  and  C5_19 
REMARK    8  A    between atoms: C9_23  and  C10_24 
REMARK    9  A    between atoms: C10_24  and  S2_25 
REMARK   10  A    between atoms: S2_25  and  C11_26 
REMARK   11  A    between atoms: C11_26  and  C12_27 
REMARK   12  A    between atoms: C12_27  and  C13_28 
REMARK       I    between atoms: C13_28  and  N8_30 
REMARK   13  A    between atoms: N8_30  and  C14_32 
REMARK   14  A    between atoms: N12_39  and  N13_40 
ROOT
HETATM    1  C5  UNL     1      27.752  14.956  -0.923  1.00  0.00     0.007 A 
HETATM    2  C6  UNL     1      27.692  16.233  -0.385  1.00  0.00     0.019 A 
HETATM    3  C7  UNL     1      26.691  16.565   0.500  1.00  0.00     0.002 A 
HETATM    4  C8  UNL     1      25.740  15.596   0.844  1.00  0.00     0.008 A 
HETATM    5  C9  UNL     1      25.761  14.342   0.343  1.00  0.00    -0.048 A 
HETATM    6  C16 UNL     1      26.800  14.049  -0.556  1.00  0.00     0.026 A 
ENDROOT
BRANCH   1   7
HETATM    7  S1  UNL     1      29.047  14.513  -2.057  1.00  0.00    -0.067 SA
BRANCH   7   8
HETATM    8  C3  UNL     1      29.350  15.787  -3.247  1.00  0.00     0.143 C 
BRANCH   8   9
HETATM    9  C2  UNL     1      28.666  15.769  -4.537  1.00  0.00     0.207 A 
HETATM   10  N3  UNL     1      29.100  14.952  -5.538  1.00  0.00    -0.313 N 
HETATM   11  C1  UNL     1      28.450  14.950  -6.726  1.00  0.00     0.193 A 
ATOM     12  H3  UNL     1      29.908  14.346  -5.393  1.00  0.00     0.170 HD
HETATM   13  C17 UNL     1      27.361  15.761  -6.938  1.00  0.00     0.310 A 
HETATM   14  N14 UNL     1      26.971  16.557  -5.904  1.00  0.00    -0.220 N 
HETATM   15  O3  UNL     1      26.732  15.796  -8.008  1.00  0.00    -0.262 OA
HETATM   16  O2  UNL     1      27.629  16.513  -4.797  1.00  0.00    -0.214 OA
ATOM     17  H14 UNL     1      26.169  17.179  -6.005  1.00  0.00     0.198 HD
BRANCH  11  18
HETATM   18  N2  UNL     1      28.825  14.195  -7.693  1.00  0.00    -0.287 N 
ATOM     19  H2  UNL     1      28.984  13.215  -7.457  1.00  0.00     0.188 HD
BRANCH  18  20
HETATM   20  N1  UNL     1      29.037  14.534  -9.000  1.00  0.00    -0.343 N 
ATOM     21  H12 UNL     1      29.388  15.482  -9.142  1.00  0.00     0.176 HD
ATOM     22  H11 UNL     1      28.889  13.964  -9.833  1.00  0.00     0.176 HD
ENDBRANCH  18  20
ENDBRANCH  11  18
ENDBRANCH   8   9
BRANCH   8  23
HETATM   23  N4  UNL     1      30.185  16.727  -2.959  1.00  0.00    -0.288 N 
ATOM     24  H4  UNL     1      30.913  16.528  -2.272  1.00  0.00     0.188 HD
BRANCH  23  25
HETATM   25  N5  UNL     1      30.154  17.987  -3.524  1.00  0.00    -0.275 N 
HETATM   26  C4  UNL     1      29.943  19.039  -2.790  1.00  0.00     0.215 C 
HETATM   27  N6  UNL     1      29.921  20.317  -3.424  1.00  0.00    -0.065 NA
HETATM   28  N7  UNL     1      29.734  18.956  -1.385  1.00  0.00    -0.065 NA
ATOM     29  H5  UNL     1      30.297  18.093  -4.529  1.00  0.00     0.189 HD
ENDBRANCH  23  25
ENDBRANCH   8  23
ENDBRANCH   7   8
ENDBRANCH   1   7
BRANCH   5  30
HETATM   30  C10 UNL     1      24.792  13.277   0.685  1.00  0.00     0.112 C 
BRANCH  30  31
HETATM   31  S2  UNL     1      23.190  13.420  -0.024  1.00  0.00    -0.161 SA
BRANCH  31  32
HETATM   32  C11 UNL     1      23.091  13.584  -1.776  1.00  0.00     0.106 C 
BRANCH  32  33
HETATM   33  C12 UNL     1      23.325  14.918  -2.386  1.00  0.00     0.058 C 
BRANCH  33  34
HETATM   34  C13 UNL     1      24.570  15.261  -3.033  1.00  0.00     0.256 C 
HETATM   35  O1  UNL     1      24.976  16.429  -3.179  1.00  0.00    -0.268 OA
HETATM   36  N8  UNL     1      25.442  14.246  -3.555  1.00  0.00    -0.153 N 
ATOM     37  H8  UNL     1      26.177  13.894  -2.941  1.00  0.00     0.187 HD
BRANCH  36  38
HETATM   38  C14 UNL     1      25.366  13.753  -4.723  1.00  0.00     0.723 A 
HETATM   39  N9  UNL     1      24.489  13.990  -5.718  1.00  0.00    -0.128 N 
HETATM   40  N10 UNL     1      24.851  13.214  -6.744  1.00  0.00    -0.257 N 
ATOM     41  H9  UNL     1      23.701  14.636  -5.693  1.00  0.00     0.205 HD
HETATM   42  C15 UNL     1      25.942  12.485  -6.429  1.00  0.00     0.245 A 
ATOM     43  H10 UNL     1      24.369  13.177  -7.641  1.00  0.00     0.190 HD
HETATM   44  N11 UNL     1      26.618  11.542  -7.271  1.00  0.00    -0.060 NA
HETATM   45  N12 UNL     1      26.252  12.828  -5.177  1.00  0.00    -0.060 N 
BRANCH  45  46
HETATM   46  N13 UNL     1      27.326  12.319  -4.428  1.00  0.00    -0.322 N 
ATOM     47 2H13 UNL     1      27.583  12.605  -3.483  1.00  0.00     0.178 HD
ATOM     48 1H13 UNL     1      27.971  11.600  -4.756  1.00  0.00     0.178 HD
ENDBRANCH  45  46
ENDBRANCH  36  38
ENDBRANCH  33  34
ENDBRANCH  32  33
ENDBRANCH  31  32
ENDBRANCH  30  31
ENDBRANCH   5  30
TORSDOF 14
ENDMDL
MODEL 2
REMARK VINA RESULT: -5.535247534      4.936      7.355
REMARK  14 active torsions:
REMARK  status: ('A' for Active; 'I' for Inactive)
REMARK    1  A    between atoms: N1_1  and  N2_4 
REMARK    2  A    between atoms: N2_4  and  C1_6 
REMARK    3  A    between atoms: C2_9  and  C3_10 
REMARK    4  A    between atoms: C3_10  and  N4_11 
REMARK    5  A    between atoms: C3_10  and  S1_18 
REMARK    6  A    between atoms: N4_11  and  N5_13 
REMARK       I    between atoms: N5_13  and  C4_15 
REMARK    7  A    between atoms: S1_18  and  C5_19 
REMARK    8  A    between atoms: C9_23  and  C10_24 
REMARK    9  A    between atoms: C10_24  and  S2_25 
REMARK   10  A    between atoms: S2_25  and  C11_26 
REMARK   11  A    between atoms: C11_26  and  C12_27 
REMARK   12  A    between atoms: C12_27  and  C13_28 
REMARK       I    between atoms: C13_28  and  N8_30 
REMARK   13  A    between atoms: N8_30  and  C14_32 
REMARK   14  A    between atoms: N12_39  and  N13_40 
ROOT
HETATM    1  C5  UNL     1      28.167  14.900  -1.387  1.00  0.00     0.007 A 
HETATM    2  C6  UNL     1      27.489  13.759  -0.984  1.00  0.00     0.019 A 
HETATM    3  C7  UNL     1      26.550  13.829   0.020  1.00  0.00     0.002 A 
HETATM    4  C8  UNL     1      26.293  15.067   0.623  1.00  0.00     0.008 A 
HETATM    5  C9  UNL     1      26.929  16.202   0.261  1.00  0.00    -0.048 A 
HETATM    6  C16 UNL     1      27.880  16.082  -0.767  1.00  0.00     0.026 A 
ENDROOT
BRANCH   1   7
HETATM    7  S1  UNL     1      29.373  14.822  -2.690  1.00  0.00    -0.067 SA
BRANCH   7   8
HETATM    8  C3  UNL     1      28.864  15.737  -4.119  1.00  0.00     0.143 C 
BRANCH   8   9
HETATM    9  C2  UNL     1      28.298  15.045  -5.273  1.00  0.00     0.207 A 
HETATM   10  N3  UNL     1      28.462  15.549  -6.529  1.00  0.00    -0.313 N 
HETATM   11  C1  UNL     1      27.929  14.891  -7.587  1.00  0.00     0.193 A 
ATOM     12  H3  UNL     1      28.982  16.415  -6.671  1.00  0.00     0.170 HD
HETATM   13  C17 UNL     1      27.225  13.724  -7.412  1.00  0.00     0.310 A 
HETATM   14  N14 UNL     1      27.092  13.266  -6.136  1.00  0.00    -0.220 N 
HETATM   15  O3  UNL     1      26.718  13.084  -8.347  1.00  0.00    -0.262 OA
HETATM   16  O2  UNL     1      27.623  13.936  -5.171  1.00  0.00    -0.214 OA
ATOM     17  H14 UNL     1      26.580  12.404  -5.947  1.00  0.00     0.198 HD
BRANCH  11  18
HETATM   18  N2  UNL     1      28.062  15.330  -8.785  1.00  0.00    -0.287 N 
ATOM     19  H2  UNL     1      27.478  16.129  -9.033  1.00  0.00     0.188 HD
BRANCH  18  20
HETATM   20  N1  UNL     1      28.885  14.865  -9.771  1.00  0.00    -0.343 N 
ATOM     21  H12 UNL     1      29.072  13.863  -9.733  1.00  0.00     0.176 HD
ATOM     22  H11 UNL     1      29.327  15.391 -10.525  1.00  0.00     0.176 HD
ENDBRANCH  18  20
ENDBRANCH  11  18
ENDBRANCH   8   9
BRANCH   8  23
HETATM   23  N4  UNL     1      29.005  17.018  -4.123  1.00  0.00    -0.288 N 
ATOM     24  H4  UNL     1      28.376  17.568  -4.709  1.00  0.00     0.188 HD
BRANCH  23  25
HETATM   25  N5  UNL     1      29.956  17.693  -3.382  1.00  0.00    -0.275 N 
HETATM   26  C4  UNL     1      29.631  18.735  -2.675  1.00  0.00     0.215 C 
HETATM   27  N6  UNL     1      30.652  19.394  -1.927  1.00  0.00    -0.065 NA
HETATM   28  N7  UNL     1      28.300  19.234  -2.625  1.00  0.00    -0.065 NA
ATOM     29  H5  UNL     1      30.924  17.370  -3.390  1.00  0.00     0.189 HD
ENDBRANCH  23  25
ENDBRANCH   8  23
ENDBRANCH   7   8
ENDBRANCH   1   7
BRANCH   5  30
HETATM   30  C10 UNL     1      26.684  17.536   0.853  1.00  0.00     0.112 C 
BRANCH  30  31
HETATM   31  S2  UNL     1      25.059  17.839   1.451  1.00  0.00    -0.161 SA
BRANCH  31  32
HETATM   32  C11 UNL     1      24.726  17.434   3.134  1.00  0.00     0.106 C 
BRANCH  32  33
HETATM   33  C12 UNL     1      25.866  17.253   4.068  1.00  0.00     0.058 C 
BRANCH  33  34
HETATM   34  C13 UNL     1      25.933  16.150   4.998  1.00  0.00     0.256 C 
HETATM   35  O1  UNL     1      24.941  15.500   5.374  1.00  0.00    -0.268 OA
HETATM   36  N8  UNL     1      27.186  15.721   5.553  1.00  0.00    -0.153 N 
ATOM     37  H8  UNL     1      27.690  14.980   5.066  1.00  0.00     0.187 HD
BRANCH  36  38
HETATM   38  C14 UNL     1      27.714  16.194   6.607  1.00  0.00     0.723 A 
HETATM   39  N9  UNL     1      28.706  17.092   6.762  1.00  0.00    -0.128 N 
HETATM   40  N10 UNL     1      28.883  17.249   8.077  1.00  0.00    -0.257 N 
ATOM     41  H9  UNL     1      29.223  17.561   6.019  1.00  0.00     0.205 HD
HETATM   42  C15 UNL     1      28.025  16.472   8.769  1.00  0.00     0.245 A 
ATOM     43  H10 UNL     1      29.573  17.871   8.499  1.00  0.00     0.190 HD
HETATM   44  N11 UNL     1      27.918  16.370  10.195  1.00  0.00    -0.060 NA
HETATM   45  N12 UNL     1      27.307  15.825   7.850  1.00  0.00    -0.060 N 
BRANCH  45  46
HETATM   46  N13 UNL     1      26.282  14.900   8.110  1.00  0.00    -0.322 N 
ATOM     47 2H13 UNL     1      25.288  15.043   7.928  1.00  0.00     0.178 HD
ATOM     48 1H13 UNL     1      26.427  13.974   8.512  1.00  0.00     0.178 HD
ENDBRANCH  45  46
ENDBRANCH  36  38
ENDBRANCH  33  34
ENDBRANCH  32  33
ENDBRANCH  31  32
ENDBRANCH  30  31
ENDBRANCH   5  30
TORSDOF 14
ENDMDL
MODEL 3
REMARK VINA RESULT: -5.514576365      2.275      6.649
REMARK  14 active torsions:
REMARK  status: ('A' for Active; 'I' for Inactive)
REMARK    1  A    between atoms: N1_1  and  N2_4 
REMARK    2  A    between atoms: N2_4  and  C1_6 
REMARK    3  A    between atoms: C2_9  and  C3_10 
REMARK    4  A    between atoms: C3_10  and  N4_11 
REMARK    5  A    between atoms: C3_10  and  S1_18 
REMARK    6  A    between atoms: N4_11  and  N5_13 
REMARK       I    between atoms: N5_13  and  C4_15 
REMARK    7  A    between atoms: S1_18  and  C5_19 
REMARK    8  A    between atoms: C9_23  and  C10_24 
REMARK    9  A    between atoms: C10_24  and  S2_25 
REMARK   10  A    between atoms: S2_25  and  C11_26 
REMARK   11  A    between atoms: C11_26  and  C12_27 
REMARK   12  A    between atoms: C12_27  and  C13_28 
REMARK       I    between atoms: C13_28  and  N8_30 
REMARK   13  A    between atoms: N8_30  and  C14_32 
REMARK   14  A    between atoms: N12_39  and  N13_40 
ROOT
HETATM    1  C5  UNL     1      24.029  14.050  -3.113  1.00  0.00     0.007 A 
HETATM    2  C6  UNL     1      22.720  13.707  -2.808  1.00  0.00     0.019 A 
HETATM    3  C7  UNL     1      22.317  13.611  -1.495  1.00  0.00     0.002 A 
HETATM    4  C8  UNL     1      23.247  13.864  -0.480  1.00  0.00     0.008 A 
HETATM    5  C9  UNL     1      24.531  14.200  -0.732  1.00  0.00    -0.048 A 
HETATM    6  C16 UNL     1      24.897  14.286  -2.086  1.00  0.00     0.026 A 
ENDROOT
BRANCH   1   7
HETATM    7  S1  UNL     1      24.557  14.189  -4.804  1.00  0.00    -0.067 SA
BRANCH   7   8
HETATM    8  C3  UNL     1      26.179  13.523  -5.049  1.00  0.00     0.143 C 
BRANCH   8   9
HETATM    9  C2  UNL     1      27.344  14.192  -4.476  1.00  0.00     0.207 A 
HETATM   10  N3  UNL     1      28.349  13.465  -3.911  1.00  0.00    -0.313 N 
HETATM   11  C1  UNL     1      29.421  14.106  -3.386  1.00  0.00     0.193 A 
ATOM     12  H3  UNL     1      28.295  12.447  -3.884  1.00  0.00     0.170 HD
HETATM   13  C17 UNL     1      29.509  15.477  -3.414  1.00  0.00     0.310 A 
HETATM   14  N14 UNL     1      28.476  16.153  -3.990  1.00  0.00    -0.220 N 
HETATM   15  O3  UNL     1      30.470  16.111  -2.947  1.00  0.00    -0.262 OA
HETATM   16  O2  UNL     1      27.484  15.487  -4.473  1.00  0.00    -0.214 OA
ATOM     17  H14 UNL     1      28.488  17.172  -4.038  1.00  0.00     0.198 HD
BRANCH  11  18
HETATM   18  N2  UNL     1      30.390  13.460  -2.848  1.00  0.00    -0.287 N 
ATOM     19  H2  UNL     1      30.635  13.737  -1.897  1.00  0.00     0.188 HD
BRANCH  18  20
HETATM   20  N1  UNL     1      31.135  12.448  -3.384  1.00  0.00    -0.343 N 
ATOM     21  H12 UNL     1      30.866  12.176  -4.330  1.00  0.00     0.176 HD
ATOM     22  H11 UNL     1      31.912  11.942  -2.959  1.00  0.00     0.176 HD
ENDBRANCH  18  20
ENDBRANCH  11  18
ENDBRANCH   8   9
BRANCH   8  23
HETATM   23  N4  UNL     1      26.314  12.444  -5.742  1.00  0.00    -0.288 N 
ATOM     24  H4  UNL     1      25.852  11.599  -5.408  1.00  0.00     0.188 HD
BRANCH  23  25
HETATM   25  N5  UNL     1      27.048  12.364  -6.909  1.00  0.00    -0.275 N 
HETATM   26  C4  UNL     1      27.017  11.290  -7.642  1.00  0.00     0.215 C 
HETATM   27  N6  UNL     1      27.793  11.260  -8.839  1.00  0.00    -0.065 NA
HETATM   28  N7  UNL     1      26.238  10.152  -7.288  1.00  0.00    -0.065 NA
ATOM     29  H5  UNL     1      27.622  13.156  -7.200  1.00  0.00     0.189 HD
ENDBRANCH  23  25
ENDBRANCH   8  23
ENDBRANCH   7   8
ENDBRANCH   1   7
BRANCH   5  30
HETATM   30  C10 UNL     1      25.549  14.494   0.302  1.00  0.00     0.112 C 
BRANCH  30  31
HETATM   31  S2  UNL     1      26.111  16.157   0.395  1.00  0.00    -0.161 SA
BRANCH  31  32
HETATM   32  C11 UNL     1      27.601  16.557  -0.457  1.00  0.00     0.106 C 
BRANCH  32  33
HETATM   33  C12 UNL     1      27.715  17.882  -1.120  1.00  0.00     0.058 C 
BRANCH  33  34
HETATM   34  C13 UNL     1      28.750  18.828  -0.778  1.00  0.00     0.256 C 
HETATM   35  O1  UNL     1      28.636  19.686   0.116  1.00  0.00    -0.268 OA
HETATM   36  N8  UNL     1      30.012  18.830  -1.463  1.00  0.00    -0.153 N 
ATOM     37  H8  UNL     1      30.769  18.276  -1.061  1.00  0.00     0.187 HD
BRANCH  36  38
HETATM   38  C14 UNL     1      30.258  19.469  -2.533  1.00  0.00     0.723 A 
HETATM   39  N9  UNL     1      30.083  19.119  -3.822  1.00  0.00    -0.128 N 
HETATM   40  N10 UNL     1      30.498  20.151  -4.562  1.00  0.00    -0.257 N 
ATOM     41  H9  UNL     1      29.706  18.237  -4.167  1.00  0.00     0.205 HD
HETATM   42  C15 UNL     1      30.935  21.157  -3.775  1.00  0.00     0.245 A 
ATOM     43  H10 UNL     1      30.487  20.176  -5.581  1.00  0.00     0.190 HD
HETATM   44  N11 UNL     1      31.455  22.421  -4.207  1.00  0.00    -0.060 NA
HETATM   45  N12 UNL     1      30.781  20.724  -2.523  1.00  0.00    -0.060 N 
BRANCH  45  46
HETATM   46  N13 UNL     1      31.104  21.442  -1.359  1.00  0.00    -0.322 N 
ATOM     47 2H13 UNL     1      30.441  21.916  -0.746  1.00  0.00     0.178 HD
ATOM     48 1H13 UNL     1      32.051  21.565  -1.001  1.00  0.00     0.178 HD
ENDBRANCH  45  46
ENDBRANCH  36  38
ENDBRANCH  33  34
ENDBRANCH  32  33
ENDBRANCH  31  32
ENDBRANCH  30  31
ENDBRANCH   5  30
TORSDOF 14
ENDMDL
MODEL 4
REMARK VINA RESULT: -5.442597286      3.222      7.114
REMARK  14 active torsions:
REMARK  status: ('A' for Active; 'I' for Inactive)
REMARK    1  A    between atoms: N1_1  and  N2_4 
REMARK    2  A    between atoms: N2_4  and  C1_6 
REMARK    3  A    between atoms: C2_9  and  C3_10 
REMARK    4  A    between atoms: C3_10  and  N4_11 
REMARK    5  A    between atoms: C3_10  and  S1_18 
REMARK    6  A    between atoms: N4_11  and  N5_13 
REMARK       I    between atoms: N5_13  and  C4_15 
REMARK    7  A    between atoms: S1_18  and  C5_19 
REMARK    8  A    between atoms: C9_23  and  C10_24 
REMARK    9  A    between atoms: C10_24  and  S2_25 
REMARK   10  A    between atoms: S2_25  and  C11_26 
REMARK   11  A    between atoms: C11_26  and  C12_27 
REMARK   12  A    between atoms: C12_27  and  C13_28 
REMARK       I    between atoms: C13_28  and  N8_30 
REMARK   13  A    between atoms: N8_30  and  C14_32 
REMARK   14  A    between atoms: N12_39  and  N13_40 
ROOT
HETATM    1  C5  UNL     1      28.109  14.771  -1.231  1.00  0.00     0.007 A 
HETATM    2  C6  UNL     1      27.346  13.681  -0.840  1.00  0.00     0.019 A 
HETATM    3  C7  UNL     1      26.354  13.832   0.104  1.00  0.00     0.002 A 
HETATM    4  C8  UNL     1      26.131  15.099   0.656  1.00  0.00     0.008 A 
HETATM    5  C9  UNL     1      26.851  16.187   0.304  1.00  0.00    -0.048 A 
HETATM    6  C16 UNL     1      27.852  15.984  -0.661  1.00  0.00     0.026 A 
ENDROOT
BRANCH   1   7
HETATM    7  S1  UNL     1      29.383  14.589  -2.456  1.00  0.00    -0.067 SA
BRANCH   7   8
HETATM    8  C3  UNL     1      29.362  15.908  -3.636  1.00  0.00     0.143 C 
BRANCH   8   9
HETATM    9  C2  UNL     1      28.653  15.753  -4.903  1.00  0.00     0.207 A 
HETATM   10  N3  UNL     1      29.038  14.799  -5.797  1.00  0.00    -0.313 N 
HETATM   11  C1  UNL     1      28.365  14.672  -6.967  1.00  0.00     0.193 A 
ATOM     12  H3  UNL     1      29.826  14.187  -5.588  1.00  0.00     0.170 HD
HETATM   13  C17 UNL     1      27.302  15.490  -7.264  1.00  0.00     0.310 A 
HETATM   14  N14 UNL     1      26.960  16.425  -6.334  1.00  0.00    -0.220 N 
HETATM   15  O3  UNL     1      26.654  15.413  -8.320  1.00  0.00    -0.262 OA
HETATM   16  O2  UNL     1      27.638  16.497  -5.240  1.00  0.00    -0.214 OA
ATOM     17  H14 UNL     1      26.179  17.059  -6.502  1.00  0.00     0.198 HD
BRANCH  11  18
HETATM   18  N2  UNL     1      28.694  13.786  -7.835  1.00  0.00    -0.287 N 
ATOM     19  H2  UNL     1      29.571  13.952  -8.328  1.00  0.00     0.188 HD
BRANCH  18  20
HETATM   20  N1  UNL     1      28.020  12.650  -8.183  1.00  0.00    -0.343 N 
ATOM     21  H12 UNL     1      28.235  11.834  -7.610  1.00  0.00     0.176 HD
ATOM     22  H11 UNL     1      27.341  12.523  -8.934  1.00  0.00     0.176 HD
ENDBRANCH  18  20
ENDBRANCH  11  18
ENDBRANCH   8   9
BRANCH   8  23
HETATM   23  N4  UNL     1      29.983  17.004  -3.360  1.00  0.00    -0.288 N 
ATOM     24  H4  UNL     1      30.854  16.942  -2.833  1.00  0.00     0.188 HD
BRANCH  23  25
HETATM   25  N5  UNL     1      29.540  18.257  -3.735  1.00  0.00    -0.275 N 
HETATM   26  C4  UNL     1      29.843  19.308  -3.031  1.00  0.00     0.215 C 
HETATM   27  N6  UNL     1      29.361  20.579  -3.464  1.00  0.00    -0.065 NA
HETATM   28  N7  UNL     1      30.635  19.229  -1.852  1.00  0.00    -0.065 NA
ATOM     29  H5  UNL     1      28.968  18.360  -4.574  1.00  0.00     0.189 HD
ENDBRANCH  23  25
ENDBRANCH   8  23
ENDBRANCH   7   8
ENDBRANCH   1   7
BRANCH   5  30
HETATM   30  C10 UNL     1      26.646  17.550   0.844  1.00  0.00     0.112 C 
BRANCH  30  31
HETATM   31  S2  UNL     1      27.443  18.859  -0.016  1.00  0.00    -0.161 SA
BRANCH  31  32
HETATM   32  C11 UNL     1      27.885  20.289   0.916  1.00  0.00     0.106 C 
BRANCH  32  33
HETATM   33  C12 UNL     1      28.617  21.389   0.238  1.00  0.00     0.058 C 
BRANCH  33  34
HETATM   34  C13 UNL     1      29.827  21.960   0.782  1.00  0.00     0.256 C 
HETATM   35  O1  UNL     1      29.871  22.613   1.840  1.00  0.00    -0.268 OA
HETATM   36  N8  UNL     1      31.090  21.794   0.118  1.00  0.00    -0.153 N 
ATOM     37  H8  UNL     1      31.668  21.000   0.394  1.00  0.00     0.187 HD
BRANCH  36  38
HETATM   38  C14 UNL     1      31.541  22.563  -0.787  1.00  0.00     0.723 A 
HETATM   39  N9  UNL     1      31.491  22.459  -2.129  1.00  0.00    -0.128 N 
HETATM   40  N10 UNL     1      32.114  23.533  -2.623  1.00  0.00    -0.257 N 
ATOM     41  H9  UNL     1      31.059  21.707  -2.666  1.00  0.00     0.205 HD
HETATM   42  C15 UNL     1      32.563  24.323  -1.626  1.00  0.00     0.245 A 
ATOM     43  H10 UNL     1      32.234  23.728  -3.617  1.00  0.00     0.190 HD
HETATM   44  N11 UNL     1      33.279  25.558  -1.765  1.00  0.00    -0.060 NA
HETATM   45  N12 UNL     1      32.203  23.714  -0.496  1.00  0.00    -0.060 N 
BRANCH  45  46
HETATM   46  N13 UNL     1      32.460  24.177   0.806  1.00  0.00    -0.322 N 
ATOM     47 2H13 UNL     1      31.770  24.274   1.551  1.00  0.00     0.178 HD
ATOM     48 1H13 UNL     1      33.376  24.467   1.146  1.00  0.00     0.178 HD
ENDBRANCH  45  46
ENDBRANCH  36  38
ENDBRANCH  33  34
ENDBRANCH  32  33
ENDBRANCH  31  32
ENDBRANCH  30  31
ENDBRANCH   5  30
TORSDOF 14
ENDMDL
MODEL 5
REMARK VINA RESULT: -5.302381292      4.715      7.490
REMARK  14 active torsions:
REMARK  status: ('A' for Active; 'I' for Inactive)
REMARK    1  A    between atoms: N1_1  and  N2_4 
REMARK    2  A    between atoms: N2_4  and  C1_6 
REMARK    3  A    between atoms: C2_9  and  C3_10 
REMARK    4  A    between atoms: C3_10  and  N4_11 
REMARK    5  A    between atoms: C3_10  and  S1_18 
REMARK    6  A    between atoms: N4_11  and  N5_13 
REMARK       I    between atoms: N5_13  and  C4_15 
REMARK    7  A    between atoms: S1_18  and  C5_19 
REMARK    8  A    between atoms: C9_23  and  C10_24 
REMARK    9  A    between atoms: C10_24  and  S2_25 
REMARK   10  A    between atoms: S2_25  and  C11_26 
REMARK   11  A    between atoms: C11_26  and  C12_27 
REMARK   12  A    between atoms: C12_27  and  C13_28 
REMARK       I    between atoms: C13_28  and  N8_30 
REMARK   13  A    between atoms: N8_30  and  C14_32 
REMARK   14  A    between atoms: N12_39  and  N13_40 
ROOT
HETATM    1  C5  UNL     1      29.353  16.977  -1.871  1.00  0.00     0.007 A 
HETATM    2  C6  UNL     1      29.923  18.144  -2.359  1.00  0.00     0.019 A 
HETATM    3  C7  UNL     1      29.562  19.364  -1.833  1.00  0.00     0.002 A 
HETATM    4  C8  UNL     1      28.615  19.406  -0.803  1.00  0.00     0.008 A 
HETATM    5  C9  UNL     1      28.035  18.295  -0.299  1.00  0.00    -0.048 A 
HETATM    6  C16 UNL     1      28.433  17.073  -0.866  1.00  0.00     0.026 A 
ENDROOT
BRANCH   1   7
HETATM    7  S1  UNL     1      29.820  15.396  -2.534  1.00  0.00    -0.067 SA
BRANCH   7   8
HETATM    8  C3  UNL     1      28.485  14.619  -3.398  1.00  0.00     0.143 C 
BRANCH   8   9
HETATM    9  C2  UNL     1      28.113  15.070  -4.736  1.00  0.00     0.207 A 
HETATM   10  N3  UNL     1      28.493  14.359  -5.835  1.00  0.00    -0.313 N 
HETATM   11  C1  UNL     1      28.136  14.795  -7.068  1.00  0.00     0.193 A 
ATOM     12  H3  UNL     1      29.042  13.506  -5.731  1.00  0.00     0.170 HD
HETATM   13  C17 UNL     1      27.397  15.943  -7.225  1.00  0.00     0.310 A 
HETATM   14  N14 UNL     1      27.044  16.614  -6.093  1.00  0.00    -0.220 N 
HETATM   15  O3  UNL     1      27.045  16.383  -8.332  1.00  0.00    -0.262 OA
HETATM   16  O2  UNL     1      27.414  16.148  -4.949  1.00  0.00    -0.214 OA
ATOM     17  H14 UNL     1      26.496  17.472  -6.151  1.00  0.00     0.198 HD
BRANCH  11  18
HETATM   18  N2  UNL     1      28.471  14.155  -8.128  1.00  0.00    -0.287 N 
ATOM     19  H2  UNL     1      28.287  13.152  -8.119  1.00  0.00     0.188 HD
BRANCH  18  20
HETATM   20  N1  UNL     1      29.044  14.645  -9.267  1.00  0.00    -0.343 N 
ATOM     21  H12 UNL     1      28.389  14.834 -10.026  1.00  0.00     0.176 HD
ATOM     22  H11 UNL     1      30.030  14.839  -9.446  1.00  0.00     0.176 HD
ENDBRANCH  18  20
ENDBRANCH  11  18
ENDBRANCH   8   9
BRANCH   8  23
HETATM   23  N4  UNL     1      27.848  13.655  -2.828  1.00  0.00    -0.288 N 
ATOM     24  H4  UNL     1      27.368  12.979  -3.422  1.00  0.00     0.188 HD
BRANCH  23  25
HETATM   25  N5  UNL     1      27.776  13.481  -1.459  1.00  0.00    -0.275 N 
HETATM   26  C4  UNL     1      26.681  13.753  -0.811  1.00  0.00     0.215 C 
HETATM   27  N6  UNL     1      26.660  13.555   0.601  1.00  0.00    -0.065 NA
HETATM   28  N7  UNL     1      25.514  14.239  -1.463  1.00  0.00    -0.065 NA
ATOM     29  H5  UNL     1      28.590  13.136  -0.951  1.00  0.00     0.189 HD
ENDBRANCH  23  25
ENDBRANCH   8  23
ENDBRANCH   7   8
ENDBRANCH   1   7
BRANCH   5  30
HETATM   30  C10 UNL     1      27.042  18.282   0.799  1.00  0.00     0.112 C 
BRANCH  30  31
HETATM   31  S2  UNL     1      25.696  17.166   0.622  1.00  0.00    -0.161 SA
BRANCH  31  32
HETATM   32  C11 UNL     1      25.010  16.483   2.096  1.00  0.00     0.106 C 
BRANCH  32  33
HETATM   33  C12 UNL     1      25.850  16.428   3.320  1.00  0.00     0.058 C 
BRANCH  33  34
HETATM   34  C13 UNL     1      25.633  17.310   4.443  1.00  0.00     0.256 C 
HETATM   35  O1  UNL     1      25.263  18.493   4.334  1.00  0.00    -0.268 OA
HETATM   36  N8  UNL     1      25.829  16.857   5.792  1.00  0.00    -0.153 N 
ATOM     37  H8  UNL     1      25.020  16.480   6.286  1.00  0.00     0.187 HD
BRANCH  36  38
HETATM   38  C14 UNL     1      26.934  16.892   6.417  1.00  0.00     0.723 A 
HETATM   39  N9  UNL     1      28.003  17.697   6.260  1.00  0.00    -0.128 N 
HETATM   40  N10 UNL     1      28.906  17.322   7.171  1.00  0.00    -0.257 N 
ATOM     41  H9  UNL     1      28.104  18.448   5.578  1.00  0.00     0.205 HD
HETATM   42  C15 UNL     1      28.438  16.294   7.909  1.00  0.00     0.245 A 
ATOM     43  H10 UNL     1      29.822  17.753   7.292  1.00  0.00     0.190 HD
HETATM   44  N11 UNL     1      29.120  15.624   8.978  1.00  0.00    -0.060 NA
HETATM   45  N12 UNL     1      27.219  16.037   7.434  1.00  0.00    -0.060 N 
BRANCH  45  46
HETATM   46  N13 UNL     1      26.347  15.040   7.903  1.00  0.00    -0.322 N 
ATOM     47 2H13 UNL     1      26.101  14.872   8.878  1.00  0.00     0.178 HD
ATOM     48 1H13 UNL     1      25.862  14.370   7.306  1.00  0.00     0.178 HD
ENDBRANCH  45  46
ENDBRANCH  36  38
ENDBRANCH  33  34
ENDBRANCH  32  33
ENDBRANCH  31  32
ENDBRANCH  30  31
ENDBRANCH   5  30
TORSDOF 14
ENDMDL
