MODEL 1
REMARK VINA RESULT: -7.049932612      0.000      0.000
REMARK  2 active torsions:
REMARK  status: ('A' for Active; 'I' for Inactive)
REMARK    1  A    between atoms: N1_1  and  N2_4 
REMARK       I    between atoms: N2_4  and  C1_6 
REMARK       I    between atoms: C1_6  and  N3_8 
REMARK    2  A    between atoms: N3_8  and  C2_10 
ROOT
HETATM    1  C2  UNL     1       2.420 -17.781  20.689  1.00  0.00     0.693 C 
HETATM    2  N4  UNL     1       1.805 -17.410  21.823  1.00  0.00    -0.141 N 
ATOM      3  H4  UNL     1       2.124 -17.910  22.652  1.00  0.00     0.189 HD
HETATM    4  C3  UNL     1       0.846 -16.501  22.066  1.00  0.00     0.341 C 
HETATM    5  O2  UNL     1       0.453 -16.347  23.252  1.00  0.00    -0.246 OA
HETATM    6  N5  UNL     1       0.240 -15.712  21.156  1.00  0.00    -0.270 N 
ATOM      7  H5  UNL     1      -0.631 -15.278  21.460  1.00  0.00     0.174 HD
HETATM    8  C4  UNL     1       0.628 -15.420  19.904  1.00  0.00     0.318 C 
HETATM    9  O3  UNL     1       0.037 -14.508  19.275  1.00  0.00    -0.262 OA
HETATM   10  C5  UNL     1       1.642 -16.021  19.183  1.00  0.00     0.328 C 
HETATM   11  O4  UNL     1       1.846 -15.594  18.027  1.00  0.00    -0.261 OA
HETATM   12  N6  UNL     1       2.473 -17.037  19.557  1.00  0.00    -0.151 N 
ATOM     13  H6  UNL     1       3.225 -17.264  18.906  1.00  0.00     0.188 HD
ENDROOT
BRANCH   1  14
HETATM   14  N3  UNL     1       3.014 -18.891  20.596  1.00  0.00    -0.140 N 
HETATM   15  C1  UNL     1       3.489 -19.690  21.652  1.00  0.00     0.352 C 
HETATM   16  N2  UNL     1       4.848 -20.082  21.666  1.00  0.00    -0.258 N 
HETATM   17  O1  UNL     1       2.739 -20.065  22.582  1.00  0.00    -0.245 OA
ATOM     18  H2  UNL     1       5.480 -19.789  20.920  1.00  0.00     0.191 HD
ATOM     19  H3  UNL     1       3.166 -19.246  19.653  1.00  0.00     0.189 HD
BRANCH  16  20
HETATM   20  N1  UNL     1       5.309 -20.872  22.714  1.00  0.00    -0.341 N 
ATOM     21  H12 UNL     1       5.770 -20.433  23.511  1.00  0.00     0.177 HD
ATOM     22  H11 UNL     1       5.176 -21.882  22.665  1.00  0.00     0.177 HD
ENDBRANCH  16  20
ENDBRANCH   1  14
TORSDOF 2
ENDMDL
MODEL 2
REMARK VINA RESULT: -6.753993138      2.070      2.523
REMARK  2 active torsions:
REMARK  status: ('A' for Active; 'I' for Inactive)
REMARK    1  A    between atoms: N1_1  and  N2_4 
REMARK       I    between atoms: N2_4  and  C1_6 
REMARK       I    between atoms: C1_6  and  N3_8 
REMARK    2  A    between atoms: N3_8  and  C2_10 
ROOT
HETATM    1  C2  UNL     1       2.218 -18.133  20.424  1.00  0.00     0.693 C 
HETATM    2  N4  UNL     1       1.700 -17.665  21.570  1.00  0.00    -0.141 N 
ATOM      3  H4  UNL     1       1.754 -18.320  22.349  1.00  0.00     0.189 HD
HETATM    4  C3  UNL     1       1.124 -16.491  21.879  1.00  0.00     0.341 C 
HETATM    5  O2  UNL     1       0.730 -16.311  23.060  1.00  0.00    -0.246 OA
HETATM    6  N5  UNL     1       0.916 -15.455  21.041  1.00  0.00    -0.270 N 
ATOM      7  H5  UNL     1       0.243 -14.759  21.361  1.00  0.00     0.174 HD
HETATM    8  C4  UNL     1       1.473 -15.217  19.843  1.00  0.00     0.318 C 
HETATM    9  O3  UNL     1       1.303 -14.097  19.299  1.00  0.00    -0.262 OA
HETATM   10  C5  UNL     1       2.248 -16.083  19.096  1.00  0.00     0.328 C 
HETATM   11  O4  UNL     1       2.677 -15.660  18.002  1.00  0.00    -0.261 OA
HETATM   12  N6  UNL     1       2.621 -17.364  19.383  1.00  0.00    -0.151 N 
ATOM     13  H6  UNL     1       3.283 -17.794  18.737  1.00  0.00     0.188 HD
ENDROOT
BRANCH   1  14
HETATM   14  N3  UNL     1       2.371 -19.371  20.229  1.00  0.00    -0.140 N 
HETATM   15  C1  UNL     1       1.596 -20.201  19.399  1.00  0.00     0.352 C 
HETATM   16  N2  UNL     1       1.002 -21.364  19.943  1.00  0.00    -0.258 N 
HETATM   17  O1  UNL     1       1.418 -19.938  18.187  1.00  0.00    -0.245 OA
ATOM     18  H2  UNL     1       1.132 -21.601  20.926  1.00  0.00     0.191 HD
ATOM     19  H3  UNL     1       3.141 -19.818  20.726  1.00  0.00     0.189 HD
BRANCH  16  20
HETATM   20  N1  UNL     1       0.237 -22.179  19.114  1.00  0.00    -0.341 N 
ATOM     21  H12 UNL     1       0.675 -22.637  18.315  1.00  0.00     0.177 HD
ATOM     22  H11 UNL     1      -0.754 -22.301  19.322  1.00  0.00     0.177 HD
ENDBRANCH  16  20
ENDBRANCH   1  14
TORSDOF 2
ENDMDL
MODEL 3
REMARK VINA RESULT: -6.643699198      1.666      2.743
REMARK  2 active torsions:
REMARK  status: ('A' for Active; 'I' for Inactive)
REMARK    1  A    between atoms: N1_1  and  N2_4 
REMARK       I    between atoms: N2_4  and  C1_6 
REMARK       I    between atoms: C1_6  and  N3_8 
REMARK    2  A    between atoms: N3_8  and  C2_10 
ROOT
HETATM    1  C2  UNL     1       2.171 -17.191  20.898  1.00  0.00     0.693 C 
HETATM    2  N4  UNL     1       2.933 -16.893  19.835  1.00  0.00    -0.141 N 
ATOM      3  H4  UNL     1       3.757 -17.485  19.735  1.00  0.00     0.189 HD
HETATM    4  C3  UNL     1       2.810 -15.958  18.878  1.00  0.00     0.341 C 
HETATM    5  O2  UNL     1       3.684 -15.909  17.974  1.00  0.00    -0.246 OA
HETATM    6  N5  UNL     1       1.827 -15.041  18.775  1.00  0.00    -0.270 N 
ATOM      7  H5  UNL     1       2.022 -14.254  18.156  1.00  0.00     0.174 HD
HETATM    8  C4  UNL     1       0.627 -15.022  19.377  1.00  0.00     0.318 C 
HETATM    9  O3  UNL     1      -0.234 -14.187  19.004  1.00  0.00    -0.262 OA
HETATM   10  C5  UNL     1       0.195 -15.842  20.402  1.00  0.00     0.328 C 
HETATM   11  O4  UNL     1      -0.969 -15.662  20.820  1.00  0.00    -0.261 OA
HETATM   12  N6  UNL     1       0.868 -16.843  21.041  1.00  0.00    -0.151 N 
ATOM     13  H6  UNL     1       0.326 -17.395  21.706  1.00  0.00     0.188 HD
ENDROOT
BRANCH   1  14
HETATM   14  N3  UNL     1       2.631 -17.841  21.877  1.00  0.00    -0.140 N 
HETATM   15  C1  UNL     1       3.018 -19.194  21.890  1.00  0.00     0.352 C 
HETATM   16  N2  UNL     1       2.449 -20.068  22.845  1.00  0.00    -0.258 N 
HETATM   17  O1  UNL     1       3.856 -19.647  21.076  1.00  0.00    -0.245 OA
ATOM     18  H2  UNL     1       1.764 -19.724  23.520  1.00  0.00     0.191 HD
ATOM     19  H3  UNL     1       2.735 -17.331  22.754  1.00  0.00     0.189 HD
BRANCH  16  20
HETATM   20  N1  UNL     1       2.837 -21.404  22.850  1.00  0.00    -0.341 N 
ATOM     21  H12 UNL     1       3.013 -21.880  21.965  1.00  0.00     0.177 HD
ATOM     22  H11 UNL     1       2.940 -21.884  23.744  1.00  0.00     0.177 HD
ENDBRANCH  16  20
ENDBRANCH   1  14
TORSDOF 2
ENDMDL
MODEL 4
REMARK VINA RESULT: -6.524755426      2.216      2.775
REMARK  2 active torsions:
REMARK  status: ('A' for Active; 'I' for Inactive)
REMARK    1  A    between atoms: N1_1  and  N2_4 
REMARK       I    between atoms: N2_4  and  C1_6 
REMARK       I    between atoms: C1_6  and  N3_8 
REMARK    2  A    between atoms: N3_8  and  C2_10 
ROOT
HETATM    1  C2  UNL     1       1.668 -18.131  20.203  1.00  0.00     0.693 C 
HETATM    2  N4  UNL     1       1.312 -17.655  21.406  1.00  0.00    -0.141 N 
ATOM      3  H4  UNL     1       1.278 -18.362  22.140  1.00  0.00     0.189 HD
HETATM    4  C3  UNL     1       0.990 -16.418  21.821  1.00  0.00     0.341 C 
HETATM    5  O2  UNL     1       0.700 -16.251  23.034  1.00  0.00    -0.246 OA
HETATM    6  N5  UNL     1       0.941 -15.305  21.061  1.00  0.00    -0.270 N 
ATOM      7  H5  UNL     1       0.433 -14.519  21.465  1.00  0.00     0.174 HD
HETATM    8  C4  UNL     1       1.470 -15.092  19.846  1.00  0.00     0.318 C 
HETATM    9  O3  UNL     1       1.491 -13.925  19.382  1.00  0.00    -0.262 OA
HETATM   10  C5  UNL     1       2.023 -16.034  19.000  1.00  0.00     0.328 C 
HETATM   11  O4  UNL     1       2.468 -15.623  17.907  1.00  0.00    -0.261 OA
HETATM   12  N6  UNL     1       2.157 -17.380  19.185  1.00  0.00    -0.151 N 
ATOM     13  H6  UNL     1       2.690 -17.880  18.473  1.00  0.00     0.188 HD
ENDROOT
BRANCH   1  14
HETATM   14  N3  UNL     1       1.570 -19.358  19.925  1.00  0.00    -0.140 N 
HETATM   15  C1  UNL     1       2.000 -19.998  18.748  1.00  0.00     0.352 C 
HETATM   16  N2  UNL     1       1.077 -20.767  18.001  1.00  0.00    -0.258 N 
HETATM   17  O1  UNL     1       3.182 -19.907  18.343  1.00  0.00    -0.245 OA
ATOM     18  H2  UNL     1       0.109 -20.857  18.309  1.00  0.00     0.191 HD
ATOM     19  H3  UNL     1       1.132 -19.950  20.630  1.00  0.00     0.189 HD
BRANCH  16  20
HETATM   20  N1  UNL     1       1.512 -21.396  16.839  1.00  0.00    -0.341 N 
ATOM     21  H12 UNL     1       2.439 -21.820  16.812  1.00  0.00     0.177 HD
ATOM     22  H11 UNL     1       0.890 -21.420  16.030  1.00  0.00     0.177 HD
ENDBRANCH  16  20
ENDBRANCH   1  14
TORSDOF 2
ENDMDL
MODEL 5
REMARK VINA RESULT: -6.441343135      1.209      2.716
REMARK  2 active torsions:
REMARK  status: ('A' for Active; 'I' for Inactive)
REMARK    1  A    between atoms: N1_1  and  N2_4 
REMARK       I    between atoms: N2_4  and  C1_6 
REMARK       I    between atoms: C1_6  and  N3_8 
REMARK    2  A    between atoms: N3_8  and  C2_10 
ROOT
HETATM    1  C2  UNL     1       2.677 -17.743  20.770  1.00  0.00     0.693 C 
HETATM    2  N4  UNL     1       2.712 -17.109  19.587  1.00  0.00    -0.141 N 
ATOM      3  H4  UNL     1       3.220 -17.613  18.860  1.00  0.00     0.189 HD
HETATM    4  C3  UNL     1       2.202 -15.934  19.184  1.00  0.00     0.341 C 
HETATM    5  O2  UNL     1       2.380 -15.582  17.990  1.00  0.00    -0.246 OA
HETATM    6  N5  UNL     1       1.499 -15.064  19.939  1.00  0.00    -0.270 N 
ATOM      7  H5  UNL     1       1.416 -14.121  19.561  1.00  0.00     0.174 HD
HETATM    8  C4  UNL     1       0.895 -15.272  21.120  1.00  0.00     0.318 C 
HETATM    9  O3  UNL     1       0.120 -14.395  21.575  1.00  0.00    -0.262 OA
HETATM   10  C5  UNL     1       1.020 -16.379  21.937  1.00  0.00     0.328 C 
HETATM   11  O4  UNL     1       0.363 -16.376  23.000  1.00  0.00    -0.261 OA
HETATM   12  N6  UNL     1       1.774 -17.501  21.752  1.00  0.00    -0.151 N 
ATOM     13  H6  UNL     1       1.643 -18.248  22.435  1.00  0.00     0.188 HD
ENDROOT
BRANCH   1  14
HETATM   14  N3  UNL     1       3.514 -18.642  21.060  1.00  0.00    -0.140 N 
HETATM   15  C1  UNL     1       3.236 -19.954  21.485  1.00  0.00     0.352 C 
HETATM   16  N2  UNL     1       3.795 -20.423  22.696  1.00  0.00    -0.258 N 
HETATM   17  O1  UNL     1       2.505 -20.721  20.816  1.00  0.00    -0.245 OA
ATOM     18  H2  UNL     1       4.394 -19.818  23.259  1.00  0.00     0.191 HD
ATOM     19  H3  UNL     1       4.498 -18.390  20.978  1.00  0.00     0.189 HD
BRANCH  16  20
HETATM   20  N1  UNL     1       3.514 -21.722  23.108  1.00  0.00    -0.341 N 
ATOM     21  H12 UNL     1       3.126 -22.388  22.440  1.00  0.00     0.177 HD
ATOM     22  H11 UNL     1       3.702 -21.984  24.076  1.00  0.00     0.177 HD
ENDBRANCH  16  20
ENDBRANCH   1  14
TORSDOF 2
ENDMDL
