MODEL 1
REMARK VINA RESULT: -6.399191268      0.000      0.000
REMARK  2 active torsions:
REMARK  status: ('A' for Active; 'I' for Inactive)
REMARK    1  A    between atoms: N3_4  and  C2_6 
REMARK    2  A    between atoms: C2_6  and  N4_7 
ROOT
HETATM    1  C2  UNL     1       2.112 -17.529  20.823  1.00  0.00     0.360 C 
HETATM    2  N5  UNL     1       3.028 -16.862  19.941  1.00  0.00    -0.285 N 
ATOM      3  H5  UNL     1       4.013 -17.075  20.091  1.00  0.00     0.169 HD
HETATM    4  C3  UNL     1       2.753 -15.944  18.887  1.00  0.00     0.327 C 
HETATM    5  O1  UNL     1       3.576 -15.879  17.924  1.00  0.00    -0.247 OA
HETATM    6  N6  UNL     1       1.607 -15.072  18.815  1.00  0.00    -0.261 N 
ATOM      7  H6  UNL     1       1.503 -14.566  17.936  1.00  0.00     0.175 HD
HETATM    8  C4  UNL     1       0.597 -14.812  19.783  1.00  0.00     0.330 C 
HETATM    9  O2  UNL     1      -0.363 -14.064  19.482  1.00  0.00    -0.246 OA
HETATM   10  N7  UNL     1       0.602 -15.357  21.112  1.00  0.00    -0.274 N 
ATOM     11  H7  UNL     1       0.094 -14.826  21.819  1.00  0.00     0.173 HD
HETATM   12  C5  UNL     1       1.234 -16.556  21.556  1.00  0.00     0.304 C 
HETATM   13  O3  UNL     1       1.001 -16.820  22.762  1.00  0.00    -0.266 OA
ENDROOT
BRANCH   1  14
HETATM   14  N3  UNL     1       2.880 -18.288  21.784  1.00  0.00    -0.309 N 
HETATM   15  C1  UNL     1       3.461 -19.371  21.384  1.00  0.00     0.200 C 
HETATM   16  N1  UNL     1       4.238 -20.183  22.263  1.00  0.00    -0.067 NA
HETATM   17  N2  UNL     1       3.367 -19.835  20.028  1.00  0.00    -0.067 NA
ATOM     18  H3  UNL     1       2.960 -17.977  22.752  1.00  0.00     0.166 HD
ENDBRANCH   1  14
BRANCH   1  19
HETATM   19  N4  UNL     1       1.249 -18.477  20.121  1.00  0.00    -0.024 N 
ATOM     20  H43 UNL     1       1.731 -18.985  19.380  1.00  0.00     0.280 HD
ATOM     21  H42 UNL     1       0.996 -19.285  20.690  1.00  0.00     0.280 HD
ATOM     22  H41 UNL     1       0.441 -17.953  19.787  1.00  0.00     0.280 HD
ENDBRANCH   1  19
TORSDOF 2
ENDMDL
MODEL 2
REMARK VINA RESULT: -6.057842637      1.434      2.923
REMARK  2 active torsions:
REMARK  status: ('A' for Active; 'I' for Inactive)
REMARK    1  A    between atoms: N3_4  and  C2_6 
REMARK    2  A    between atoms: C2_6  and  N4_7 
ROOT
HETATM    1  C2  UNL     1       2.331 -18.052  20.830  1.00  0.00     0.360 C 
HETATM    2  N5  UNL     1       1.356 -17.640  21.800  1.00  0.00    -0.285 N 
ATOM      3  H5  UNL     1       0.928 -18.393  22.337  1.00  0.00     0.169 HD
HETATM    4  C3  UNL     1       0.902 -16.328  22.117  1.00  0.00     0.327 C 
HETATM    5  O1  UNL     1       0.472 -16.113  23.291  1.00  0.00    -0.247 OA
HETATM    6  N6  UNL     1       0.889 -15.206  21.210  1.00  0.00    -0.261 N 
ATOM      7  H6  UNL     1       0.643 -14.312  21.633  1.00  0.00     0.175 HD
HETATM    8  C4  UNL     1       1.168 -15.157  19.816  1.00  0.00     0.330 C 
HETATM    9  O2  UNL     1       1.170 -14.049  19.230  1.00  0.00    -0.246 OA
HETATM   10  N7  UNL     1       1.453 -16.315  19.015  1.00  0.00    -0.274 N 
ATOM     11  H7  UNL     1       1.249 -16.235  18.019  1.00  0.00     0.173 HD
HETATM   12  C5  UNL     1       1.989 -17.562  19.452  1.00  0.00     0.304 C 
HETATM   13  O3  UNL     1       2.203 -18.365  18.510  1.00  0.00    -0.266 OA
ENDROOT
BRANCH   1  14
HETATM   14  N3  UNL     1       2.378 -19.496  20.819  1.00  0.00    -0.309 N 
HETATM   15  C1  UNL     1       2.733 -20.105  21.903  1.00  0.00     0.200 C 
HETATM   16  N1  UNL     1       2.807 -21.527  21.983  1.00  0.00    -0.067 NA
HETATM   17  N2  UNL     1       3.077 -19.395  23.103  1.00  0.00    -0.067 NA
ATOM     18  H3  UNL     1       2.138 -20.021  19.978  1.00  0.00     0.166 HD
ENDBRANCH   1  14
BRANCH   1  19
HETATM   19  N4  UNL     1       3.676 -17.583  21.155  1.00  0.00    -0.024 N 
ATOM     20  H43 UNL     1       3.689 -16.889  21.902  1.00  0.00     0.280 HD
ATOM     21  H42 UNL     1       4.244 -18.289  21.624  1.00  0.00     0.280 HD
ATOM     22  H41 UNL     1       4.092 -17.245  20.288  1.00  0.00     0.280 HD
ENDBRANCH   1  19
TORSDOF 2
ENDMDL
MODEL 3
REMARK VINA RESULT: -5.902315576      2.260      4.758
REMARK  2 active torsions:
REMARK  status: ('A' for Active; 'I' for Inactive)
REMARK    1  A    between atoms: N3_4  and  C2_6 
REMARK    2  A    between atoms: C2_6  and  N4_7 
ROOT
HETATM    1  C2  UNL     1       1.794 -17.397  20.313  1.00  0.00     0.360 C 
HETATM    2  N5  UNL     1       1.199 -18.500  19.615  1.00  0.00    -0.285 N 
ATOM      3  H5  UNL     1       0.197 -18.420  19.442  1.00  0.00     0.169 HD
HETATM    4  C3  UNL     1       1.809 -19.692  19.128  1.00  0.00     0.327 C 
HETATM    5  O1  UNL     1       1.284 -20.265  18.127  1.00  0.00    -0.247 OA
HETATM    6  N6  UNL     1       2.990 -20.311  19.680  1.00  0.00    -0.261 N 
ATOM      7  H6  UNL     1       3.361 -21.092  19.139  1.00  0.00     0.175 HD
HETATM    8  C4  UNL     1       3.715 -19.998  20.863  1.00  0.00     0.330 C 
HETATM    9  O2  UNL     1       4.770 -20.625  21.119  1.00  0.00    -0.246 OA
HETATM   10  N7  UNL     1       3.315 -18.991  21.805  1.00  0.00    -0.274 N 
ATOM     11  H7  UNL     1       3.648 -19.111  22.762  1.00  0.00     0.173 HD
HETATM   12  C5  UNL     1       2.506 -17.843  21.558  1.00  0.00     0.304 C 
HETATM   13  O3  UNL     1       2.386 -17.097  22.562  1.00  0.00    -0.266 OA
ENDROOT
BRANCH   1  14
HETATM   14  N3  UNL     1       0.746 -16.471  20.676  1.00  0.00    -0.309 N 
HETATM   15  C1  UNL     1       0.251 -15.714  19.752  1.00  0.00     0.200 C 
HETATM   16  N1  UNL     1      -0.785 -14.771  20.018  1.00  0.00    -0.067 NA
HETATM   17  N2  UNL     1       0.709 -15.768  18.391  1.00  0.00    -0.067 NA
ATOM     18  H3  UNL     1       0.405 -16.415  21.636  1.00  0.00     0.166 HD
ENDBRANCH   1  14
BRANCH   1  19
HETATM   19  N4  UNL     1       2.748 -16.660  19.487  1.00  0.00    -0.024 N 
ATOM     20  H43 UNL     1       2.856 -17.054  18.552  1.00  0.00     0.280 HD
ATOM     21  H42 UNL     1       2.406 -15.742  19.202  1.00  0.00     0.280 HD
ATOM     22  H41 UNL     1       3.624 -16.619  20.007  1.00  0.00     0.280 HD
ENDBRANCH   1  19
TORSDOF 2
ENDMDL
MODEL 4
REMARK VINA RESULT: -5.156498558      5.707      7.291
REMARK  2 active torsions:
REMARK  status: ('A' for Active; 'I' for Inactive)
REMARK    1  A    between atoms: N3_4  and  C2_6 
REMARK    2  A    between atoms: C2_6  and  N4_7 
ROOT
HETATM    1  C2  UNL     1       3.344 -23.736  23.670  1.00  0.00     0.360 C 
HETATM    2  N5  UNL     1       3.315 -22.407  23.129  1.00  0.00    -0.285 N 
ATOM      3  H5  UNL     1       4.079 -21.798  23.421  1.00  0.00     0.169 HD
HETATM    4  C3  UNL     1       2.369 -21.818  22.241  1.00  0.00     0.327 C 
HETATM    5  O1  UNL     1       2.764 -20.878  21.487  1.00  0.00    -0.247 OA
HETATM    6  N6  UNL     1       0.984 -22.202  22.122  1.00  0.00    -0.261 N 
ATOM      7  H6  UNL     1       0.477 -21.759  21.356  1.00  0.00     0.175 HD
HETATM    8  C4  UNL     1       0.217 -23.106  22.909  1.00  0.00     0.330 C 
HETATM    9  O2  UNL     1      -0.968 -23.352  22.580  1.00  0.00    -0.246 OA
HETATM   10  N7  UNL     1       0.716 -23.770  24.080  1.00  0.00    -0.274 N 
ATOM     11  H7  UNL     1       0.018 -24.058  24.766  1.00  0.00     0.173 HD
HETATM   12  C5  UNL     1       2.073 -24.072  24.395  1.00  0.00     0.304 C 
HETATM   13  O3  UNL     1       2.200 -24.730  25.458  1.00  0.00    -0.266 OA
ENDROOT
BRANCH   1  14
HETATM   14  N3  UNL     1       4.452 -23.825  24.593  1.00  0.00    -0.309 N 
HETATM   15  C1  UNL     1       5.624 -23.471  24.179  1.00  0.00     0.200 C 
HETATM   16  N1  UNL     1       6.774 -23.527  25.020  1.00  0.00    -0.067 NA
HETATM   17  N2  UNL     1       5.854 -22.997  22.843  1.00  0.00    -0.067 NA
ATOM     18  H3  UNL     1       4.313 -24.159  25.547  1.00  0.00     0.166 HD
ENDBRANCH   1  14
BRANCH   1  19
HETATM   19  N4  UNL     1       3.561 -24.753  22.643  1.00  0.00    -0.024 N 
ATOM     20  H43 UNL     1       4.255 -24.480  21.948  1.00  0.00     0.280 HD
ATOM     21  H42 UNL     1       4.047 -25.579  22.993  1.00  0.00     0.280 HD
ATOM     22  H41 UNL     1       2.650 -24.966  22.238  1.00  0.00     0.280 HD
ENDBRANCH   1  19
TORSDOF 2
ENDMDL
MODEL 5
REMARK VINA RESULT: -4.958802225      3.004      4.369
REMARK  2 active torsions:
REMARK  status: ('A' for Active; 'I' for Inactive)
REMARK    1  A    between atoms: N3_4  and  C2_6 
REMARK    2  A    between atoms: C2_6  and  N4_7 
ROOT
HETATM    1  C2  UNL     1       3.112 -21.210  21.798  1.00  0.00     0.360 C 
HETATM    2  N5  UNL     1       3.825 -21.519  20.591  1.00  0.00    -0.285 N 
ATOM      3  H5  UNL     1       4.677 -22.065  20.714  1.00  0.00     0.169 HD
HETATM    4  C3  UNL     1       3.511 -21.170  19.246  1.00  0.00     0.327 C 
HETATM    5  O1  UNL     1       3.921 -21.934  18.320  1.00  0.00    -0.247 OA
HETATM    6  N6  UNL     1       2.756 -20.011  18.839  1.00  0.00    -0.261 N 
ATOM      7  H6  UNL     1       2.522 -19.974  17.847  1.00  0.00     0.175 HD
HETATM    8  C4  UNL     1       2.287 -18.910  19.610  1.00  0.00     0.330 C 
HETATM    9  O2  UNL     1       1.576 -18.036  19.060  1.00  0.00    -0.246 OA
HETATM   10  N7  UNL     1       2.579 -18.727  21.004  1.00  0.00    -0.274 N 
ATOM     11  H7  UNL     1       2.548 -17.767  21.348  1.00  0.00     0.173 HD
HETATM   12  C5  UNL     1       2.905 -19.732  21.962  1.00  0.00     0.304 C 
HETATM   13  O3  UNL     1       3.035 -19.281  23.127  1.00  0.00    -0.266 OA
ENDROOT
BRANCH   1  14
HETATM   14  N3  UNL     1       3.879 -21.706  22.918  1.00  0.00    -0.309 N 
HETATM   15  C1  UNL     1       4.171 -22.965  22.950  1.00  0.00     0.200 C 
HETATM   16  N1  UNL     1       4.923 -23.542  24.015  1.00  0.00    -0.067 NA
HETATM   17  N2  UNL     1       3.760 -23.873  21.916  1.00  0.00    -0.067 NA
ATOM     18  H3  UNL     1       4.182 -21.080  23.663  1.00  0.00     0.166 HD
ENDBRANCH   1  14
BRANCH   1  19
HETATM   19  N4  UNL     1       1.803 -21.858  21.856  1.00  0.00    -0.024 N 
ATOM     20  H43 UNL     1       1.727 -22.542  22.608  1.00  0.00     0.280 HD
ATOM     21  H42 UNL     1       1.061 -21.234  22.172  1.00  0.00     0.280 HD
ATOM     22  H41 UNL     1       1.626 -22.256  20.934  1.00  0.00     0.280 HD
ENDBRANCH   1  19
TORSDOF 2
ENDMDL
