MODEL 1
REMARK VINA RESULT: -6.508030305      0.000      0.000
REMARK  5 active torsions:
REMARK  status: ('A' for Active; 'I' for Inactive)
REMARK    1  A    between atoms: C2_2  and  N1_5 
REMARK    2  A    between atoms: N1_5  and  C5_7 
REMARK    3  A    between atoms: C5_7  and  O1_11 
REMARK    4  A    between atoms: O1_11  and  C6_12 
REMARK    5  A    between atoms: C6_12  and  C7_13 
ROOT
HETATM    1  C5  UNL     1       0.815  24.636   8.238  1.00  0.00     0.214 C 
HETATM    2  N2  UNL     1       0.555  23.422   7.939  1.00  0.00    -0.365 N 
ATOM      3  H21 UNL     1       1.063  22.648   8.367  1.00  0.00     0.159 HD
ATOM      4  H22 UNL     1      -0.183  23.259   7.254  1.00  0.00     0.159 HD
ENDROOT
BRANCH   1   5
HETATM    5  N1  UNL     1       0.104  25.720   7.640  1.00  0.00    -0.348 N 
ATOM      6  H1  UNL     1      -0.594  26.249   8.162  1.00  0.00     0.163 HD
BRANCH   5   7
HETATM    7  C2  UNL     1       0.411  26.036   6.274  1.00  0.00     0.022 C 
HETATM    8  C1  UNL     1       0.176  27.499   6.046  1.00  0.00     0.037 C 
HETATM    9  C3  UNL     1      -0.539  25.265   5.361  1.00  0.00     0.037 C 
HETATM   10  C4  UNL     1       1.809  25.680   5.879  1.00  0.00     0.037 C 
ENDBRANCH   5   7
ENDBRANCH   1   5
BRANCH   1  11
HETATM   11  O1  UNL     1       1.815  24.857   9.167  1.00  0.00    -0.302 OA
BRANCH  11  12
HETATM   12  C6  UNL     1       1.751  24.545  10.526  1.00  0.00     0.168 A 
HETATM   13  C8  UNL     1       1.655  25.618  11.562  1.00  0.00     0.051 A 
HETATM   14  C9  UNL     1       0.438  24.762  11.233  1.00  0.00     0.051 A 
BRANCH  12  15
HETATM   15  C7  UNL     1       2.512  23.310  10.975  1.00  0.00     0.419 C 
HETATM   16  F1  UNL     1       2.075  22.171  10.320  1.00  0.00    -0.168 F 
HETATM   17  F2  UNL     1       2.281  23.100  12.344  1.00  0.00    -0.168 F 
HETATM   18  F3  UNL     1       3.865  23.526  10.854  1.00  0.00    -0.168 F 
ENDBRANCH  12  15
ENDBRANCH  11  12
ENDBRANCH   1  11
TORSDOF 5
ENDMDL
MODEL 2
REMARK VINA RESULT: -6.324148344      4.266      5.641
REMARK  5 active torsions:
REMARK  status: ('A' for Active; 'I' for Inactive)
REMARK    1  A    between atoms: C2_2  and  N1_5 
REMARK    2  A    between atoms: N1_5  and  C5_7 
REMARK    3  A    between atoms: C5_7  and  O1_11 
REMARK    4  A    between atoms: O1_11  and  C6_12 
REMARK    5  A    between atoms: C6_12  and  C7_13 
ROOT
HETATM    1  C5  UNL     1       1.137  26.675   3.329  1.00  0.00     0.214 C 
HETATM    2  N2  UNL     1      -0.020  27.178   3.128  1.00  0.00    -0.365 N 
ATOM      3  H21 UNL     1      -0.841  26.844   3.633  1.00  0.00     0.159 HD
ATOM      4  H22 UNL     1      -0.089  27.929   2.440  1.00  0.00     0.159 HD
ENDROOT
BRANCH   1   5
HETATM    5  N1  UNL     1       2.286  27.142   2.622  1.00  0.00    -0.348 N 
ATOM      6  H1  UNL     1       2.548  26.750   1.718  1.00  0.00     0.163 HD
BRANCH   5   7
HETATM    7  C2  UNL     1       3.058  28.185   3.236  1.00  0.00     0.022 C 
HETATM    8  C1  UNL     1       3.927  28.826   2.195  1.00  0.00     0.037 C 
HETATM    9  C3  UNL     1       3.975  27.570   4.290  1.00  0.00     0.037 C 
HETATM   10  C4  UNL     1       2.225  29.227   3.911  1.00  0.00     0.037 C 
ENDBRANCH   5   7
ENDBRANCH   1   5
BRANCH   1  11
HETATM   11  O1  UNL     1       1.230  25.658   4.261  1.00  0.00    -0.302 OA
BRANCH  11  12
HETATM   12  C6  UNL     1       0.774  25.714   5.578  1.00  0.00     0.168 A 
HETATM   13  C8  UNL     1       1.724  25.898   6.718  1.00  0.00     0.051 A 
HETATM   14  C9  UNL     1       0.823  27.046   6.281  1.00  0.00     0.051 A 
BRANCH  12  15
HETATM   15  C7  UNL     1      -0.444  24.871   5.912  1.00  0.00     0.419 C 
HETATM   16  F1  UNL     1      -0.548  24.634   7.273  1.00  0.00    -0.168 F 
HETATM   17  F2  UNL     1      -0.319  23.617   5.294  1.00  0.00    -0.168 F 
HETATM   18  F3  UNL     1      -1.571  25.444   5.369  1.00  0.00    -0.168 F 
ENDBRANCH  12  15
ENDBRANCH  11  12
ENDBRANCH   1  11
TORSDOF 5
ENDMDL
MODEL 3
REMARK VINA RESULT: -6.318610544      4.449      5.654
REMARK  5 active torsions:
REMARK  status: ('A' for Active; 'I' for Inactive)
REMARK    1  A    between atoms: C2_2  and  N1_5 
REMARK    2  A    between atoms: N1_5  and  C5_7 
REMARK    3  A    between atoms: C5_7  and  O1_11 
REMARK    4  A    between atoms: O1_11  and  C6_12 
REMARK    5  A    between atoms: C6_12  and  C7_13 
ROOT
HETATM    1  C5  UNL     1       1.199  26.727   3.250  1.00  0.00     0.214 C 
HETATM    2  N2  UNL     1       0.057  27.251   3.019  1.00  0.00    -0.365 N 
ATOM      3  H21 UNL     1      -0.785  26.922   3.493  1.00  0.00     0.159 HD
ATOM      4  H22 UNL     1       0.022  28.012   2.341  1.00  0.00     0.159 HD
ENDROOT
BRANCH   1   5
HETATM    5  N1  UNL     1       2.378  27.186   2.588  1.00  0.00    -0.348 N 
ATOM      6  H1  UNL     1       2.673  26.791   1.696  1.00  0.00     0.163 HD
BRANCH   5   7
HETATM    7  C2  UNL     1       3.131  28.226   3.230  1.00  0.00     0.022 C 
HETATM    8  C1  UNL     1       4.016  28.885   2.215  1.00  0.00     0.037 C 
HETATM    9  C3  UNL     1       4.030  27.602   4.295  1.00  0.00     0.037 C 
HETATM   10  C4  UNL     1       2.279  29.254   3.902  1.00  0.00     0.037 C 
ENDBRANCH   5   7
ENDBRANCH   1   5
BRANCH   1  11
HETATM   11  O1  UNL     1       1.246  25.695   4.170  1.00  0.00    -0.302 OA
BRANCH  11  12
HETATM   12  C6  UNL     1       0.785  25.752   5.485  1.00  0.00     0.168 A 
HETATM   13  C8  UNL     1       1.733  25.920   6.629  1.00  0.00     0.051 A 
HETATM   14  C9  UNL     1       0.848  27.081   6.192  1.00  0.00     0.051 A 
BRANCH  12  15
HETATM   15  C7  UNL     1      -0.446  24.924   5.810  1.00  0.00     0.419 C 
HETATM   16  F1  UNL     1      -1.445  25.098   4.867  1.00  0.00    -0.168 F 
HETATM   17  F2  UNL     1      -0.975  25.350   7.039  1.00  0.00    -0.168 F 
HETATM   18  F3  UNL     1      -0.089  23.609   5.993  1.00  0.00    -0.168 F 
ENDBRANCH  12  15
ENDBRANCH  11  12
ENDBRANCH   1  11
TORSDOF 5
ENDMDL
MODEL 4
REMARK VINA RESULT: -6.311894697      3.204      5.531
REMARK  5 active torsions:
REMARK  status: ('A' for Active; 'I' for Inactive)
REMARK    1  A    between atoms: C2_2  and  N1_5 
REMARK    2  A    between atoms: N1_5  and  C5_7 
REMARK    3  A    between atoms: C5_7  and  O1_11 
REMARK    4  A    between atoms: O1_11  and  C6_12 
REMARK    5  A    between atoms: C6_12  and  C7_13 
ROOT
HETATM    1  C5  UNL     1       0.864  24.366   8.357  1.00  0.00     0.214 C 
HETATM    2  N2  UNL     1       0.722  23.127   8.083  1.00  0.00    -0.365 N 
ATOM      3  H21 UNL     1       0.045  22.808   7.390  1.00  0.00     0.159 HD
ATOM      4  H22 UNL     1       1.315  22.467   8.588  1.00  0.00     0.159 HD
ENDROOT
BRANCH   1   5
HETATM    5  N1  UNL     1       1.811  24.813   9.327  1.00  0.00    -0.348 N 
ATOM      6  H1  UNL     1       2.643  25.336   9.055  1.00  0.00     0.163 HD
BRANCH   5   7
HETATM    7  C2  UNL     1       1.546  24.495  10.702  1.00  0.00     0.022 C 
HETATM    8  C1  UNL     1       0.165  24.962  11.052  1.00  0.00     0.037 C 
HETATM    9  C3  UNL     1       2.532  25.255  11.586  1.00  0.00     0.037 C 
HETATM   10  C4  UNL     1       1.683  23.040  11.015  1.00  0.00     0.037 C 
ENDBRANCH   5   7
ENDBRANCH   1   5
BRANCH   1  11
HETATM   11  O1  UNL     1       0.061  25.260   7.672  1.00  0.00    -0.302 OA
BRANCH  11  12
HETATM   12  C6  UNL     1       0.271  25.716   6.370  1.00  0.00     0.168 A 
HETATM   13  C8  UNL     1       0.625  27.142   6.099  1.00  0.00     0.051 A 
HETATM   14  C9  UNL     1       1.682  26.054   5.966  1.00  0.00     0.051 A 
BRANCH  12  15
HETATM   15  C7  UNL     1      -0.556  25.059   5.279  1.00  0.00     0.419 C 
HETATM   16  F1  UNL     1      -0.711  23.700   5.499  1.00  0.00    -0.168 F 
HETATM   17  F2  UNL     1       0.112  25.193   4.052  1.00  0.00    -0.168 F 
HETATM   18  F3  UNL     1      -1.748  25.728   5.130  1.00  0.00    -0.168 F 
ENDBRANCH  12  15
ENDBRANCH  11  12
ENDBRANCH   1  11
TORSDOF 5
ENDMDL
MODEL 5
REMARK VINA RESULT: -6.274729888      4.611      5.810
REMARK  5 active torsions:
REMARK  status: ('A' for Active; 'I' for Inactive)
REMARK    1  A    between atoms: C2_2  and  N1_5 
REMARK    2  A    between atoms: N1_5  and  C5_7 
REMARK    3  A    between atoms: C5_7  and  O1_11 
REMARK    4  A    between atoms: O1_11  and  C6_12 
REMARK    5  A    between atoms: C6_12  and  C7_13 
ROOT
HETATM    1  C5  UNL     1       1.699  26.440   3.335  1.00  0.00     0.214 C 
HETATM    2  N2  UNL     1       0.797  27.085   2.699  1.00  0.00    -0.365 N 
ATOM      3  H21 UNL     1      -0.195  26.889   2.837  1.00  0.00     0.159 HD
ATOM      4  H22 UNL     1       1.111  27.805   2.048  1.00  0.00     0.159 HD
ENDROOT
BRANCH   1   5
HETATM    5  N1  UNL     1       3.086  26.714   3.143  1.00  0.00    -0.348 N 
ATOM      6  H1  UNL     1       3.740  25.978   2.877  1.00  0.00     0.163 HD
BRANCH   5   7
HETATM    7  C2  UNL     1       3.524  28.067   3.340  1.00  0.00     0.022 C 
HETATM    8  C1  UNL     1       3.812  28.686   2.005  1.00  0.00     0.037 C 
HETATM    9  C3  UNL     1       4.827  28.055   4.137  1.00  0.00     0.037 C 
HETATM   10  C4  UNL     1       2.542  28.910   4.088  1.00  0.00     0.037 C 
ENDBRANCH   5   7
ENDBRANCH   1   5
BRANCH   1  11
HETATM   11  O1  UNL     1       1.273  25.465   4.218  1.00  0.00    -0.302 OA
BRANCH  11  12
HETATM   12  C6  UNL     1       0.361  25.646   5.258  1.00  0.00     0.168 A 
HETATM   13  C8  UNL     1      -1.110  25.508   5.030  1.00  0.00     0.051 A 
HETATM   14  C9  UNL     1      -0.349  24.427   5.787  1.00  0.00     0.051 A 
BRANCH  12  15
HETATM   15  C7  UNL     1       0.735  26.667   6.319  1.00  0.00     0.419 C 
HETATM   16  F1  UNL     1       2.101  26.692   6.547  1.00  0.00    -0.168 F 
HETATM   17  F2  UNL     1       0.132  26.309   7.535  1.00  0.00    -0.168 F 
HETATM   18  F3  UNL     1       0.213  27.895   5.990  1.00  0.00    -0.168 F 
ENDBRANCH  12  15
ENDBRANCH  11  12
ENDBRANCH   1  11
TORSDOF 5
ENDMDL
