MODEL 1
REMARK VINA RESULT: -5.673655494      0.000      0.000
REMARK  1 active torsions:
REMARK  status: ('A' for Active; 'I' for Inactive)
REMARK    1  A    between atoms: C5_5  and  C7_7 
ROOT
HETATM    1  C1  UNL     1       0.177  28.081   2.211  1.00  0.00     0.038 C 
HETATM    2  C2  UNL     1      -0.043  28.406   3.680  1.00  0.00     0.026 C 
HETATM    3  C3  UNL     1      -1.089  29.536   3.668  1.00  0.00     0.038 C 
HETATM    4  C4  UNL     1      -0.648  27.289   4.437  1.00  0.00     0.056 C 
HETATM    5  C5  UNL     1       0.266  26.312   5.083  1.00  0.00     0.073 C 
HETATM    6  C6  UNL     1      -0.304  24.932   5.025  1.00  0.00     0.033 C 
HETATM    7  S1  UNL     1       1.955  26.371   4.361  1.00  0.00    -0.079 SA
HETATM    8  C8  UNL     1       2.300  28.115   4.277  1.00  0.00     0.135 C 
HETATM    9  N1  UNL     1       3.483  28.542   4.283  1.00  0.00    -0.380 N 
ATOM     10  H11 UNL     1       3.681  29.542   4.235  1.00  0.00     0.158 HD
ATOM     11  H12 UNL     1       4.298  27.931   4.333  1.00  0.00     0.158 HD
HETATM   12  N2  UNL     1       1.169  28.964   4.208  1.00  0.00    -0.363 N 
ATOM     13  H2  UNL     1       1.214  29.934   4.520  1.00  0.00     0.162 HD
ENDROOT
BRANCH   5  14
HETATM   14  C7  UNL     1       0.466  26.637   6.572  1.00  0.00     0.371 C 
HETATM   15  F1  UNL     1       1.759  26.305   6.929  1.00  0.00    -0.213 F 
HETATM   16  F2  UNL     1      -0.453  25.982   7.350  1.00  0.00    -0.213 F 
ENDBRANCH   5  14
TORSDOF 1
ENDMDL
MODEL 2
REMARK VINA RESULT: -5.575999570      2.834      3.955
REMARK  1 active torsions:
REMARK  status: ('A' for Active; 'I' for Inactive)
REMARK    1  A    between atoms: C5_5  and  C7_7 
ROOT
HETATM    1  C1  UNL     1       0.650  26.802   6.280  1.00  0.00     0.038 C 
HETATM    2  C2  UNL     1       0.185  26.708   4.835  1.00  0.00     0.026 C 
HETATM    3  C3  UNL     1      -0.952  25.671   4.868  1.00  0.00     0.038 C 
HETATM    4  C4  UNL     1      -0.414  27.964   4.335  1.00  0.00     0.056 C 
HETATM    5  C5  UNL     1       0.485  28.951   3.682  1.00  0.00     0.073 C 
HETATM    6  C6  UNL     1       0.067  30.348   4.009  1.00  0.00     0.033 C 
HETATM    7  S1  UNL     1       2.248  28.661   4.112  1.00  0.00    -0.079 SA
HETATM    8  C8  UNL     1       2.431  26.902   3.914  1.00  0.00     0.135 C 
HETATM    9  N1  UNL     1       3.553  26.391   3.664  1.00  0.00    -0.380 N 
ATOM     10  H11 UNL     1       3.658  25.383   3.550  1.00  0.00     0.158 HD
ATOM     11  H12 UNL     1       4.407  26.940   3.563  1.00  0.00     0.158 HD
HETATM   12  N2  UNL     1       1.246  26.140   4.053  1.00  0.00    -0.363 N 
ATOM     13  H2  UNL     1       1.149  25.224   3.615  1.00  0.00     0.162 HD
ENDROOT
BRANCH   5  14
HETATM   14  C7  UNL     1       0.430  28.827   2.151  1.00  0.00     0.371 C 
HETATM   15  F1  UNL     1       0.128  30.065   1.617  1.00  0.00    -0.213 F 
HETATM   16  F2  UNL     1      -0.479  27.878   1.763  1.00  0.00    -0.213 F 
ENDBRANCH   5  14
TORSDOF 1
ENDMDL
MODEL 3
REMARK VINA RESULT: -5.553189020      1.245      1.325
REMARK  1 active torsions:
REMARK  status: ('A' for Active; 'I' for Inactive)
REMARK    1  A    between atoms: C5_5  and  C7_7 
ROOT
HETATM    1  C1  UNL     1      -0.166  28.900   2.582  1.00  0.00     0.038 C 
HETATM    2  C2  UNL     1       0.442  28.736   3.966  1.00  0.00     0.026 C 
HETATM    3  C3  UNL     1      -0.041  29.974   4.743  1.00  0.00     0.038 C 
HETATM    4  C4  UNL     1      -0.081  27.560   4.694  1.00  0.00     0.056 C 
HETATM    5  C5  UNL     1       0.640  26.270   4.537  1.00  0.00     0.073 C 
HETATM    6  C6  UNL     1      -0.319  25.124   4.527  1.00  0.00     0.033 C 
HETATM    7  S1  UNL     1       1.712  26.260   3.044  1.00  0.00    -0.079 SA
HETATM    8  C8  UNL     1       2.543  27.831   3.130  1.00  0.00     0.135 C 
HETATM    9  N1  UNL     1       3.660  28.004   2.579  1.00  0.00    -0.380 N 
ATOM     10  H11 UNL     1       4.136  28.905   2.628  1.00  0.00     0.158 HD
ATOM     11  H12 UNL     1       4.146  27.273   2.059  1.00  0.00     0.158 HD
HETATM   12  N2  UNL     1       1.868  28.846   3.851  1.00  0.00    -0.363 N 
ATOM     13  H2  UNL     1       2.375  29.625   4.272  1.00  0.00     0.162 HD
ENDROOT
BRANCH   5  14
HETATM   14  C7  UNL     1       1.601  26.022   5.711  1.00  0.00     0.371 C 
HETATM   15  F1  UNL     1       1.332  24.779   6.250  1.00  0.00    -0.213 F 
HETATM   16  F2  UNL     1       1.498  27.011   6.654  1.00  0.00    -0.213 F 
ENDBRANCH   5  14
TORSDOF 1
ENDMDL
MODEL 4
REMARK VINA RESULT: -5.465946344      1.475      1.681
REMARK  1 active torsions:
REMARK  status: ('A' for Active; 'I' for Inactive)
REMARK    1  A    between atoms: C5_5  and  C7_7 
ROOT
HETATM    1  C1  UNL     1       2.035  29.046   1.953  1.00  0.00     0.038 C 
HETATM    2  C2  UNL     1       1.806  29.207   3.448  1.00  0.00     0.026 C 
HETATM    3  C3  UNL     1       1.203  30.617   3.591  1.00  0.00     0.038 C 
HETATM    4  C4  UNL     1       0.797  28.269   3.985  1.00  0.00     0.056 C 
HETATM    5  C5  UNL     1       1.271  26.954   4.489  1.00  0.00     0.073 C 
HETATM    6  C6  UNL     1       0.281  25.878   4.180  1.00  0.00     0.033 C 
HETATM    7  S1  UNL     1       2.940  26.533   3.845  1.00  0.00    -0.079 SA
HETATM    8  C8  UNL     1       3.854  28.044   4.067  1.00  0.00     0.135 C 
HETATM    9  N1  UNL     1       5.106  28.033   4.185  1.00  0.00    -0.380 N 
ATOM     10  H11 UNL     1       5.630  28.899   4.312  1.00  0.00     0.158 HD
ATOM     11  H12 UNL     1       5.663  27.178   4.159  1.00  0.00     0.158 HD
HETATM   12  N2  UNL     1       3.083  29.231   4.103  1.00  0.00    -0.363 N 
ATOM     13  H2  UNL     1       3.421  30.070   4.575  1.00  0.00     0.162 HD
ENDROOT
BRANCH   5  14
HETATM   14  C7  UNL     1       1.434  26.968   6.017  1.00  0.00     0.371 C 
HETATM   15  F1  UNL     1       2.004  25.774   6.414  1.00  0.00    -0.213 F 
HETATM   16  F2  UNL     1       0.233  27.183   6.642  1.00  0.00    -0.213 F 
ENDBRANCH   5  14
TORSDOF 1
ENDMDL
MODEL 5
REMARK VINA RESULT: -5.465253052      1.936      3.218
REMARK  1 active torsions:
REMARK  status: ('A' for Active; 'I' for Inactive)
REMARK    1  A    between atoms: C5_5  and  C7_7 
ROOT
HETATM    1  C1  UNL     1       2.820  28.442   4.333  1.00  0.00     0.038 C 
HETATM    2  C2  UNL     1       2.398  27.015   4.018  1.00  0.00     0.026 C 
HETATM    3  C3  UNL     1       3.701  26.320   3.583  1.00  0.00     0.038 C 
HETATM    4  C4  UNL     1       1.911  26.279   5.204  1.00  0.00     0.056 C 
HETATM    5  C5  UNL     1       0.458  26.338   5.511  1.00  0.00     0.073 C 
HETATM    6  C6  UNL     1       0.227  26.367   6.987  1.00  0.00     0.033 C 
HETATM    7  S1  UNL     1      -0.362  27.755   4.676  1.00  0.00    -0.079 SA
HETATM    8  C8  UNL     1       0.278  27.675   3.017  1.00  0.00     0.135 C 
HETATM    9  N1  UNL     1      -0.366  28.158   2.051  1.00  0.00    -0.380 N 
ATOM     10  H11 UNL     1       0.001  28.112   1.100  1.00  0.00     0.158 HD
ATOM     11  H12 UNL     1      -1.271  28.616   2.155  1.00  0.00     0.158 HD
HETATM   12  N2  UNL     1       1.535  27.040   2.872  1.00  0.00    -0.363 N 
ATOM     13  H2  UNL     1       1.817  26.616   1.987  1.00  0.00     0.162 HD
ENDROOT
BRANCH   5  14
HETATM   14  C7  UNL     1      -0.274  25.095   4.981  1.00  0.00     0.371 C 
HETATM   15  F1  UNL     1      -1.598  25.422   4.757  1.00  0.00    -0.213 F 
HETATM   16  F2  UNL     1      -0.157  24.042   5.851  1.00  0.00    -0.213 F 
ENDBRANCH   5  14
TORSDOF 1
ENDMDL
