MODEL 1
REMARK VINA RESULT: -7.703375334      0.000      0.000
REMARK  2 active torsions:
REMARK  status: ('A' for Active; 'I' for Inactive)
REMARK    1  A    between atoms: C12_13  and  O2_14 
REMARK    2  A    between atoms: C16_19  and  O3_20 
ROOT
HETATM    1  C1  UNL     1     -18.504  36.792  -4.585  1.00  0.00     0.017 C 
HETATM    2  C2  UNL     1     -17.490  36.444  -3.797  1.00  0.00    -0.058 C 
HETATM    3  C3  UNL     1     -16.391  37.432  -3.979  1.00  0.00     0.202 C 
HETATM    4  O1  UNL     1     -15.276  37.214  -3.277  1.00  0.00    -0.381 OA
HETATM    5  C4  UNL     1     -14.554  36.080  -3.401  1.00  0.00     0.127 C 
HETATM    6  C5  UNL     1     -14.596  35.486  -4.811  1.00  0.00     0.039 C 
HETATM    7  C6  UNL     1     -15.190  34.119  -4.662  1.00  0.00     0.022 C 
HETATM    8  C7  UNL     1     -14.705  33.729  -3.296  1.00  0.00     0.015 C 
HETATM    9  C8  UNL     1     -14.714  34.989  -2.440  1.00  0.00     0.026 C 
HETATM   10  C9  UNL     1     -15.746  34.992  -1.384  1.00  0.00    -0.000 C 
HETATM   11  C10 UNL     1     -15.610  33.642  -0.663  1.00  0.00     0.019 C 
HETATM   12  C11 UNL     1     -15.300  36.006  -0.297  1.00  0.00     0.049 C 
HETATM   13  C12 UNL     1     -16.308  36.045   0.827  1.00  0.00     0.147 C 
HETATM   14  C13 UNL     1     -17.472  35.167   0.671  1.00  0.00    -0.056 C 
HETATM   15  C14 UNL     1     -18.173  34.651   1.891  1.00  0.00     0.046 C 
HETATM   16  C15 UNL     1     -17.942  34.799  -0.543  1.00  0.00     0.017 C 
HETATM   17  C16 UNL     1     -17.111  35.411  -1.665  1.00  0.00     0.091 C 
HETATM   18  C17 UNL     1     -17.746  35.217  -2.988  1.00  0.00     0.058 C 
HETATM   19  C18 UNL     1     -17.544  33.945  -3.703  1.00  0.00     0.050 C 
HETATM   20  C19 UNL     1     -16.634  33.999  -4.890  1.00  0.00     0.175 C 
HETATM   21  F1  UNL     1     -16.919  32.876  -5.689  1.00  0.00    -0.249 F 
ENDROOT
BRANCH  13  22
HETATM   22  O2  UNL     1     -15.672  35.744   2.056  1.00  0.00    -0.391 OA
ATOM     23  H2  UNL     1     -16.237  35.195   2.586  1.00  0.00     0.210 HD
ENDBRANCH  13  22
BRANCH  17  24
HETATM   24  O3  UNL     1     -17.366  36.797  -1.388  1.00  0.00    -0.384 OA
ATOM     25  H3  UNL     1     -16.630  37.368  -1.570  1.00  0.00     0.211 HD
ENDBRANCH  17  24
TORSDOF 2
ENDMDL
MODEL 2
REMARK VINA RESULT: -7.511398917      2.078      4.699
REMARK  2 active torsions:
REMARK  status: ('A' for Active; 'I' for Inactive)
REMARK    1  A    between atoms: C12_13  and  O2_14 
REMARK    2  A    between atoms: C16_19  and  O3_20 
ROOT
HETATM    1  C1  UNL     1     -17.181  34.249  -0.533  1.00  0.00     0.017 C 
HETATM    2  C2  UNL     1     -16.467  34.840  -1.488  1.00  0.00    -0.058 C 
HETATM    3  C3  UNL     1     -15.712  35.971  -0.881  1.00  0.00     0.202 C 
HETATM    4  O1  UNL     1     -14.960  36.695  -1.713  1.00  0.00    -0.381 OA
HETATM    5  C4  UNL     1     -15.479  37.344  -2.777  1.00  0.00     0.127 C 
HETATM    6  C5  UNL     1     -16.908  37.841  -2.546  1.00  0.00     0.039 C 
HETATM    7  C6  UNL     1     -17.749  37.164  -3.585  1.00  0.00     0.022 C 
HETATM    8  C7  UNL     1     -16.777  37.037  -4.722  1.00  0.00     0.015 C 
HETATM    9  C8  UNL     1     -15.410  36.752  -4.113  1.00  0.00     0.026 C 
HETATM   10  C9  UNL     1     -14.913  35.385  -4.363  1.00  0.00    -0.000 C 
HETATM   11  C10 UNL     1     -15.085  35.146  -5.870  1.00  0.00     0.019 C 
HETATM   12  C11 UNL     1     -13.370  35.410  -4.194  1.00  0.00     0.049 C 
HETATM   13  C12 UNL     1     -12.793  34.038  -4.455  1.00  0.00     0.147 C 
HETATM   14  C13 UNL     1     -13.764  32.990  -4.785  1.00  0.00    -0.056 C 
HETATM   15  C14 UNL     1     -13.335  31.830  -5.633  1.00  0.00     0.046 C 
HETATM   16  C15 UNL     1     -15.044  33.029  -4.352  1.00  0.00     0.017 C 
HETATM   17  C16 UNL     1     -15.305  34.272  -3.510  1.00  0.00     0.091 C 
HETATM   18  C17 UNL     1     -16.620  34.214  -2.834  1.00  0.00     0.058 C 
HETATM   19  C18 UNL     1     -17.828  34.618  -3.576  1.00  0.00     0.050 C 
HETATM   20  C19 UNL     1     -18.430  35.930  -3.180  1.00  0.00     0.175 C 
HETATM   21  F1  UNL     1     -19.765  35.930  -3.625  1.00  0.00    -0.249 F 
ENDROOT
BRANCH  13  22
HETATM   22  O2  UNL     1     -11.830  34.109  -5.490  1.00  0.00    -0.391 OA
ATOM     23  H2  UNL     1     -11.666  33.241  -5.839  1.00  0.00     0.210 HD
ENDBRANCH  13  22
BRANCH  17  24
HETATM   24  O3  UNL     1     -14.384  34.003  -2.441  1.00  0.00    -0.384 OA
ATOM     25  H3  UNL     1     -14.743  34.154  -1.575  1.00  0.00     0.211 HD
ENDBRANCH  17  24
TORSDOF 2
ENDMDL
MODEL 3
REMARK VINA RESULT: -7.203577822      2.139      4.965
REMARK  2 active torsions:
REMARK  status: ('A' for Active; 'I' for Inactive)
REMARK    1  A    between atoms: C12_13  and  O2_14 
REMARK    2  A    between atoms: C16_19  and  O3_20 
ROOT
HETATM    1  C1  UNL     1     -17.234  34.436  -0.643  1.00  0.00     0.017 C 
HETATM    2  C2  UNL     1     -16.738  34.987  -1.748  1.00  0.00    -0.058 C 
HETATM    3  C3  UNL     1     -15.741  36.020  -1.352  1.00  0.00     0.202 C 
HETATM    4  O1  UNL     1     -15.163  36.697  -2.348  1.00  0.00    -0.381 OA
HETATM    5  C4  UNL     1     -15.873  37.427  -3.234  1.00  0.00     0.127 C 
HETATM    6  C5  UNL     1     -17.134  38.051  -2.632  1.00  0.00     0.039 C 
HETATM    7  C6  UNL     1     -18.281  37.492  -3.418  1.00  0.00     0.022 C 
HETATM    8  C7  UNL     1     -17.658  37.311  -4.771  1.00  0.00     0.015 C 
HETATM    9  C8  UNL     1     -16.215  36.876  -4.545  1.00  0.00     0.026 C 
HETATM   10  C9  UNL     1     -15.941  35.477  -4.926  1.00  0.00    -0.000 C 
HETATM   11  C10 UNL     1     -16.523  35.306  -6.337  1.00  0.00     0.019 C 
HETATM   12  C11 UNL     1     -14.413  35.349  -5.169  1.00  0.00     0.049 C 
HETATM   13  C12 UNL     1     -14.066  33.938  -5.582  1.00  0.00     0.147 C 
HETATM   14  C13 UNL     1     -15.189  32.999  -5.652  1.00  0.00    -0.056 C 
HETATM   15  C14 UNL     1     -15.116  31.832  -6.591  1.00  0.00     0.046 C 
HETATM   16  C15 UNL     1     -16.301  33.145  -4.897  1.00  0.00     0.017 C 
HETATM   17  C16 UNL     1     -16.207  34.379  -4.008  1.00  0.00     0.091 C 
HETATM   18  C17 UNL     1     -17.300  34.424  -3.010  1.00  0.00     0.058 C 
HETATM   19  C18 UNL     1     -18.612  34.966  -3.406  1.00  0.00     0.050 C 
HETATM   20  C19 UNL     1     -18.954  36.316  -2.857  1.00  0.00     0.175 C 
HETATM   21  F1  UNL     1     -20.352  36.458  -2.935  1.00  0.00    -0.249 F 
ENDROOT
BRANCH  13  22
HETATM   22  O2  UNL     1     -13.404  33.951  -6.833  1.00  0.00    -0.391 OA
ATOM     23  H2  UNL     1     -14.038  33.870  -7.535  1.00  0.00     0.210 HD
ENDBRANCH  13  22
BRANCH  17  24
HETATM   24  O3  UNL     1     -15.072  33.988  -3.220  1.00  0.00    -0.384 OA
ATOM     25  H3  UNL     1     -14.443  33.451  -3.688  1.00  0.00     0.211 HD
ENDBRANCH  17  24
TORSDOF 2
ENDMDL
MODEL 4
REMARK VINA RESULT: -7.097883871      2.602      4.229
REMARK  2 active torsions:
REMARK  status: ('A' for Active; 'I' for Inactive)
REMARK    1  A    between atoms: C12_13  and  O2_14 
REMARK    2  A    between atoms: C16_19  and  O3_20 
ROOT
HETATM    1  C1  UNL     1     -17.591  33.456  -4.892  1.00  0.00     0.017 C 
HETATM    2  C2  UNL     1     -17.336  34.714  -4.543  1.00  0.00    -0.058 C 
HETATM    3  C3  UNL     1     -16.334  35.273  -5.493  1.00  0.00     0.202 C 
HETATM    4  O1  UNL     1     -15.941  36.529  -5.267  1.00  0.00    -0.381 OA
HETATM    5  C4  UNL     1     -15.357  36.907  -4.110  1.00  0.00     0.127 C 
HETATM    6  C5  UNL     1     -14.510  35.804  -3.470  1.00  0.00     0.039 C 
HETATM    7  C6  UNL     1     -15.121  35.548  -2.126  1.00  0.00     0.022 C 
HETATM    8  C7  UNL     1     -15.642  36.909  -1.769  1.00  0.00     0.015 C 
HETATM    9  C8  UNL     1     -16.144  37.549  -3.057  1.00  0.00     0.026 C 
HETATM   10  C9  UNL     1     -17.612  37.696  -3.125  1.00  0.00    -0.000 C 
HETATM   11  C10 UNL     1     -18.029  38.346  -1.797  1.00  0.00     0.019 C 
HETATM   12  C11 UNL     1     -17.923  38.807  -4.163  1.00  0.00     0.049 C 
HETATM   13  C12 UNL     1     -19.415  39.020  -4.268  1.00  0.00     0.147 C 
HETATM   14  C13 UNL     1     -20.244  38.159  -3.418  1.00  0.00    -0.056 C 
HETATM   15  C14 UNL     1     -21.587  38.648  -2.963  1.00  0.00     0.046 C 
HETATM   16  C15 UNL     1     -19.841  36.931  -3.023  1.00  0.00     0.017 C 
HETATM   17  C16 UNL     1     -18.459  36.600  -3.572  1.00  0.00     0.091 C 
HETATM   18  C17 UNL     1     -18.104  35.179  -3.352  1.00  0.00     0.058 C 
HETATM   19  C18 UNL     1     -17.546  34.772  -2.050  1.00  0.00     0.050 C 
HETATM   20  C19 UNL     1     -16.085  34.447  -2.038  1.00  0.00     0.175 C 
HETATM   21  F1  UNL     1     -15.839  33.659  -0.898  1.00  0.00    -0.249 F 
ENDROOT
BRANCH  13  22
HETATM   22  O2  UNL     1     -19.729  40.372  -3.991  1.00  0.00    -0.391 OA
ATOM     23  H2  UNL     1     -19.602  40.551  -3.067  1.00  0.00     0.210 HD
ENDBRANCH  13  22
BRANCH  17  24
HETATM   24  O3  UNL     1     -18.771  36.637  -4.973  1.00  0.00    -0.384 OA
ATOM     25  H3  UNL     1     -18.043  36.406  -5.537  1.00  0.00     0.211 HD
ENDBRANCH  17  24
TORSDOF 2
ENDMDL
MODEL 5
REMARK VINA RESULT: -7.001871578      2.770      4.630
REMARK  2 active torsions:
REMARK  status: ('A' for Active; 'I' for Inactive)
REMARK    1  A    between atoms: C12_13  and  O2_14 
REMARK    2  A    between atoms: C16_19  and  O3_20 
ROOT
HETATM    1  C1  UNL     1     -18.075  37.247  -6.427  1.00  0.00     0.017 C 
HETATM    2  C2  UNL     1     -17.753  36.652  -5.281  1.00  0.00    -0.058 C 
HETATM    3  C3  UNL     1     -18.758  35.589  -5.004  1.00  0.00     0.202 C 
HETATM    4  O1  UNL     1     -18.599  34.907  -3.866  1.00  0.00    -0.381 OA
HETATM    5  C4  UNL     1     -18.598  35.508  -2.657  1.00  0.00     0.127 C 
HETATM    6  C5  UNL     1     -19.508  36.737  -2.591  1.00  0.00     0.039 C 
HETATM    7  C6  UNL     1     -18.612  37.890  -2.252  1.00  0.00     0.022 C 
HETATM    8  C7  UNL     1     -17.570  37.221  -1.405  1.00  0.00     0.015 C 
HETATM    9  C8  UNL     1     -17.338  35.835  -1.991  1.00  0.00     0.026 C 
HETATM   10  C9  UNL     1     -16.020  35.666  -2.636  1.00  0.00    -0.000 C 
HETATM   11  C10 UNL     1     -14.990  36.193  -1.626  1.00  0.00     0.019 C 
HETATM   12  C11 UNL     1     -15.711  34.145  -2.677  1.00  0.00     0.049 C 
HETATM   13  C12 UNL     1     -14.361  33.904  -3.312  1.00  0.00     0.147 C 
HETATM   14  C13 UNL     1     -13.645  35.100  -3.763  1.00  0.00    -0.056 C 
HETATM   15  C14 UNL     1     -12.146  35.085  -3.816  1.00  0.00     0.046 C 
HETATM   16  C15 UNL     1     -14.288  36.230  -4.135  1.00  0.00     0.017 C 
HETATM   17  C16 UNL     1     -15.799  36.070  -4.016  1.00  0.00     0.091 C 
HETATM   18  C17 UNL     1     -16.523  37.201  -4.640  1.00  0.00     0.058 C 
HETATM   19  C18 UNL     1     -16.721  38.440  -3.868  1.00  0.00     0.050 C 
HETATM   20  C19 UNL     1     -18.113  38.689  -3.376  1.00  0.00     0.175 C 
HETATM   21  F1  UNL     1     -18.219  40.064  -3.095  1.00  0.00    -0.249 F 
ENDROOT
BRANCH  13  22
HETATM   22  O2  UNL     1     -13.531  33.184  -2.419  1.00  0.00    -0.391 OA
ATOM     23  H2  UNL     1     -12.737  32.912  -2.865  1.00  0.00     0.210 HD
ENDBRANCH  13  22
BRANCH  17  24
HETATM   24  O3  UNL     1     -15.977  35.012  -4.971  1.00  0.00    -0.384 OA
ATOM     25  H3  UNL     1     -16.878  34.730  -5.071  1.00  0.00     0.211 HD
ENDBRANCH  17  24
TORSDOF 2
ENDMDL
