MODEL 1
REMARK VINA RESULT: -8.302672296      0.000      0.000
REMARK  14 active torsions:
REMARK  status: ('A' for Active; 'I' for Inactive)
REMARK    1  A    between atoms: C3_3  and  C4_4 
REMARK    2  A    between atoms: C4_4  and  O1_5 
REMARK    3  A    between atoms: O1_5  and  C5_6 
REMARK    4  A    between atoms: C5_6  and  C6_8 
REMARK    5  A    between atoms: C10_13  and  C11_14 
REMARK    6  A    between atoms: C12_17  and  C13_18 
REMARK    7  A    between atoms: C14_19  and  C15_20 
REMARK    8  A    between atoms: C14_19  and  C21_29 
REMARK       I    between atoms: C15_20  and  N2_22 
REMARK    9  A    between atoms: N2_22  and  C16_24 
REMARK   10  A    between atoms: C16_24  and  C19_27 
REMARK   11  A    between atoms: C21_29  and  O6_30 
REMARK   12  A    between atoms: C21_29  and  C22_32 
REMARK   13  A    between atoms: C24_36  and  C25_37 
REMARK   14  A    between atoms: C25_37  and  C26_38 
ROOT
HETATM    1  C1  UNL     1     -17.371  25.028 -11.720  1.00  0.00     0.112 C 
HETATM    2  C2  UNL     1     -17.433  23.880 -12.636  1.00  0.00    -0.109 C 
HETATM    3  C3  UNL     1     -17.503  22.921 -13.381  1.00  0.00    -0.080 C 
ENDROOT
BRANCH   3   4
HETATM    4  C4  UNL     1     -17.607  21.752 -14.261  1.00  0.00     0.272 C 
BRANCH   4   5
HETATM    5  O1  UNL     1     -16.969  20.668 -13.612  1.00  0.00    -0.309 OA
BRANCH   5   6
HETATM    6  C5  UNL     1     -16.096  19.791 -14.224  1.00  0.00     0.271 C 
HETATM    7  O2  UNL     1     -16.537  19.270 -15.293  1.00  0.00    -0.264 OA
BRANCH   6   8
HETATM    8  C6  UNL     1     -14.741  19.422 -13.756  1.00  0.00     0.077 A 
HETATM    9  C7  UNL     1     -14.613  19.379 -12.348  1.00  0.00     0.030 A 
HETATM   10  C8  UNL     1     -13.900  20.440 -12.929  1.00  0.00     0.026 A 
HETATM   11  C9  UNL     1     -14.036  21.505 -13.911  1.00  0.00     0.129 C 
HETATM   12  N1  UNL     1     -13.791  20.814 -15.154  1.00  0.00    -0.375 N 
HETATM   13  C10 UNL     1     -14.289  21.309 -16.314  1.00  0.00     0.171 C 
HETATM   14  C12 UNL     1     -13.779  19.374 -14.875  1.00  0.00     0.126 C 
BRANCH  13  15
HETATM   15  C11 UNL     1     -13.981  20.704 -17.599  1.00  0.00     0.214 C 
HETATM   16  O3  UNL     1     -13.095  21.125 -18.387  1.00  0.00    -0.644 OA
HETATM   17  O4  UNL     1     -14.680  19.584 -18.040  1.00  0.00    -0.644 OA
ENDBRANCH  13  15
BRANCH  14  18
HETATM   18  C13 UNL     1     -12.448  18.884 -14.641  1.00  0.00     0.019 C 
HETATM   19  C14 UNL     1     -11.640  18.224 -15.490  1.00  0.00     0.066 C 
BRANCH  19  20
HETATM   20  C15 UNL     1     -10.314  17.821 -15.028  1.00  0.00     0.254 C 
HETATM   21  O5  UNL     1      -9.560  18.565 -14.398  1.00  0.00    -0.268 OA
HETATM   22  N2  UNL     1      -9.823  16.502 -15.299  1.00  0.00    -0.348 N 
ATOM     23  H2  UNL     1     -10.400  15.845 -15.824  1.00  0.00     0.163 HD
BRANCH  22  24
HETATM   24  C16 UNL     1      -8.484  16.085 -14.822  1.00  0.00     0.025 C 
HETATM   25  C17 UNL     1      -7.784  15.345 -15.949  1.00  0.00     0.038 C 
HETATM   26  C18 UNL     1      -7.722  17.318 -14.479  1.00  0.00     0.038 C 
BRANCH  24  27
HETATM   27  C19 UNL     1      -8.637  15.165 -13.623  1.00  0.00     0.026 C 
HETATM   28  C20 UNL     1      -7.581  14.112 -13.572  1.00  0.00     0.007 C 
ENDBRANCH  24  27
ENDBRANCH  22  24
ENDBRANCH  19  20
BRANCH  19  29
HETATM   29  C21 UNL     1     -12.085  17.919 -16.802  1.00  0.00     0.115 C 
BRANCH  29  30
HETATM   30  O6  UNL     1     -13.105  17.125 -16.949  1.00  0.00    -0.357 OA
ATOM     31  H6  UNL     1     -13.980  17.481 -16.853  1.00  0.00     0.217 HD
ENDBRANCH  29  30
BRANCH  29  32
HETATM   32  C22 UNL     1     -11.572  18.367 -18.088  1.00  0.00     0.109 A 
HETATM   33  N3  UNL     1     -11.948  18.336 -19.331  1.00  0.00    -0.357 N 
HETATM   34  C23 UNL     1     -11.269  18.820 -20.301  1.00  0.00     0.104 A 
ATOM     35  H3  UNL     1     -12.842  17.897 -19.548  1.00  0.00     0.166 HD
HETATM   36  C24 UNL     1     -10.070  19.406 -19.996  1.00  0.00     0.010 A 
HETATM   37  S1  UNL     1     -10.027  19.205 -18.310  1.00  0.00    -0.072 SA
BRANCH  36  38
HETATM   38  C25 UNL     1      -9.084  20.041 -20.925  1.00  0.00     0.160 C 
BRANCH  38  39
HETATM   39  C26 UNL     1      -9.449  21.473 -21.065  1.00  0.00     0.177 C 
HETATM   40  O7  UNL     1      -9.572  22.004 -22.199  1.00  0.00    -0.648 OA
HETATM   41  O8  UNL     1      -9.654  22.217 -19.928  1.00  0.00    -0.648 OA
ENDBRANCH  38  39
ENDBRANCH  36  38
ENDBRANCH  29  32
ENDBRANCH  19  29
ENDBRANCH  14  18
ENDBRANCH   6   8
ENDBRANCH   5   6
ENDBRANCH   4   5
ENDBRANCH   3   4
TORSDOF 14
ENDMDL
MODEL 2
REMARK VINA RESULT: -8.170518396      1.296      1.487
REMARK  14 active torsions:
REMARK  status: ('A' for Active; 'I' for Inactive)
REMARK    1  A    between atoms: C3_3  and  C4_4 
REMARK    2  A    between atoms: C4_4  and  O1_5 
REMARK    3  A    between atoms: O1_5  and  C5_6 
REMARK    4  A    between atoms: C5_6  and  C6_8 
REMARK    5  A    between atoms: C10_13  and  C11_14 
REMARK    6  A    between atoms: C12_17  and  C13_18 
REMARK    7  A    between atoms: C14_19  and  C15_20 
REMARK    8  A    between atoms: C14_19  and  C21_29 
REMARK       I    between atoms: C15_20  and  N2_22 
REMARK    9  A    between atoms: N2_22  and  C16_24 
REMARK   10  A    between atoms: C16_24  and  C19_27 
REMARK   11  A    between atoms: C21_29  and  O6_30 
REMARK   12  A    between atoms: C21_29  and  C22_32 
REMARK   13  A    between atoms: C24_36  and  C25_37 
REMARK   14  A    between atoms: C25_37  and  C26_38 
ROOT
HETATM    1  C1  UNL     1     -17.830  25.560 -11.093  1.00  0.00     0.112 C 
HETATM    2  C2  UNL     1     -17.822  24.480 -12.091  1.00  0.00    -0.109 C 
HETATM    3  C3  UNL     1     -17.827  23.573 -12.900  1.00  0.00    -0.080 C 
ENDROOT
BRANCH   3   4
HETATM    4  C4  UNL     1     -17.841  22.458 -13.854  1.00  0.00     0.272 C 
BRANCH   4   5
HETATM    5  O1  UNL     1     -17.210  21.354 -13.235  1.00  0.00    -0.309 OA
BRANCH   5   6
HETATM    6  C5  UNL     1     -16.472  20.396 -13.902  1.00  0.00     0.271 C 
HETATM    7  O2  UNL     1     -17.042  19.913 -14.927  1.00  0.00    -0.264 OA
BRANCH   6   8
HETATM    8  C6  UNL     1     -15.126  19.903 -13.535  1.00  0.00     0.077 A 
HETATM    9  C7  UNL     1     -14.970  19.633 -12.155  1.00  0.00     0.030 A 
HETATM   10  C8  UNL     1     -14.224  20.743 -12.582  1.00  0.00     0.026 A 
HETATM   11  C9  UNL     1     -14.333  21.955 -13.380  1.00  0.00     0.129 C 
HETATM   12  N1  UNL     1     -14.144  21.459 -14.723  1.00  0.00    -0.375 N 
HETATM   13  C10 UNL     1     -14.644  22.151 -15.776  1.00  0.00     0.171 C 
HETATM   14  C12 UNL     1     -14.191  19.994 -14.674  1.00  0.00     0.126 C 
BRANCH  13  15
HETATM   15  C11 UNL     1     -14.391  21.745 -17.148  1.00  0.00     0.214 C 
HETATM   16  O3  UNL     1     -15.111  20.941 -17.794  1.00  0.00    -0.644 OA
HETATM   17  O4  UNL     1     -13.294  22.246 -17.844  1.00  0.00    -0.644 OA
ENDBRANCH  13  15
BRANCH  14  18
HETATM   18  C13 UNL     1     -12.878  19.420 -14.557  1.00  0.00     0.019 C 
HETATM   19  C14 UNL     1     -12.102  18.905 -15.527  1.00  0.00     0.066 C 
BRANCH  19  20
HETATM   20  C15 UNL     1     -10.789  18.373 -15.169  1.00  0.00     0.254 C 
HETATM   21  O5  UNL     1      -9.876  19.067 -14.716  1.00  0.00    -0.268 OA
HETATM   22  N2  UNL     1     -10.502  16.978 -15.337  1.00  0.00    -0.348 N 
ATOM     23  H2  UNL     1     -11.217  16.357 -15.716  1.00  0.00     0.163 HD
BRANCH  22  24
HETATM   24  C16 UNL     1      -9.177  16.432 -14.964  1.00  0.00     0.025 C 
HETATM   25  C17 UNL     1      -8.458  16.012 -16.236  1.00  0.00     0.038 C 
HETATM   26  C18 UNL     1      -8.414  17.519 -14.290  1.00  0.00     0.038 C 
BRANCH  24  27
HETATM   27  C19 UNL     1      -9.362  15.227 -14.058  1.00  0.00     0.026 C 
HETATM   28  C20 UNL     1      -8.067  14.579 -13.698  1.00  0.00     0.007 C 
ENDBRANCH  24  27
ENDBRANCH  22  24
ENDBRANCH  19  20
BRANCH  19  29
HETATM   29  C21 UNL     1     -12.568  18.872 -16.867  1.00  0.00     0.115 C 
BRANCH  29  30
HETATM   30  O6  UNL     1     -13.736  18.355 -17.111  1.00  0.00    -0.357 OA
ATOM     31  H6  UNL     1     -14.407  18.903 -17.500  1.00  0.00     0.217 HD
ENDBRANCH  29  30
BRANCH  29  32
HETATM   32  C22 UNL     1     -11.931  19.345 -18.086  1.00  0.00     0.109 A 
HETATM   33  N3  UNL     1     -12.303  19.828 -19.234  1.00  0.00    -0.357 N 
HETATM   34  C23 UNL     1     -11.497  20.169 -20.167  1.00  0.00     0.104 A 
ATOM     35  H3  UNL     1     -13.302  19.941 -19.403  1.00  0.00     0.166 HD
HETATM   36  C24 UNL     1     -10.159  20.011 -19.929  1.00  0.00     0.010 A 
HETATM   37  S1  UNL     1     -10.181  19.374 -18.354  1.00  0.00    -0.072 SA
BRANCH  36  38
HETATM   38  C25 UNL     1      -9.010  20.322 -20.836  1.00  0.00     0.160 C 
BRANCH  38  39
HETATM   39  C26 UNL     1      -7.896  19.405 -20.487  1.00  0.00     0.177 C 
HETATM   40  O7  UNL     1      -6.836  19.840 -19.965  1.00  0.00    -0.648 OA
HETATM   41  O8  UNL     1      -8.039  18.063 -20.744  1.00  0.00    -0.648 OA
ENDBRANCH  38  39
ENDBRANCH  36  38
ENDBRANCH  29  32
ENDBRANCH  19  29
ENDBRANCH  14  18
ENDBRANCH   6   8
ENDBRANCH   5   6
ENDBRANCH   4   5
ENDBRANCH   3   4
TORSDOF 14
ENDMDL
MODEL 3
REMARK VINA RESULT: -8.128040258      3.162      9.273
REMARK  14 active torsions:
REMARK  status: ('A' for Active; 'I' for Inactive)
REMARK    1  A    between atoms: C3_3  and  C4_4 
REMARK    2  A    between atoms: C4_4  and  O1_5 
REMARK    3  A    between atoms: O1_5  and  C5_6 
REMARK    4  A    between atoms: C5_6  and  C6_8 
REMARK    5  A    between atoms: C10_13  and  C11_14 
REMARK    6  A    between atoms: C12_17  and  C13_18 
REMARK    7  A    between atoms: C14_19  and  C15_20 
REMARK    8  A    between atoms: C14_19  and  C21_29 
REMARK       I    between atoms: C15_20  and  N2_22 
REMARK    9  A    between atoms: N2_22  and  C16_24 
REMARK   10  A    between atoms: C16_24  and  C19_27 
REMARK   11  A    between atoms: C21_29  and  O6_30 
REMARK   12  A    between atoms: C21_29  and  C22_32 
REMARK   13  A    between atoms: C24_36  and  C25_37 
REMARK   14  A    between atoms: C25_37  and  C26_38 
ROOT
HETATM    1  C1  UNL     1      -7.986  14.753 -13.607  1.00  0.00     0.112 C 
HETATM    2  C2  UNL     1      -8.490  15.399 -14.828  1.00  0.00    -0.109 C 
HETATM    3  C3  UNL     1      -8.929  15.936 -15.827  1.00  0.00    -0.080 C 
ENDROOT
BRANCH   3   4
HETATM    4  C4  UNL     1      -9.486  16.583 -17.020  1.00  0.00     0.272 C 
BRANCH   4   5
HETATM    5  O1  UNL     1     -10.280  17.671 -16.586  1.00  0.00    -0.309 OA
BRANCH   5   6
HETATM    6  C5  UNL     1     -11.570  17.919 -17.012  1.00  0.00     0.271 C 
HETATM    7  O2  UNL     1     -12.412  17.028 -16.687  1.00  0.00    -0.264 OA
BRANCH   6   8
HETATM    8  C6  UNL     1     -12.036  19.092 -17.786  1.00  0.00     0.077 A 
HETATM    9  C7  UNL     1     -11.354  19.276 -19.013  1.00  0.00     0.030 A 
HETATM   10  C8  UNL     1     -11.060  20.273 -18.068  1.00  0.00     0.026 A 
HETATM   11  C9  UNL     1     -10.709  20.453 -16.668  1.00  0.00     0.129 C 
HETATM   12  N1  UNL     1     -11.994  20.379 -16.015  1.00  0.00    -0.375 N 
HETATM   13  C10 UNL     1     -12.071  20.015 -14.711  1.00  0.00     0.171 C 
HETATM   14  C12 UNL     1     -12.976  19.916 -17.002  1.00  0.00     0.126 C 
BRANCH  13  15
HETATM   15  C11 UNL     1     -13.330  20.027 -13.987  1.00  0.00     0.214 C 
HETATM   16  O3  UNL     1     -14.175  19.094 -14.018  1.00  0.00    -0.644 OA
HETATM   17  O4  UNL     1     -13.680  21.113 -13.189  1.00  0.00    -0.644 OA
ENDBRANCH  13  15
BRANCH  14  18
HETATM   18  C13 UNL     1     -13.653  21.013 -17.638  1.00  0.00     0.019 C 
HETATM   19  C14 UNL     1     -14.899  21.469 -17.412  1.00  0.00     0.066 C 
BRANCH  19  20
HETATM   20  C15 UNL     1     -15.380  22.610 -18.187  1.00  0.00     0.254 C 
HETATM   21  O5  UNL     1     -14.797  23.052 -19.179  1.00  0.00    -0.268 OA
HETATM   22  N2  UNL     1     -16.590  23.283 -17.811  1.00  0.00    -0.348 N 
ATOM     23  H2  UNL     1     -17.111  22.966 -16.993  1.00  0.00     0.163 HD
BRANCH  22  24
HETATM   24  C16 UNL     1     -17.088  24.432 -18.600  1.00  0.00     0.025 C 
HETATM   25  C17 UNL     1     -18.533  24.692 -18.207  1.00  0.00     0.038 C 
HETATM   26  C18 UNL     1     -16.252  25.615 -18.253  1.00  0.00     0.038 C 
BRANCH  24  27
HETATM   27  C19 UNL     1     -17.011  24.102 -20.080  1.00  0.00     0.026 C 
HETATM   28  C20 UNL     1     -17.028  25.322 -20.940  1.00  0.00     0.007 C 
ENDBRANCH  24  27
ENDBRANCH  22  24
ENDBRANCH  19  20
BRANCH  19  29
HETATM   29  C21 UNL     1     -15.723  20.836 -16.447  1.00  0.00     0.115 C 
BRANCH  29  30
HETATM   30  O6  UNL     1     -15.799  19.537 -16.443  1.00  0.00    -0.357 OA
ATOM     31  H6  UNL     1     -16.422  19.117 -15.863  1.00  0.00     0.217 HD
ENDBRANCH  29  30
BRANCH  29  32
HETATM   32  C22 UNL     1     -16.545  21.419 -15.398  1.00  0.00     0.109 A 
HETATM   33  N3  UNL     1     -17.685  21.170 -14.825  1.00  0.00    -0.357 N 
HETATM   34  C23 UNL     1     -18.195  21.883 -13.894  1.00  0.00     0.104 A 
ATOM     35  H3  UNL     1     -18.207  20.352 -15.139  1.00  0.00     0.166 HD
HETATM   36  C24 UNL     1     -17.484  22.978 -13.482  1.00  0.00     0.010 A 
HETATM   37  S1  UNL     1     -16.121  22.880 -14.491  1.00  0.00    -0.072 SA
BRANCH  36  38
HETATM   38  C25 UNL     1     -17.843  23.976 -12.427  1.00  0.00     0.160 C 
BRANCH  38  39
HETATM   39  C26 UNL     1     -19.129  24.607 -12.818  1.00  0.00     0.177 C 
HETATM   40  O7  UNL     1     -19.239  25.240 -13.900  1.00  0.00    -0.648 OA
HETATM   41  O8  UNL     1     -20.207  24.489 -11.975  1.00  0.00    -0.648 OA
ENDBRANCH  38  39
ENDBRANCH  36  38
ENDBRANCH  29  32
ENDBRANCH  19  29
ENDBRANCH  14  18
ENDBRANCH   6   8
ENDBRANCH   5   6
ENDBRANCH   4   5
ENDBRANCH   3   4
TORSDOF 14
ENDMDL
MODEL 4
REMARK VINA RESULT: -8.103457448      3.056      9.193
REMARK  14 active torsions:
REMARK  status: ('A' for Active; 'I' for Inactive)
REMARK    1  A    between atoms: C3_3  and  C4_4 
REMARK    2  A    between atoms: C4_4  and  O1_5 
REMARK    3  A    between atoms: O1_5  and  C5_6 
REMARK    4  A    between atoms: C5_6  and  C6_8 
REMARK    5  A    between atoms: C10_13  and  C11_14 
REMARK    6  A    between atoms: C12_17  and  C13_18 
REMARK    7  A    between atoms: C14_19  and  C15_20 
REMARK    8  A    between atoms: C14_19  and  C21_29 
REMARK       I    between atoms: C15_20  and  N2_22 
REMARK    9  A    between atoms: N2_22  and  C16_24 
REMARK   10  A    between atoms: C16_24  and  C19_27 
REMARK   11  A    between atoms: C21_29  and  O6_30 
REMARK   12  A    between atoms: C21_29  and  C22_32 
REMARK   13  A    between atoms: C24_36  and  C25_37 
REMARK   14  A    between atoms: C25_37  and  C26_38 
ROOT
HETATM    1  C1  UNL     1      -7.984  14.671 -13.608  1.00  0.00     0.112 C 
HETATM    2  C2  UNL     1      -8.473  15.348 -14.818  1.00  0.00    -0.109 C 
HETATM    3  C3  UNL     1      -8.900  15.908 -15.809  1.00  0.00    -0.080 C 
ENDROOT
BRANCH   3   4
HETATM    4  C4  UNL     1      -9.443  16.581 -16.995  1.00  0.00     0.272 C 
BRANCH   4   5
HETATM    5  O1  UNL     1     -10.258  17.648 -16.547  1.00  0.00    -0.309 OA
BRANCH   5   6
HETATM    6  C5  UNL     1     -11.536  17.903 -17.002  1.00  0.00     0.271 C 
HETATM    7  O2  UNL     1     -12.396  17.030 -16.677  1.00  0.00    -0.264 OA
BRANCH   6   8
HETATM    8  C6  UNL     1     -11.971  19.066 -17.808  1.00  0.00     0.077 A 
HETATM    9  C7  UNL     1     -11.275  19.209 -19.032  1.00  0.00     0.030 A 
HETATM   10  C8  UNL     1     -10.971  20.222 -18.108  1.00  0.00     0.026 A 
HETATM   11  C9  UNL     1     -10.630  20.428 -16.709  1.00  0.00     0.129 C 
HETATM   12  N1  UNL     1     -11.923  20.394 -16.068  1.00  0.00    -0.375 N 
HETATM   13  C10 UNL     1     -12.020  20.062 -14.757  1.00  0.00     0.171 C 
HETATM   14  C12 UNL     1     -12.904  19.926 -17.053  1.00  0.00     0.126 C 
BRANCH  13  15
HETATM   15  C11 UNL     1     -13.286  20.114 -14.045  1.00  0.00     0.214 C 
HETATM   16  O3  UNL     1     -13.657  21.079 -13.328  1.00  0.00    -0.644 OA
HETATM   17  O4  UNL     1     -14.188  19.057 -14.124  1.00  0.00    -0.644 OA
ENDBRANCH  13  15
BRANCH  14  18
HETATM   18  C13 UNL     1     -13.554  21.020 -17.722  1.00  0.00     0.019 C 
HETATM   19  C14 UNL     1     -14.803  21.487 -17.540  1.00  0.00     0.066 C 
BRANCH  19  20
HETATM   20  C15 UNL     1     -15.252  22.622 -18.341  1.00  0.00     0.254 C 
HETATM   21  O5  UNL     1     -14.586  23.115 -19.254  1.00  0.00    -0.268 OA
HETATM   22  N2  UNL     1     -16.528  23.227 -18.089  1.00  0.00    -0.348 N 
ATOM     23  H2  UNL     1     -17.119  22.867 -17.340  1.00  0.00     0.163 HD
BRANCH  22  24
HETATM   24  C16 UNL     1     -16.993  24.371 -18.906  1.00  0.00     0.025 C 
HETATM   25  C17 UNL     1     -16.094  25.562 -18.617  1.00  0.00     0.038 C 
HETATM   26  C18 UNL     1     -16.870  23.983 -20.339  1.00  0.00     0.038 C 
BRANCH  24  27
HETATM   27  C19 UNL     1     -18.426  24.709 -18.535  1.00  0.00     0.026 C 
HETATM   28  C20 UNL     1     -18.853  24.067 -17.258  1.00  0.00     0.007 C 
ENDBRANCH  24  27
ENDBRANCH  22  24
ENDBRANCH  19  20
BRANCH  19  29
HETATM   29  C21 UNL     1     -15.661  20.868 -16.595  1.00  0.00     0.115 C 
BRANCH  29  30
HETATM   30  O6  UNL     1     -15.780  19.573 -16.610  1.00  0.00    -0.357 OA
ATOM     31  H6  UNL     1     -16.454  19.169 -16.076  1.00  0.00     0.217 HD
ENDBRANCH  29  30
BRANCH  29  32
HETATM   32  C22 UNL     1     -16.478  21.465 -15.549  1.00  0.00     0.109 A 
HETATM   33  N3  UNL     1     -17.619  21.228 -14.975  1.00  0.00    -0.357 N 
HETATM   34  C23 UNL     1     -18.122  21.951 -14.048  1.00  0.00     0.104 A 
ATOM     35  H3  UNL     1     -18.149  20.414 -15.284  1.00  0.00     0.166 HD
HETATM   36  C24 UNL     1     -17.402  23.041 -13.641  1.00  0.00     0.010 A 
HETATM   37  S1  UNL     1     -16.040  22.926 -14.649  1.00  0.00    -0.072 SA
BRANCH  36  38
HETATM   38  C25 UNL     1     -17.751  24.047 -12.591  1.00  0.00     0.160 C 
BRANCH  38  39
HETATM   39  C26 UNL     1     -19.069  24.634 -12.945  1.00  0.00     0.177 C 
HETATM   40  O7  UNL     1     -19.232  25.258 -14.026  1.00  0.00    -0.648 OA
HETATM   41  O8  UNL     1     -20.116  24.484 -12.069  1.00  0.00    -0.648 OA
ENDBRANCH  38  39
ENDBRANCH  36  38
ENDBRANCH  29  32
ENDBRANCH  19  29
ENDBRANCH  14  18
ENDBRANCH   6   8
ENDBRANCH   5   6
ENDBRANCH   4   5
ENDBRANCH   3   4
TORSDOF 14
ENDMDL
MODEL 5
REMARK VINA RESULT: -8.071360638      1.476      1.778
REMARK  14 active torsions:
REMARK  status: ('A' for Active; 'I' for Inactive)
REMARK    1  A    between atoms: C3_3  and  C4_4 
REMARK    2  A    between atoms: C4_4  and  O1_5 
REMARK    3  A    between atoms: O1_5  and  C5_6 
REMARK    4  A    between atoms: C5_6  and  C6_8 
REMARK    5  A    between atoms: C10_13  and  C11_14 
REMARK    6  A    between atoms: C12_17  and  C13_18 
REMARK    7  A    between atoms: C14_19  and  C15_20 
REMARK    8  A    between atoms: C14_19  and  C21_29 
REMARK       I    between atoms: C15_20  and  N2_22 
REMARK    9  A    between atoms: N2_22  and  C16_24 
REMARK   10  A    between atoms: C16_24  and  C19_27 
REMARK   11  A    between atoms: C21_29  and  O6_30 
REMARK   12  A    between atoms: C21_29  and  C22_32 
REMARK   13  A    between atoms: C24_36  and  C25_37 
REMARK   14  A    between atoms: C25_37  and  C26_38 
ROOT
HETATM    1  C1  UNL     1     -18.408  23.947 -17.416  1.00  0.00     0.112 C 
HETATM    2  C2  UNL     1     -18.453  23.165 -16.171  1.00  0.00    -0.109 C 
HETATM    3  C3  UNL     1     -18.488  22.498 -15.154  1.00  0.00    -0.080 C 
ENDROOT
BRANCH   3   4
HETATM    4  C4  UNL     1     -18.532  21.669 -13.945  1.00  0.00     0.272 C 
BRANCH   4   5
HETATM    5  O1  UNL     1     -17.198  21.343 -13.600  1.00  0.00    -0.309 OA
BRANCH   5   6
HETATM    6  C5  UNL     1     -16.488  20.284 -14.128  1.00  0.00     0.271 C 
HETATM    7  O2  UNL     1     -17.082  19.664 -15.061  1.00  0.00    -0.264 OA
BRANCH   6   8
HETATM    8  C6  UNL     1     -15.142  19.828 -13.713  1.00  0.00     0.077 A 
HETATM    9  C7  UNL     1     -15.018  19.599 -12.322  1.00  0.00     0.030 A 
HETATM   10  C8  UNL     1     -14.281  20.711 -12.761  1.00  0.00     0.026 A 
HETATM   11  C9  UNL     1     -14.392  21.898 -13.596  1.00  0.00     0.129 C 
HETATM   12  N1  UNL     1     -14.159  21.369 -14.918  1.00  0.00    -0.375 N 
HETATM   13  C10 UNL     1     -14.643  22.021 -16.004  1.00  0.00     0.171 C 
HETATM   14  C12 UNL     1     -14.179  19.905 -14.829  1.00  0.00     0.126 C 
BRANCH  13  15
HETATM   15  C11 UNL     1     -14.346  21.582 -17.356  1.00  0.00     0.214 C 
HETATM   16  O3  UNL     1     -13.402  22.032 -18.057  1.00  0.00    -0.644 OA
HETATM   17  O4  UNL     1     -15.122  20.603 -17.970  1.00  0.00    -0.644 OA
ENDBRANCH  13  15
BRANCH  14  18
HETATM   18  C13 UNL     1     -12.859  19.360 -14.661  1.00  0.00     0.019 C 
HETATM   19  C14 UNL     1     -12.048  18.833 -15.596  1.00  0.00     0.066 C 
BRANCH  19  20
HETATM   20  C15 UNL     1     -10.736  18.337 -15.190  1.00  0.00     0.254 C 
HETATM   21  O5  UNL     1      -9.864  19.053 -14.695  1.00  0.00    -0.268 OA
HETATM   22  N2  UNL     1     -10.401  16.953 -15.357  1.00  0.00    -0.348 N 
ATOM     23  H2  UNL     1     -11.081  16.314 -15.769  1.00  0.00     0.163 HD
BRANCH  22  24
HETATM   24  C16 UNL     1      -9.076  16.443 -14.935  1.00  0.00     0.025 C 
HETATM   25  C17 UNL     1      -8.333  15.962 -16.170  1.00  0.00     0.038 C 
HETATM   26  C18 UNL     1      -8.335  17.573 -14.309  1.00  0.00     0.038 C 
BRANCH  24  27
HETATM   27  C19 UNL     1      -9.263  15.287 -13.968  1.00  0.00     0.026 C 
HETATM   28  C20 UNL     1      -7.976  14.611 -13.630  1.00  0.00     0.007 C 
ENDBRANCH  24  27
ENDBRANCH  22  24
ENDBRANCH  19  20
BRANCH  19  29
HETATM   29  C21 UNL     1     -12.478  18.753 -16.946  1.00  0.00     0.115 C 
BRANCH  29  30
HETATM   30  O6  UNL     1     -13.627  18.201 -17.206  1.00  0.00    -0.357 OA
ATOM     31  H6  UNL     1     -14.360  18.758 -17.441  1.00  0.00     0.217 HD
ENDBRANCH  29  30
BRANCH  29  32
HETATM   32  C22 UNL     1     -11.821  19.211 -18.161  1.00  0.00     0.109 A 
HETATM   33  N3  UNL     1     -12.172  19.585 -19.355  1.00  0.00    -0.357 N 
HETATM   34  C23 UNL     1     -11.351  19.944 -20.267  1.00  0.00     0.104 A 
ATOM     35  H3  UNL     1     -13.167  19.593 -19.580  1.00  0.00     0.166 HD
HETATM   36  C24 UNL     1     -10.019  19.929 -19.954  1.00  0.00     0.010 A 
HETATM   37  S1  UNL     1     -10.069  19.390 -18.344  1.00  0.00    -0.072 SA
BRANCH  36  38
HETATM   38  C25 UNL     1      -8.855  20.292 -20.821  1.00  0.00     0.160 C 
BRANCH  38  39
HETATM   39  C26 UNL     1      -7.733  19.383 -20.479  1.00  0.00     0.177 C 
HETATM   40  O7  UNL     1      -6.674  19.824 -19.960  1.00  0.00    -0.648 OA
HETATM   41  O8  UNL     1      -7.867  18.040 -20.738  1.00  0.00    -0.648 OA
ENDBRANCH  38  39
ENDBRANCH  36  38
ENDBRANCH  29  32
ENDBRANCH  19  29
ENDBRANCH  14  18
ENDBRANCH   6   8
ENDBRANCH   5   6
ENDBRANCH   4   5
ENDBRANCH   3   4
TORSDOF 14
ENDMDL
