MODEL 1
REMARK VINA RESULT: -9.844054141      0.000      0.000
REMARK  12 active torsions:
REMARK  status: ('A' for Active; 'I' for Inactive)
REMARK    1  A    between atoms: C2_2  and  N1_3 
REMARK    2  A    between atoms: N2_6  and  C5_7 
REMARK    3  A    between atoms: C5_7  and  C6_8 
REMARK    4  A    between atoms: C6_8  and  N3_9 
REMARK    5  A    between atoms: C9_12  and  O1_13 
REMARK    6  A    between atoms: O1_13  and  C10_14 
REMARK    7  A    between atoms: C10_14  and  C11_15 
REMARK       I    between atoms: C11_15  and  N4_17 
REMARK    8  A    between atoms: N4_17  and  C12_19 
REMARK    9  A    between atoms: C12_19  and  C13_20 
REMARK   10  A    between atoms: C13_20  and  C14_21 
REMARK   11  A    between atoms: C14_21  and  N5_22 
REMARK   12  A    between atoms: C24_33  and  N6_34 
ROOT
HETATM    1  N3  UNL     1     -14.380  22.277 -16.381  1.00  0.00    -0.330 N 
HETATM    2  C7  UNL     1     -13.369  21.408 -16.300  1.00  0.00     0.050 A 
HETATM    3  C8  UNL     1     -12.380  21.000 -17.201  1.00  0.00     0.067 A 
HETATM    4  C9  UNL     1     -11.432  20.065 -16.854  1.00  0.00     0.077 A 
HETATM    5  C19 UNL     1     -11.448  19.506 -15.583  1.00  0.00    -0.028 A 
HETATM    6  C20 UNL     1     -10.444  18.492 -15.167  1.00  0.00     0.051 C 
HETATM    7  C21 UNL     1     -12.441  19.929 -14.707  1.00  0.00     0.024 A 
HETATM    8  C22 UNL     1     -13.394  20.859 -15.033  1.00  0.00     0.008 A 
HETATM    9  C23 UNL     1     -14.469  21.443 -14.366  1.00  0.00     0.047 A 
HETATM   10  C24 UNL     1     -14.977  21.286 -13.088  1.00  0.00     0.042 A 
HETATM   11  C25 UNL     1     -16.101  22.055 -12.739  1.00  0.00     0.054 A 
HETATM   12  C26 UNL     1     -16.653  22.909 -13.628  1.00  0.00     0.009 A 
HETATM   13  C27 UNL     1     -17.856  23.709 -13.197  1.00  0.00     0.068 C 
HETATM   14  N7  UNL     1     -16.165  23.062 -14.862  1.00  0.00    -0.345 N 
ATOM     15  H7  UNL     1     -16.603  23.714 -15.512  1.00  0.00     0.167 HD
HETATM   16  C28 UNL     1     -15.090  22.346 -15.237  1.00  0.00     0.121 A 
ENDROOT
BRANCH   4  17
HETATM   17  O1  UNL     1     -10.433  19.614 -17.682  1.00  0.00    -0.342 OA
BRANCH  17  18
HETATM   18  C10 UNL     1     -10.441  19.425 -19.047  1.00  0.00     0.278 C 
BRANCH  18  19
HETATM   19  C11 UNL     1      -9.387  18.475 -19.540  1.00  0.00     0.241 C 
HETATM   20  O2  UNL     1      -9.254  18.157 -20.743  1.00  0.00    -0.271 OA
HETATM   21  N4  UNL     1      -8.509  17.919 -18.587  1.00  0.00    -0.359 N 
ATOM     22  H4  UNL     1      -8.620  18.176 -17.606  1.00  0.00     0.162 HD
BRANCH  21  23
HETATM   23  C12 UNL     1      -7.464  17.003 -18.949  1.00  0.00     0.124 C 
BRANCH  23  24
HETATM   24  C13 UNL     1      -7.434  15.794 -18.066  1.00  0.00     0.050 C 
BRANCH  24  25
HETATM   25  C14 UNL     1      -8.359  15.854 -16.901  1.00  0.00     0.274 C 
BRANCH  25  26
HETATM   26  N5  UNL     1      -7.744  15.742 -15.618  1.00  0.00     0.092 N 
HETATM   27  C15 UNL     1      -6.445  15.176 -15.731  1.00  0.00     0.298 C 
HETATM   28  C16 UNL     1      -6.138  13.982 -14.911  1.00  0.00     0.198 C 
HETATM   29  O3  UNL     1      -7.210  13.353 -14.314  1.00  0.00    -0.388 OA
HETATM   30  C17 UNL     1      -7.880  14.375 -13.599  1.00  0.00     0.198 C 
HETATM   31  C18 UNL     1      -8.592  15.278 -14.574  1.00  0.00     0.298 C 
ENDBRANCH  25  26
ENDBRANCH  24  25
ENDBRANCH  23  24
ENDBRANCH  21  23
ENDBRANCH  18  19
ENDBRANCH  17  18
ENDBRANCH   4  17
BRANCH   1  32
HETATM   32  C6  UNL     1     -14.690  23.059 -17.560  1.00  0.00     0.161 C 
BRANCH  32  33
HETATM   33  C5  UNL     1     -15.933  22.469 -18.182  1.00  0.00     0.292 C 
BRANCH  33  34
HETATM   34  N2  UNL     1     -16.808  23.493 -18.720  1.00  0.00     0.093 N 
HETATM   35  C4  UNL     1     -16.082  24.689 -18.903  1.00  0.00     0.302 C 
HETATM   36  C3  UNL     1     -16.597  25.925 -18.258  1.00  0.00     0.302 C 
HETATM   37  N1  UNL     1     -18.013  26.111 -18.379  1.00  0.00     0.091 N 
HETATM   38  C30 UNL     1     -18.739  24.871 -18.485  1.00  0.00     0.302 C 
HETATM   39  C29 UNL     1     -17.950  23.724 -17.869  1.00  0.00     0.302 C 
BRANCH  37  40
HETATM   40  C2  UNL     1     -18.565  27.046 -17.455  1.00  0.00     0.268 C 
HETATM   41  C1  UNL     1     -20.006  27.373 -17.672  1.00  0.00     0.037 C 
ENDBRANCH  37  40
ENDBRANCH  33  34
ENDBRANCH  32  33
ENDBRANCH   1  32
BRANCH  10  42
HETATM   42  N6  UNL     1     -14.487  20.502 -12.243  1.00  0.00    -0.398 N 
ATOM     43  H62 UNL     1     -14.256  20.853 -11.314  1.00  0.00     0.156 HD
ATOM     44  H61 UNL     1     -14.303  19.517 -12.433  1.00  0.00     0.156 HD
ENDBRANCH  10  42
TORSDOF 12
ENDMDL
MODEL 2
REMARK VINA RESULT: -9.642328612      2.940     11.389
REMARK  12 active torsions:
REMARK  status: ('A' for Active; 'I' for Inactive)
REMARK    1  A    between atoms: C2_2  and  N1_3 
REMARK    2  A    between atoms: N2_6  and  C5_7 
REMARK    3  A    between atoms: C5_7  and  C6_8 
REMARK    4  A    between atoms: C6_8  and  N3_9 
REMARK    5  A    between atoms: C9_12  and  O1_13 
REMARK    6  A    between atoms: O1_13  and  C10_14 
REMARK    7  A    between atoms: C10_14  and  C11_15 
REMARK       I    between atoms: C11_15  and  N4_17 
REMARK    8  A    between atoms: N4_17  and  C12_19 
REMARK    9  A    between atoms: C12_19  and  C13_20 
REMARK   10  A    between atoms: C13_20  and  C14_21 
REMARK   11  A    between atoms: C14_21  and  N5_22 
REMARK   12  A    between atoms: C24_33  and  N6_34 
ROOT
HETATM    1  N3  UNL     1     -10.904  18.448 -17.415  1.00  0.00    -0.330 N 
HETATM    2  C7  UNL     1     -12.070  19.098 -17.429  1.00  0.00     0.050 A 
HETATM    3  C8  UNL     1     -13.248  18.973 -16.684  1.00  0.00     0.067 A 
HETATM    4  C9  UNL     1     -14.331  19.793 -16.905  1.00  0.00     0.077 A 
HETATM    5  C19 UNL     1     -14.264  20.771 -17.889  1.00  0.00    -0.028 A 
HETATM    6  C20 UNL     1     -15.410  21.679 -18.161  1.00  0.00     0.051 C 
HETATM    7  C21 UNL     1     -13.083  20.875 -18.614  1.00  0.00     0.024 A 
HETATM    8  C22 UNL     1     -11.994  20.068 -18.409  1.00  0.00     0.008 A 
HETATM    9  C23 UNL     1     -10.726  19.962 -18.977  1.00  0.00     0.047 A 
HETATM   10  C24 UNL     1     -10.090  20.661 -19.988  1.00  0.00     0.042 A 
HETATM   11  C25 UNL     1      -8.776  20.279 -20.313  1.00  0.00     0.054 A 
HETATM   12  C26 UNL     1      -8.171  19.267 -19.653  1.00  0.00     0.009 A 
HETATM   13  C27 UNL     1      -6.761  18.903 -20.041  1.00  0.00     0.068 C 
HETATM   14  N7  UNL     1      -8.783  18.592 -18.676  1.00  0.00    -0.345 N 
ATOM     15  H7  UNL     1      -8.302  17.832 -18.195  1.00  0.00     0.167 HD
HETATM   16  C28 UNL     1     -10.041  18.924 -18.333  1.00  0.00     0.121 A 
ENDROOT
BRANCH   4  17
HETATM   17  O1  UNL     1     -15.519  19.730 -16.218  1.00  0.00    -0.342 OA
BRANCH  17  18
HETATM   18  C10 UNL     1     -15.746  19.624 -14.862  1.00  0.00     0.278 C 
BRANCH  18  19
HETATM   19  C11 UNL     1     -16.631  20.702 -14.305  1.00  0.00     0.241 C 
HETATM   20  O2  UNL     1     -16.448  21.233 -13.186  1.00  0.00    -0.271 OA
HETATM   21  N4  UNL     1     -17.720  21.128 -15.092  1.00  0.00    -0.359 N 
ATOM     22  H4  UNL     1     -17.870  20.692 -16.002  1.00  0.00     0.162 HD
BRANCH  21  23
HETATM   23  C12 UNL     1     -18.627  22.154 -14.657  1.00  0.00     0.124 C 
BRANCH  23  24
HETATM   24  C13 UNL     1     -18.501  23.407 -15.466  1.00  0.00     0.050 C 
BRANCH  24  25
HETATM   25  C14 UNL     1     -18.853  23.254 -16.905  1.00  0.00     0.274 C 
BRANCH  25  26
HETATM   26  N5  UNL     1     -18.898  24.463 -17.661  1.00  0.00     0.092 N 
HETATM   27  C15 UNL     1     -17.914  24.452 -18.687  1.00  0.00     0.298 C 
HETATM   28  C16 UNL     1     -16.965  25.588 -18.747  1.00  0.00     0.198 C 
HETATM   29  O3  UNL     1     -16.934  26.422 -17.649  1.00  0.00    -0.388 OA
HETATM   30  C17 UNL     1     -18.280  26.817 -17.453  1.00  0.00     0.198 C 
HETATM   31  C18 UNL     1     -19.063  25.654 -16.899  1.00  0.00     0.298 C 
ENDBRANCH  25  26
ENDBRANCH  24  25
ENDBRANCH  23  24
ENDBRANCH  21  23
ENDBRANCH  18  19
ENDBRANCH  17  18
ENDBRANCH   4  17
BRANCH   1  32
HETATM   32  C6  UNL     1     -10.593  17.352 -16.521  1.00  0.00     0.161 C 
BRANCH  32  33
HETATM   33  C5  UNL     1     -10.245  17.947 -15.177  1.00  0.00     0.292 C 
BRANCH  33  34
HETATM   34  N2  UNL     1      -9.352  17.091 -14.420  1.00  0.00     0.093 N 
HETATM   35  C4  UNL     1      -8.013  17.411 -14.729  1.00  0.00     0.302 C 
HETATM   36  C3  UNL     1      -7.124  16.320 -15.204  1.00  0.00     0.302 C 
HETATM   37  N1  UNL     1      -7.246  15.094 -14.471  1.00  0.00     0.091 N 
HETATM   38  C30 UNL     1      -8.557  14.904 -13.903  1.00  0.00     0.302 C 
HETATM   39  C29 UNL     1      -9.605  15.694 -14.675  1.00  0.00     0.302 C 
BRANCH  37  40
HETATM   40  C2  UNL     1      -6.718  13.953 -15.142  1.00  0.00     0.268 C 
HETATM   41  C1  UNL     1      -5.573  13.288 -14.450  1.00  0.00     0.037 C 
ENDBRANCH  37  40
ENDBRANCH  33  34
ENDBRANCH  32  33
ENDBRANCH   1  32
BRANCH  10  42
HETATM   42  N6  UNL     1     -10.625  21.602 -20.617  1.00  0.00    -0.398 N 
ATOM     43  H62 UNL     1     -11.642  21.671 -20.638  1.00  0.00     0.156 HD
ATOM     44  H61 UNL     1     -10.095  22.315 -21.118  1.00  0.00     0.156 HD
ENDBRANCH  10  42
TORSDOF 12
ENDMDL
MODEL 3
REMARK VINA RESULT: -9.637821112      1.071      1.312
REMARK  12 active torsions:
REMARK  status: ('A' for Active; 'I' for Inactive)
REMARK    1  A    between atoms: C2_2  and  N1_3 
REMARK    2  A    between atoms: N2_6  and  C5_7 
REMARK    3  A    between atoms: C5_7  and  C6_8 
REMARK    4  A    between atoms: C6_8  and  N3_9 
REMARK    5  A    between atoms: C9_12  and  O1_13 
REMARK    6  A    between atoms: O1_13  and  C10_14 
REMARK    7  A    between atoms: C10_14  and  C11_15 
REMARK       I    between atoms: C11_15  and  N4_17 
REMARK    8  A    between atoms: N4_17  and  C12_19 
REMARK    9  A    between atoms: C12_19  and  C13_20 
REMARK   10  A    between atoms: C13_20  and  C14_21 
REMARK   11  A    between atoms: C14_21  and  N5_22 
REMARK   12  A    between atoms: C24_33  and  N6_34 
ROOT
HETATM    1  N3  UNL     1     -14.678  20.981 -16.904  1.00  0.00    -0.330 N 
HETATM    2  C7  UNL     1     -13.469  20.451 -16.701  1.00  0.00     0.050 A 
HETATM    3  C8  UNL     1     -12.391  20.168 -17.546  1.00  0.00     0.067 A 
HETATM    4  C9  UNL     1     -11.228  19.608 -17.068  1.00  0.00     0.077 A 
HETATM    5  C19 UNL     1     -11.112  19.311 -15.716  1.00  0.00    -0.028 A 
HETATM    6  C20 UNL     1      -9.875  18.705 -15.157  1.00  0.00     0.051 C 
HETATM    7  C21 UNL     1     -12.198  19.602 -14.898  1.00  0.00     0.024 A 
HETATM    8  C22 UNL     1     -13.364  20.160 -15.355  1.00  0.00     0.008 A 
HETATM    9  C23 UNL     1     -14.569  20.542 -14.769  1.00  0.00     0.047 A 
HETATM   10  C24 UNL     1     -15.035  20.492 -13.467  1.00  0.00     0.042 A 
HETATM   11  C25 UNL     1     -16.333  20.976 -13.225  1.00  0.00     0.054 A 
HETATM   12  C26 UNL     1     -17.084  21.467 -14.235  1.00  0.00     0.009 A 
HETATM   13  C27 UNL     1     -18.466  21.974 -13.916  1.00  0.00     0.068 C 
HETATM   14  N7  UNL     1     -16.635  21.516 -15.492  1.00  0.00    -0.345 N 
ATOM     15  H7  UNL     1     -17.224  21.892 -16.235  1.00  0.00     0.167 HD
HETATM   16  C28 UNL     1     -15.399  21.064 -15.768  1.00  0.00     0.121 A 
ENDROOT
BRANCH   4  17
HETATM   17  O1  UNL     1     -10.130  19.301 -17.834  1.00  0.00    -0.342 OA
BRANCH  17  18
HETATM   18  C10 UNL     1     -10.025  19.153 -19.200  1.00  0.00     0.278 C 
BRANCH  18  19
HETATM   19  C11 UNL     1      -9.032  18.109 -19.628  1.00  0.00     0.241 C 
HETATM   20  O2  UNL     1      -8.555  18.046 -20.783  1.00  0.00    -0.271 OA
HETATM   21  N4  UNL     1      -8.627  17.159 -18.668  1.00  0.00    -0.359 N 
ATOM     22  H4  UNL     1      -9.019  17.210 -17.729  1.00  0.00     0.162 HD
BRANCH  21  23
HETATM   23  C12 UNL     1      -7.680  16.121 -18.969  1.00  0.00     0.124 C 
BRANCH  23  24
HETATM   24  C13 UNL     1      -6.510  16.130 -18.036  1.00  0.00     0.050 C 
BRANCH  24  25
HETATM   25  C14 UNL     1      -6.867  16.245 -16.595  1.00  0.00     0.274 C 
BRANCH  25  26
HETATM   26  N5  UNL     1      -7.385  15.061 -15.991  1.00  0.00     0.092 N 
HETATM   27  C15 UNL     1      -8.689  15.291 -15.472  1.00  0.00     0.298 C 
HETATM   28  C16 UNL     1      -8.935  14.962 -14.049  1.00  0.00     0.198 C 
HETATM   29  O3  UNL     1      -7.821  14.721 -13.271  1.00  0.00    -0.388 OA
HETATM   30  C17 UNL     1      -7.100  13.721 -13.969  1.00  0.00     0.198 C 
HETATM   31  C18 UNL     1      -6.463  14.329 -15.192  1.00  0.00     0.298 C 
ENDBRANCH  25  26
ENDBRANCH  24  25
ENDBRANCH  23  24
ENDBRANCH  21  23
ENDBRANCH  18  19
ENDBRANCH  17  18
ENDBRANCH   4  17
BRANCH   1  32
HETATM   32  C6  UNL     1     -15.171  21.416 -18.194  1.00  0.00     0.161 C 
BRANCH  32  33
HETATM   33  C5  UNL     1     -14.617  22.798 -18.448  1.00  0.00     0.292 C 
BRANCH  33  34
HETATM   34  N2  UNL     1     -15.579  23.653 -19.117  1.00  0.00     0.093 N 
HETATM   35  C4  UNL     1     -15.314  25.002 -18.802  1.00  0.00     0.302 C 
HETATM   36  C3  UNL     1     -16.415  25.816 -18.224  1.00  0.00     0.302 C 
HETATM   37  N1  UNL     1     -17.685  25.635 -18.865  1.00  0.00     0.091 N 
HETATM   38  C30 UNL     1     -17.842  24.327 -19.448  1.00  0.00     0.302 C 
HETATM   39  C29 UNL     1     -16.935  23.312 -18.763  1.00  0.00     0.302 C 
BRANCH  37  40
HETATM   40  C2  UNL     1     -18.799  26.081 -18.097  1.00  0.00     0.268 C 
HETATM   41  C1  UNL     1     -18.484  27.125 -17.076  1.00  0.00     0.037 C 
ENDBRANCH  37  40
ENDBRANCH  33  34
ENDBRANCH  32  33
ENDBRANCH   1  32
BRANCH  10  42
HETATM   42  N6  UNL     1     -14.363  20.042 -12.511  1.00  0.00    -0.398 N 
ATOM     43  H62 UNL     1     -14.285  19.033 -12.389  1.00  0.00     0.156 HD
ATOM     44  H61 UNL     1     -13.881  20.636 -11.836  1.00  0.00     0.156 HD
ENDBRANCH  10  42
TORSDOF 12
ENDMDL
MODEL 4
REMARK VINA RESULT: -9.600256669      1.032      1.269
REMARK  12 active torsions:
REMARK  status: ('A' for Active; 'I' for Inactive)
REMARK    1  A    between atoms: C2_2  and  N1_3 
REMARK    2  A    between atoms: N2_6  and  C5_7 
REMARK    3  A    between atoms: C5_7  and  C6_8 
REMARK    4  A    between atoms: C6_8  and  N3_9 
REMARK    5  A    between atoms: C9_12  and  O1_13 
REMARK    6  A    between atoms: O1_13  and  C10_14 
REMARK    7  A    between atoms: C10_14  and  C11_15 
REMARK       I    between atoms: C11_15  and  N4_17 
REMARK    8  A    between atoms: N4_17  and  C12_19 
REMARK    9  A    between atoms: C12_19  and  C13_20 
REMARK   10  A    between atoms: C13_20  and  C14_21 
REMARK   11  A    between atoms: C14_21  and  N5_22 
REMARK   12  A    between atoms: C24_33  and  N6_34 
ROOT
HETATM    1  N3  UNL     1     -14.021  21.964 -16.211  1.00  0.00    -0.330 N 
HETATM    2  C7  UNL     1     -13.052  21.045 -16.188  1.00  0.00     0.050 A 
HETATM    3  C8  UNL     1     -12.106  20.624 -17.128  1.00  0.00     0.067 A 
HETATM    4  C9  UNL     1     -11.197  19.632 -16.841  1.00  0.00     0.077 A 
HETATM    5  C19 UNL     1     -11.211  19.026 -15.591  1.00  0.00    -0.028 A 
HETATM    6  C20 UNL     1     -10.248  17.950 -15.239  1.00  0.00     0.051 C 
HETATM    7  C21 UNL     1     -12.161  19.462 -14.676  1.00  0.00     0.024 A 
HETATM    8  C22 UNL     1     -13.075  20.449 -14.942  1.00  0.00     0.008 A 
HETATM    9  C23 UNL     1     -14.103  21.058 -14.227  1.00  0.00     0.047 A 
HETATM   10  C24 UNL     1     -14.588  20.878 -12.943  1.00  0.00     0.042 A 
HETATM   11  C25 UNL     1     -15.664  21.686 -12.537  1.00  0.00     0.054 A 
HETATM   12  C26 UNL     1     -16.195  22.600 -13.379  1.00  0.00     0.009 A 
HETATM   13  C27 UNL     1     -17.346  23.439 -12.889  1.00  0.00     0.068 C 
HETATM   14  N7  UNL     1     -15.729  22.776 -14.619  1.00  0.00    -0.345 N 
ATOM     15  H7  UNL     1     -16.149  23.473 -15.233  1.00  0.00     0.167 HD
HETATM   16  C28 UNL     1     -14.699  22.024 -15.048  1.00  0.00     0.121 A 
ENDROOT
BRANCH   4  17
HETATM   17  O1  UNL     1     -10.241  19.165 -17.710  1.00  0.00    -0.342 OA
BRANCH  17  18
HETATM   18  C10 UNL     1     -10.098  19.389 -19.062  1.00  0.00     0.278 C 
BRANCH  18  19
HETATM   19  C11 UNL     1      -8.869  18.764 -19.660  1.00  0.00     0.241 C 
HETATM   20  O2  UNL     1      -7.741  19.305 -19.635  1.00  0.00    -0.271 OA
HETATM   21  N4  UNL     1      -9.009  17.504 -20.276  1.00  0.00    -0.359 N 
ATOM     22  H4  UNL     1      -9.929  17.066 -20.299  1.00  0.00     0.162 HD
BRANCH  21  23
HETATM   23  C12 UNL     1      -7.899  16.816 -20.875  1.00  0.00     0.124 C 
BRANCH  23  24
HETATM   24  C13 UNL     1      -7.398  15.693 -20.022  1.00  0.00     0.050 C 
BRANCH  24  25
HETATM   25  C14 UNL     1      -6.287  16.062 -19.101  1.00  0.00     0.274 C 
BRANCH  25  26
HETATM   26  N5  UNL     1      -6.666  16.317 -17.749  1.00  0.00     0.092 N 
HETATM   27  C15 UNL     1      -5.525  16.327 -16.901  1.00  0.00     0.298 C 
HETATM   28  C16 UNL     1      -5.536  15.435 -15.718  1.00  0.00     0.198 C 
HETATM   29  O3  UNL     1      -6.523  14.472 -15.682  1.00  0.00    -0.388 OA
HETATM   30  C17 UNL     1      -7.733  15.185 -15.867  1.00  0.00     0.198 C 
HETATM   31  C18 UNL     1      -7.831  15.633 -17.302  1.00  0.00     0.298 C 
ENDBRANCH  25  26
ENDBRANCH  24  25
ENDBRANCH  23  24
ENDBRANCH  21  23
ENDBRANCH  18  19
ENDBRANCH  17  18
ENDBRANCH   4  17
BRANCH   1  32
HETATM   32  C6  UNL     1     -14.319  22.805 -17.352  1.00  0.00     0.161 C 
BRANCH  32  33
HETATM   33  C5  UNL     1     -15.441  22.147 -18.119  1.00  0.00     0.292 C 
BRANCH  33  34
HETATM   34  N2  UNL     1     -16.374  23.120 -18.656  1.00  0.00     0.093 N 
HETATM   35  C4  UNL     1     -15.687  24.310 -18.974  1.00  0.00     0.302 C 
HETATM   36  C3  UNL     1     -16.174  25.581 -18.377  1.00  0.00     0.302 C 
HETATM   37  N1  UNL     1     -17.599  25.739 -18.399  1.00  0.00     0.091 N 
HETATM   38  C30 UNL     1     -18.307  24.485 -18.364  1.00  0.00     0.302 C 
HETATM   39  C29 UNL     1     -17.451  23.393 -17.735  1.00  0.00     0.302 C 
BRANCH  37  40
HETATM   40  C2  UNL     1     -18.095  26.727 -17.500  1.00  0.00     0.268 C 
HETATM   41  C1  UNL     1     -19.581  26.872 -17.479  1.00  0.00     0.037 C 
ENDBRANCH  37  40
ENDBRANCH  33  34
ENDBRANCH  32  33
ENDBRANCH   1  32
BRANCH  10  42
HETATM   42  N6  UNL     1     -14.117  20.040 -12.141  1.00  0.00    -0.398 N 
ATOM     43  H62 UNL     1     -13.216  19.607 -12.345  1.00  0.00     0.156 HD
ATOM     44  H61 UNL     1     -14.589  19.760 -11.281  1.00  0.00     0.156 HD
ENDBRANCH  10  42
TORSDOF 12
ENDMDL
MODEL 5
REMARK VINA RESULT: -9.545082551      2.866     11.392
REMARK  12 active torsions:
REMARK  status: ('A' for Active; 'I' for Inactive)
REMARK    1  A    between atoms: C2_2  and  N1_3 
REMARK    2  A    between atoms: N2_6  and  C5_7 
REMARK    3  A    between atoms: C5_7  and  C6_8 
REMARK    4  A    between atoms: C6_8  and  N3_9 
REMARK    5  A    between atoms: C9_12  and  O1_13 
REMARK    6  A    between atoms: O1_13  and  C10_14 
REMARK    7  A    between atoms: C10_14  and  C11_15 
REMARK       I    between atoms: C11_15  and  N4_17 
REMARK    8  A    between atoms: N4_17  and  C12_19 
REMARK    9  A    between atoms: C12_19  and  C13_20 
REMARK   10  A    between atoms: C13_20  and  C14_21 
REMARK   11  A    between atoms: C14_21  and  N5_22 
REMARK   12  A    between atoms: C24_33  and  N6_34 
ROOT
HETATM    1  N3  UNL     1     -10.541  18.135 -17.503  1.00  0.00    -0.330 N 
HETATM    2  C7  UNL     1     -11.546  18.999 -17.671  1.00  0.00     0.050 A 
HETATM    3  C8  UNL     1     -12.786  19.163 -17.043  1.00  0.00     0.067 A 
HETATM    4  C9  UNL     1     -13.655  20.162 -17.418  1.00  0.00     0.077 A 
HETATM    5  C19 UNL     1     -13.306  21.032 -18.442  1.00  0.00    -0.028 A 
HETATM    6  C20 UNL     1     -14.215  22.124 -18.879  1.00  0.00     0.051 C 
HETATM    7  C21 UNL     1     -12.069  20.847 -19.049  1.00  0.00     0.024 A 
HETATM    8  C22 UNL     1     -11.188  19.860 -18.691  1.00  0.00     0.008 A 
HETATM    9  C23 UNL     1      -9.923  19.464 -19.121  1.00  0.00     0.047 A 
HETATM   10  C24 UNL     1      -9.072  19.947 -20.100  1.00  0.00     0.042 A 
HETATM   11  C25 UNL     1      -7.840  19.292 -20.268  1.00  0.00     0.054 A 
HETATM   12  C26 UNL     1      -7.513  18.233 -19.495  1.00  0.00     0.009 A 
HETATM   13  C27 UNL     1      -6.178  17.571 -19.719  1.00  0.00     0.068 C 
HETATM   14  N7  UNL     1      -8.333  17.766 -18.550  1.00  0.00    -0.345 N 
ATOM     15  H7  UNL     1      -8.060  16.964 -17.981  1.00  0.00     0.167 HD
HETATM   16  C28 UNL     1      -9.522  18.363 -18.355  1.00  0.00     0.121 A 
ENDROOT
BRANCH   4  17
HETATM   17  O1  UNL     1     -14.887  20.385 -16.852  1.00  0.00    -0.342 OA
BRANCH  17  18
HETATM   18  C10 UNL     1     -15.479  19.775 -15.766  1.00  0.00     0.278 C 
BRANCH  18  19
HETATM   19  C11 UNL     1     -16.101  20.733 -14.791  1.00  0.00     0.241 C 
HETATM   20  O2  UNL     1     -15.447  21.352 -13.922  1.00  0.00    -0.271 OA
HETATM   21  N4  UNL     1     -17.494  20.934 -14.869  1.00  0.00    -0.359 N 
ATOM     22  H4  UNL     1     -18.027  20.427 -15.575  1.00  0.00     0.162 HD
BRANCH  21  23
HETATM   23  C12 UNL     1     -18.191  21.830 -13.988  1.00  0.00     0.124 C 
BRANCH  23  24
HETATM   24  C13 UNL     1     -18.551  23.121 -14.655  1.00  0.00     0.050 C 
BRANCH  24  25
HETATM   25  C14 UNL     1     -18.805  23.012 -16.118  1.00  0.00     0.274 C 
BRANCH  25  26
HETATM   26  N5  UNL     1     -18.038  23.888 -16.944  1.00  0.00     0.092 N 
HETATM   27  C15 UNL     1     -18.750  25.093 -17.196  1.00  0.00     0.298 C 
HETATM   28  C16 UNL     1     -18.941  25.500 -18.607  1.00  0.00     0.198 C 
HETATM   29  O3  UNL     1     -18.659  24.550 -19.567  1.00  0.00    -0.388 OA
HETATM   30  C17 UNL     1     -17.342  24.119 -19.274  1.00  0.00     0.198 C 
HETATM   31  C18 UNL     1     -17.363  23.265 -18.032  1.00  0.00     0.298 C 
ENDBRANCH  25  26
ENDBRANCH  24  25
ENDBRANCH  23  24
ENDBRANCH  21  23
ENDBRANCH  18  19
ENDBRANCH  17  18
ENDBRANCH   4  17
BRANCH   1  32
HETATM   32  C6  UNL     1     -10.538  17.069 -16.523  1.00  0.00     0.161 C 
BRANCH  32  33
HETATM   33  C5  UNL     1     -10.280  17.695 -15.173  1.00  0.00     0.292 C 
BRANCH  33  34
HETATM   34  N2  UNL     1      -9.339  16.919 -14.388  1.00  0.00     0.093 N 
HETATM   35  C4  UNL     1      -8.021  17.298 -14.717  1.00  0.00     0.302 C 
HETATM   36  C3  UNL     1      -7.076  16.236 -15.153  1.00  0.00     0.302 C 
HETATM   37  N1  UNL     1      -7.130  15.037 -14.370  1.00  0.00     0.091 N 
HETATM   38  C30 UNL     1      -8.426  14.800 -13.787  1.00  0.00     0.302 C 
HETATM   39  C29 UNL     1      -9.519  15.501 -14.585  1.00  0.00     0.302 C 
BRANCH  37  40
HETATM   40  C2  UNL     1      -6.544  13.899 -14.997  1.00  0.00     0.268 C 
HETATM   41  C1  UNL     1      -5.113  14.064 -15.394  1.00  0.00     0.037 C 
ENDBRANCH  37  40
ENDBRANCH  33  34
ENDBRANCH  32  33
ENDBRANCH   1  32
BRANCH  10  42
HETATM   42  N6  UNL     1      -9.349  20.925 -20.831  1.00  0.00    -0.398 N 
ATOM     43  H62 UNL     1      -9.441  20.784 -21.837  1.00  0.00     0.156 HD
ATOM     44  H61 UNL     1      -9.490  21.870 -20.474  1.00  0.00     0.156 HD
ENDBRANCH  10  42
TORSDOF 12
ENDMDL
