MODEL 1
REMARK VINA RESULT: -5.782855890      0.000      0.000
REMARK  13 active torsions:
REMARK  status: ('A' for Active; 'I' for Inactive)
REMARK    1  A    between atoms: C2_2  and  C3_3 
REMARK    2  A    between atoms: C3_3  and  C4_4 
REMARK    3  A    between atoms: C4_4  and  N1_5 
REMARK    4  A    between atoms: C6_8  and  C7_9 
REMARK    5  A    between atoms: C11_16  and  C12_17 
REMARK    6  A    between atoms: C12_17  and  C13_18 
REMARK    7  A    between atoms: C16_23  and  O3_24 
REMARK    8  A    between atoms: C17_26  and  C18_27 
REMARK    9  A    between atoms: C22_34  and  C23_35 
REMARK   10  A    between atoms: C27_42  and  C28_43 
REMARK   11  A    between atoms: C28_43  and  C30_45 
REMARK   12  A    between atoms: C33_51  and  C34_52 
REMARK   13  A    between atoms: C34_52  and  N7_54 
ROOT
HETATM    1  N1  UNL     1      27.459  28.502  17.540  1.00  0.00    -0.335 N 
HETATM    2  C5  UNL     1      28.356  27.531  18.115  1.00  0.00     0.243 C 
HETATM    3  O1  UNL     1      29.131  27.886  19.029  1.00  0.00    -0.271 OA
HETATM    4  C6  UNL     1      28.433  26.138  17.705  1.00  0.00     0.180 C 
HETATM    5  N2  UNL     1      29.171  25.248  18.562  1.00  0.00    -0.346 N 
ATOM      6  H2  UNL     1      29.389  24.349  18.132  1.00  0.00     0.163 HD
HETATM    7  C10 UNL     1      29.643  25.380  19.860  1.00  0.00     0.241 C 
HETATM    8  O2  UNL     1      30.930  25.532  19.949  1.00  0.00    -0.271 OA
HETATM    9  C11 UNL     1      28.961  25.377  21.158  1.00  0.00     0.175 C 
HETATM   10  N3  UNL     1      27.544  25.572  21.171  1.00  0.00    -0.359 N 
ATOM     11  H3  UNL     1      27.281  26.554  21.259  1.00  0.00     0.162 HD
HETATM   12  C16 UNL     1      26.441  24.719  21.090  1.00  0.00     0.135 C 
HETATM   13  C17 UNL     1      25.892  23.937  19.955  1.00  0.00     0.162 C 
HETATM   14  N4  UNL     1      24.474  23.676  20.024  1.00  0.00    -0.347 N 
ATOM     15  H4  UNL     1      24.238  22.705  20.230  1.00  0.00     0.163 HD
HETATM   16  C21 UNL     1      23.372  24.508  19.862  1.00  0.00     0.241 C 
HETATM   17  O4  UNL     1      22.478  24.164  19.003  1.00  0.00    -0.271 OA
HETATM   18  C22 UNL     1      23.039  25.775  20.543  1.00  0.00     0.180 C 
HETATM   19  N5  UNL     1      22.267  26.713  19.795  1.00  0.00    -0.342 N 
ATOM     20  H5  UNL     1      21.896  27.466  20.374  1.00  0.00     0.163 HD
HETATM   21  C26 UNL     1      21.905  26.836  18.460  1.00  0.00     0.265 C 
HETATM   22  O5  UNL     1      20.641  26.724  18.234  1.00  0.00    -0.266 OA
HETATM   23  C27 UNL     1      22.788  27.079  17.296  1.00  0.00     0.084 C 
HETATM   24  N6  UNL     1      23.962  27.441  17.286  1.00  0.00    -0.324 N 
ATOM     25  H6  UNL     1      24.179  27.481  16.291  1.00  0.00     0.169 HD
HETATM   26  C32 UNL     1      25.119  27.813  17.860  1.00  0.00     0.247 C 
HETATM   27  O6  UNL     1      25.477  27.965  19.066  1.00  0.00    -0.271 OA
HETATM   28  C33 UNL     1      26.262  28.128  16.883  1.00  0.00     0.209 C 
ENDROOT
BRANCH  28  29
HETATM   29  C34 UNL     1      25.721  28.995  15.820  1.00  0.00     0.211 C 
HETATM   30  C35 UNL     1      26.525  29.055  14.562  1.00  0.00     0.042 C 
BRANCH  29  31
HETATM   31  N7  UNL     1      25.278  30.307  16.232  1.00  0.00    -0.073 N 
ATOM     32  H73 UNL     1      24.548  30.639  15.601  1.00  0.00     0.274 HD
ATOM     33  H72 UNL     1      24.751  30.235  17.102  1.00  0.00     0.274 HD
ATOM     34  H71 UNL     1      26.003  31.017  16.325  1.00  0.00     0.274 HD
ENDBRANCH  29  31
ENDBRANCH  28  29
BRANCH   1  35
HETATM   35  C4  UNL     1      27.879  29.880  17.667  1.00  0.00     0.127 C 
BRANCH  35  36
HETATM   36  C3  UNL     1      29.023  30.282  16.795  1.00  0.00     0.020 C 
BRANCH  36  37
HETATM   37  C2  UNL     1      29.082  31.809  16.631  1.00  0.00    -0.003 C 
HETATM   38  C1  UNL     1      28.283  32.235  15.421  1.00  0.00     0.005 C 
ENDBRANCH  36  37
ENDBRANCH  35  36
ENDBRANCH   1  35
BRANCH   4  39
HETATM   39  C7  UNL     1      29.176  26.146  16.351  1.00  0.00     0.009 C 
HETATM   40  C8  UNL     1      28.273  25.784  15.220  1.00  0.00     0.012 C 
HETATM   41  C9  UNL     1      30.347  25.191  16.390  1.00  0.00     0.012 C 
ENDBRANCH   4  39
BRANCH  23  42
HETATM   42  C28 UNL     1      22.133  26.858  15.946  1.00  0.00     0.037 C 
HETATM   43  C29 UNL     1      23.264  26.691  14.954  1.00  0.00     0.016 C 
BRANCH  42  44
HETATM   44  C30 UNL     1      21.182  27.952  15.573  1.00  0.00     0.006 C 
HETATM   45  C31 UNL     1      20.233  27.441  14.478  1.00  0.00     0.006 C 
ENDBRANCH  42  44
ENDBRANCH  23  42
BRANCH   9  46
HETATM   46  C12 UNL     1      29.453  24.261  22.010  1.00  0.00     0.038 C 
BRANCH  46  47
HETATM   47  C13 UNL     1      29.823  24.539  23.415  1.00  0.00    -0.020 C 
HETATM   48  C14 UNL     1      28.594  24.231  24.318  1.00  0.00     0.009 C 
HETATM   49  C15 UNL     1      30.078  26.021  23.590  1.00  0.00     0.009 C 
ENDBRANCH  46  47
ENDBRANCH   9  46
BRANCH  18  50
HETATM   50  C23 UNL     1      22.212  25.477  21.820  1.00  0.00     0.009 C 
HETATM   51  C24 UNL     1      22.159  26.690  22.668  1.00  0.00     0.012 C 
HETATM   52  C25 UNL     1      20.862  24.939  21.422  1.00  0.00     0.012 C 
ENDBRANCH  18  50
BRANCH  12  53
HETATM   53  O3  UNL     1      25.704  24.518  22.155  1.00  0.00    -0.348 OA
ATOM     54  H3  UNL     1      24.942  23.954  22.094  1.00  0.00     0.219 HD
ENDBRANCH  12  53
BRANCH  13  55
HETATM   55  C18 UNL     1      26.649  22.603  19.970  1.00  0.00     0.008 C 
HETATM   56  C19 UNL     1      25.917  21.583  19.100  1.00  0.00     0.012 C 
HETATM   57  C20 UNL     1      26.744  22.034  21.348  1.00  0.00     0.012 C 
ENDBRANCH  13  55
TORSDOF 13
ENDMDL
MODEL 2
REMARK VINA RESULT: -5.269119918      1.973      6.721
REMARK  13 active torsions:
REMARK  status: ('A' for Active; 'I' for Inactive)
REMARK    1  A    between atoms: C2_2  and  C3_3 
REMARK    2  A    between atoms: C3_3  and  C4_4 
REMARK    3  A    between atoms: C4_4  and  N1_5 
REMARK    4  A    between atoms: C6_8  and  C7_9 
REMARK    5  A    between atoms: C11_16  and  C12_17 
REMARK    6  A    between atoms: C12_17  and  C13_18 
REMARK    7  A    between atoms: C16_23  and  O3_24 
REMARK    8  A    between atoms: C17_26  and  C18_27 
REMARK    9  A    between atoms: C22_34  and  C23_35 
REMARK   10  A    between atoms: C27_42  and  C28_43 
REMARK   11  A    between atoms: C28_43  and  C30_45 
REMARK   12  A    between atoms: C33_51  and  C34_52 
REMARK   13  A    between atoms: C34_52  and  N7_54 
ROOT
HETATM    1  N1  UNL     1      26.540  24.059  19.671  1.00  0.00    -0.335 N 
HETATM    2  C5  UNL     1      27.527  24.920  19.069  1.00  0.00     0.243 C 
HETATM    3  O1  UNL     1      28.354  24.432  18.270  1.00  0.00    -0.271 OA
HETATM    4  C6  UNL     1      27.638  26.347  19.326  1.00  0.00     0.180 C 
HETATM    5  N2  UNL     1      28.485  27.103  18.441  1.00  0.00    -0.346 N 
ATOM      6  H2  UNL     1      28.711  28.037  18.784  1.00  0.00     0.163 HD
HETATM    7  C10 UNL     1      29.052  26.804  17.210  1.00  0.00     0.241 C 
HETATM    8  O2  UNL     1      30.333  26.592  17.249  1.00  0.00    -0.271 OA
HETATM    9  C11 UNL     1      28.478  26.683  15.867  1.00  0.00     0.175 C 
HETATM   10  N3  UNL     1      27.059  26.543  15.755  1.00  0.00    -0.359 N 
ATOM     11  H3  UNL     1      26.756  25.569  15.756  1.00  0.00     0.162 HD
HETATM   12  C16 UNL     1      25.995  27.443  15.646  1.00  0.00     0.135 C 
HETATM   13  C17 UNL     1      25.396  28.371  16.636  1.00  0.00     0.162 C 
HETATM   14  N4  UNL     1      24.003  28.678  16.417  1.00  0.00    -0.347 N 
ATOM     15  H4  UNL     1      23.831  29.627  16.084  1.00  0.00     0.163 HD
HETATM   16  C21 UNL     1      22.851  27.914  16.576  1.00  0.00     0.241 C 
HETATM   17  O4  UNL     1      21.909  28.390  17.313  1.00  0.00    -0.271 OA
HETATM   18  C22 UNL     1      22.513  26.591  16.016  1.00  0.00     0.180 C 
HETATM   19  N5  UNL     1      21.639  25.777  16.796  1.00  0.00    -0.342 N 
ATOM     20  H5  UNL     1      21.279  24.977  16.275  1.00  0.00     0.163 HD
HETATM   21  C26 UNL     1      21.166  25.823  18.100  1.00  0.00     0.265 C 
HETATM   22  O5  UNL     1      19.895  26.010  18.203  1.00  0.00    -0.266 OA
HETATM   23  C27 UNL     1      21.940  25.682  19.355  1.00  0.00     0.084 C 
HETATM   24  N6  UNL     1      23.090  25.278  19.506  1.00  0.00    -0.324 N 
ATOM     25  H6  UNL     1      23.224  25.344  20.514  1.00  0.00     0.169 HD
HETATM   26  C32 UNL     1      24.270  24.796  19.077  1.00  0.00     0.247 C 
HETATM   27  O6  UNL     1      24.715  24.493  17.931  1.00  0.00    -0.271 OA
HETATM   28  C33 UNL     1      25.314  24.553  20.177  1.00  0.00     0.209 C 
ENDROOT
BRANCH  28  29
HETATM   29  C34 UNL     1      24.648  23.836  21.281  1.00  0.00     0.211 C 
HETATM   30  C35 UNL     1      25.539  23.394  22.396  1.00  0.00     0.042 C 
BRANCH  29  31
HETATM   31  N7  UNL     1      23.719  22.798  20.898  1.00  0.00    -0.073 N 
ATOM     32  H73 UNL     1      24.181  21.890  20.937  1.00  0.00     0.274 HD
ATOM     33  H72 UNL     1      23.015  22.679  21.625  1.00  0.00     0.274 HD
ATOM     34  H71 UNL     1      23.263  22.916  19.993  1.00  0.00     0.274 HD
ENDBRANCH  29  31
ENDBRANCH  28  29
BRANCH   1  35
HETATM   35  C4  UNL     1      26.901  22.659  19.735  1.00  0.00     0.127 C 
BRANCH  35  36
HETATM   36  C3  UNL     1      26.209  21.776  18.749  1.00  0.00     0.020 C 
BRANCH  36  37
HETATM   37  C2  UNL     1      26.408  20.293  19.102  1.00  0.00    -0.003 C 
HETATM   38  C1  UNL     1      27.406  20.154  20.228  1.00  0.00     0.005 C 
ENDBRANCH  36  37
ENDBRANCH  35  36
ENDBRANCH   1  35
BRANCH   4  39
HETATM   39  C7  UNL     1      28.269  26.467  20.731  1.00  0.00     0.009 C 
HETATM   40  C8  UNL     1      27.351  27.139  21.696  1.00  0.00     0.012 C 
HETATM   41  C9  UNL     1      29.572  27.229  20.657  1.00  0.00     0.012 C 
ENDBRANCH   4  39
BRANCH  23  42
HETATM   42  C28 UNL     1      21.190  26.083  20.611  1.00  0.00     0.037 C 
HETATM   43  C29 UNL     1      21.958  27.244  21.205  1.00  0.00     0.016 C 
BRANCH  42  44
HETATM   44  C30 UNL     1      21.009  24.947  21.570  1.00  0.00     0.006 C 
HETATM   45  C31 UNL     1      19.695  24.221  21.243  1.00  0.00     0.006 C 
ENDBRANCH  42  44
ENDBRANCH  23  42
BRANCH   9  46
HETATM   46  C12 UNL     1      29.090  27.673  14.941  1.00  0.00     0.038 C 
BRANCH  46  47
HETATM   47  C13 UNL     1      29.573  28.962  15.485  1.00  0.00    -0.020 C 
HETATM   48  C14 UNL     1      28.920  30.116  14.671  1.00  0.00     0.009 C 
HETATM   49  C15 UNL     1      31.060  29.096  15.233  1.00  0.00     0.009 C 
ENDBRANCH  46  47
ENDBRANCH   9  46
BRANCH  18  50
HETATM   50  C23 UNL     1      21.807  26.772  14.648  1.00  0.00     0.009 C 
HETATM   51  C24 UNL     1      21.465  25.442  14.090  1.00  0.00     0.012 C 
HETATM   52  C25 UNL     1      20.628  27.695  14.816  1.00  0.00     0.012 C 
ENDBRANCH  18  50
BRANCH  12  53
HETATM   53  O3  UNL     1      25.357  27.548  14.506  1.00  0.00    -0.348 OA
ATOM     54  H3  UNL     1      25.789  27.282  13.704  1.00  0.00     0.219 HD
ENDBRANCH  12  53
BRANCH  13  55
HETATM   55  C18 UNL     1      26.216  29.664  16.536  1.00  0.00     0.008 C 
HETATM   56  C19 UNL     1      26.853  29.977  17.888  1.00  0.00     0.012 C 
HETATM   57  C20 UNL     1      25.365  30.833  16.158  1.00  0.00     0.012 C 
ENDBRANCH  13  55
TORSDOF 13
ENDMDL
MODEL 3
REMARK VINA RESULT: -5.178435506      2.195      7.092
REMARK  13 active torsions:
REMARK  status: ('A' for Active; 'I' for Inactive)
REMARK    1  A    between atoms: C2_2  and  C3_3 
REMARK    2  A    between atoms: C3_3  and  C4_4 
REMARK    3  A    between atoms: C4_4  and  N1_5 
REMARK    4  A    between atoms: C6_8  and  C7_9 
REMARK    5  A    between atoms: C11_16  and  C12_17 
REMARK    6  A    between atoms: C12_17  and  C13_18 
REMARK    7  A    between atoms: C16_23  and  O3_24 
REMARK    8  A    between atoms: C17_26  and  C18_27 
REMARK    9  A    between atoms: C22_34  and  C23_35 
REMARK   10  A    between atoms: C27_42  and  C28_43 
REMARK   11  A    between atoms: C28_43  and  C30_45 
REMARK   12  A    between atoms: C33_51  and  C34_52 
REMARK   13  A    between atoms: C34_52  and  N7_54 
ROOT
HETATM    1  N1  UNL     1      29.274  27.221  16.885  1.00  0.00    -0.335 N 
HETATM    2  C5  UNL     1      27.936  27.755  16.903  1.00  0.00     0.243 C 
HETATM    3  O1  UNL     1      27.282  27.796  15.839  1.00  0.00    -0.271 OA
HETATM    4  C6  UNL     1      27.270  28.264  18.092  1.00  0.00     0.180 C 
HETATM    5  N2  UNL     1      25.852  28.496  17.994  1.00  0.00    -0.346 N 
ATOM      6  H2  UNL     1      25.472  29.055  18.758  1.00  0.00     0.163 HD
HETATM    7  C10 UNL     1      24.905  28.105  17.058  1.00  0.00     0.241 C 
HETATM    8  O2  UNL     1      24.487  29.064  16.287  1.00  0.00    -0.271 OA
HETATM    9  C11 UNL     1      24.281  26.810  16.773  1.00  0.00     0.175 C 
HETATM   10  N3  UNL     1      24.905  25.636  17.301  1.00  0.00    -0.359 N 
ATOM     11  H3  UNL     1      25.583  25.225  16.658  1.00  0.00     0.162 HD
HETATM   12  C16 UNL     1      24.793  24.925  18.499  1.00  0.00     0.135 C 
HETATM   13  C17 UNL     1      25.234  25.258  19.876  1.00  0.00     0.162 C 
HETATM   14  N4  UNL     1      25.522  24.119  20.714  1.00  0.00    -0.347 N 
ATOM     15  H4  UNL     1      24.833  23.957  21.449  1.00  0.00     0.163 HD
HETATM   16  C21 UNL     1      26.567  23.202  20.702  1.00  0.00     0.241 C 
HETATM   17  O4  UNL     1      27.233  23.033  21.791  1.00  0.00    -0.271 OA
HETATM   18  C22 UNL     1      27.061  22.352  19.602  1.00  0.00     0.180 C 
HETATM   19  N5  UNL     1      28.449  22.022  19.630  1.00  0.00    -0.342 N 
ATOM     20  H5  UNL     1      28.689  21.276  18.977  1.00  0.00     0.163 HD
HETATM   21  C26 UNL     1      29.548  22.484  20.342  1.00  0.00     0.265 C 
HETATM   22  O5  UNL     1      30.076  21.616  21.136  1.00  0.00    -0.266 OA
HETATM   23  C27 UNL     1      30.169  23.827  20.289  1.00  0.00     0.084 C 
HETATM   24  N6  UNL     1      29.995  24.721  19.464  1.00  0.00    -0.324 N 
ATOM     25  H6  UNL     1      30.607  25.463  19.800  1.00  0.00     0.169 HD
HETATM   26  C32 UNL     1      29.444  25.262  18.363  1.00  0.00     0.247 C 
HETATM   27  O6  UNL     1      28.612  24.831  17.511  1.00  0.00    -0.271 OA
HETATM   28  C33 UNL     1      29.894  26.696  18.045  1.00  0.00     0.209 C 
ENDROOT
BRANCH  28  29
HETATM   29  C34 UNL     1      31.363  26.744  18.164  1.00  0.00     0.211 C 
HETATM   30  C35 UNL     1      31.945  28.091  18.449  1.00  0.00     0.042 C 
BRANCH  29  31
HETATM   31  N7  UNL     1      32.108  26.048  17.140  1.00  0.00    -0.073 N 
ATOM     32  H73 UNL     1      32.924  25.597  17.553  1.00  0.00     0.274 HD
ATOM     33  H72 UNL     1      31.584  25.230  16.828  1.00  0.00     0.274 HD
ATOM     34  H71 UNL     1      32.391  26.604  16.334  1.00  0.00     0.274 HD
ENDBRANCH  29  31
ENDBRANCH  28  29
BRANCH   1  35
HETATM   35  C4  UNL     1      29.943  27.277  15.604  1.00  0.00     0.127 C 
BRANCH  35  36
HETATM   36  C3  UNL     1      30.306  28.646  15.133  1.00  0.00     0.020 C 
BRANCH  36  37
HETATM   37  C2  UNL     1      30.233  28.741  13.601  1.00  0.00    -0.003 C 
HETATM   38  C1  UNL     1      30.752  30.082  13.135  1.00  0.00     0.005 C 
ENDBRANCH  36  37
ENDBRANCH  35  36
ENDBRANCH   1  35
BRANCH   4  39
HETATM   39  C7  UNL     1      27.913  29.641  18.369  1.00  0.00     0.009 C 
HETATM   40  C8  UNL     1      28.453  29.732  19.757  1.00  0.00     0.012 C 
HETATM   41  C9  UNL     1      26.904  30.744  18.145  1.00  0.00     0.012 C 
ENDBRANCH   4  39
BRANCH  23  42
HETATM   42  C28 UNL     1      31.158  24.114  21.403  1.00  0.00     0.037 C 
HETATM   43  C29 UNL     1      30.347  24.687  22.545  1.00  0.00     0.016 C 
BRANCH  42  44
HETATM   44  C30 UNL     1      32.278  25.008  20.972  1.00  0.00     0.006 C 
HETATM   45  C31 UNL     1      32.225  26.309  21.789  1.00  0.00     0.006 C 
ENDBRANCH  42  44
ENDBRANCH  23  42
BRANCH   9  46
HETATM   46  C12 UNL     1      22.807  26.882  16.963  1.00  0.00     0.038 C 
BRANCH  46  47
HETATM   47  C13 UNL     1      21.959  27.324  15.834  1.00  0.00    -0.020 C 
HETATM   48  C14 UNL     1      20.486  26.927  16.139  1.00  0.00     0.009 C 
HETATM   49  C15 UNL     1      22.326  26.549  14.587  1.00  0.00     0.009 C 
ENDBRANCH  46  47
ENDBRANCH   9  46
BRANCH  18  50
HETATM   50  C23 UNL     1      26.310  20.996  19.616  1.00  0.00     0.009 C 
HETATM   51  C24 UNL     1      25.614  20.804  18.322  1.00  0.00     0.012 C 
HETATM   52  C25 UNL     1      27.277  19.895  19.969  1.00  0.00     0.012 C 
ENDBRANCH  18  50
BRANCH  12  53
HETATM   53  O3  UNL     1      24.214  23.750  18.498  1.00  0.00    -0.348 OA
ATOM     54  H3  UNL     1      23.266  23.697  18.514  1.00  0.00     0.219 HD
ENDBRANCH  12  53
BRANCH  13  55
HETATM   55  C18 UNL     1      24.081  26.058  20.494  1.00  0.00     0.008 C 
HETATM   56  C19 UNL     1      24.262  26.140  22.009  1.00  0.00     0.012 C 
HETATM   57  C20 UNL     1      22.756  25.416  20.233  1.00  0.00     0.012 C 
ENDBRANCH  13  55
TORSDOF 13
ENDMDL
MODEL 4
REMARK VINA RESULT: -5.058733896      2.089      8.400
REMARK  13 active torsions:
REMARK  status: ('A' for Active; 'I' for Inactive)
REMARK    1  A    between atoms: C2_2  and  C3_3 
REMARK    2  A    between atoms: C3_3  and  C4_4 
REMARK    3  A    between atoms: C4_4  and  N1_5 
REMARK    4  A    between atoms: C6_8  and  C7_9 
REMARK    5  A    between atoms: C11_16  and  C12_17 
REMARK    6  A    between atoms: C12_17  and  C13_18 
REMARK    7  A    between atoms: C16_23  and  O3_24 
REMARK    8  A    between atoms: C17_26  and  C18_27 
REMARK    9  A    between atoms: C22_34  and  C23_35 
REMARK   10  A    between atoms: C27_42  and  C28_43 
REMARK   11  A    between atoms: C28_43  and  C30_45 
REMARK   12  A    between atoms: C33_51  and  C34_52 
REMARK   13  A    between atoms: C34_52  and  N7_54 
ROOT
HETATM    1  N1  UNL     1      26.624  24.662  22.335  1.00  0.00    -0.335 N 
HETATM    2  C5  UNL     1      25.654  24.496  21.282  1.00  0.00     0.243 C 
HETATM    3  O1  UNL     1      24.463  24.812  21.496  1.00  0.00    -0.271 OA
HETATM    4  C6  UNL     1      25.959  23.979  19.957  1.00  0.00     0.180 C 
HETATM    5  N2  UNL     1      24.946  24.142  18.947  1.00  0.00    -0.346 N 
ATOM      6  H2  UNL     1      25.102  23.577  18.112  1.00  0.00     0.163 HD
HETATM    7  C10 UNL     1      23.798  24.921  18.892  1.00  0.00     0.241 C 
HETATM    8  O2  UNL     1      22.692  24.251  19.012  1.00  0.00    -0.271 OA
HETATM    9  C11 UNL     1      23.597  26.362  18.722  1.00  0.00     0.175 C 
HETATM   10  N3  UNL     1      24.718  27.225  18.934  1.00  0.00    -0.359 N 
ATOM     11  H3  UNL     1      24.789  27.551  19.898  1.00  0.00     0.162 HD
HETATM   12  C16 UNL     1      25.736  27.721  18.116  1.00  0.00     0.135 C 
HETATM   13  C17 UNL     1      26.911  27.052  17.506  1.00  0.00     0.162 C 
HETATM   14  N4  UNL     1      28.042  27.915  17.258  1.00  0.00    -0.347 N 
ATOM     15  H4  UNL     1      28.203  28.119  16.272  1.00  0.00     0.163 HD
HETATM   16  C21 UNL     1      28.951  28.518  18.121  1.00  0.00     0.241 C 
HETATM   17  O4  UNL     1      30.205  28.317  17.910  1.00  0.00    -0.271 OA
HETATM   18  C22 UNL     1      28.708  29.389  19.287  1.00  0.00     0.180 C 
HETATM   19  N5  UNL     1      29.680  29.339  20.329  1.00  0.00    -0.342 N 
ATOM     20  H5  UNL     1      29.575  30.099  21.002  1.00  0.00     0.163 HD
HETATM   21  C26 UNL     1      30.737  28.492  20.640  1.00  0.00     0.265 C 
HETATM   22  O5  UNL     1      31.901  29.043  20.578  1.00  0.00    -0.266 OA
HETATM   23  C27 UNL     1      30.676  27.064  21.027  1.00  0.00     0.084 C 
HETATM   24  N6  UNL     1      29.699  26.404  21.370  1.00  0.00    -0.324 N 
ATOM     25  H6  UNL     1      30.097  25.482  21.543  1.00  0.00     0.169 HD
HETATM   26  C32 UNL     1      28.395  26.223  21.643  1.00  0.00     0.247 C 
HETATM   27  O6  UNL     1      27.391  26.996  21.623  1.00  0.00    -0.271 OA
HETATM   28  C33 UNL     1      28.008  24.799  22.072  1.00  0.00     0.209 C 
ENDROOT
BRANCH  28  29
HETATM   29  C34 UNL     1      28.983  24.353  23.085  1.00  0.00     0.211 C 
HETATM   30  C35 UNL     1      28.982  22.888  23.382  1.00  0.00     0.042 C 
BRANCH  29  31
HETATM   31  N7  UNL     1      29.053  25.141  24.293  1.00  0.00    -0.073 N 
ATOM     32  H73 UNL     1      29.962  25.599  24.356  1.00  0.00     0.274 HD
ATOM     33  H72 UNL     1      28.443  25.954  24.210  1.00  0.00     0.274 HD
ATOM     34  H71 UNL     1      28.853  24.648  25.163  1.00  0.00     0.274 HD
ENDBRANCH  29  31
ENDBRANCH  28  29
BRANCH   1  35
HETATM   35  C4  UNL     1      26.083  24.658  23.677  1.00  0.00     0.127 C 
BRANCH  35  36
HETATM   36  C3  UNL     1      25.743  26.003  24.231  1.00  0.00     0.020 C 
BRANCH  36  37
HETATM   37  C2  UNL     1      25.462  25.923  25.739  1.00  0.00    -0.003 C 
HETATM   38  C1  UNL     1      24.238  26.740  26.086  1.00  0.00     0.005 C 
ENDBRANCH  36  37
ENDBRANCH  35  36
ENDBRANCH   1  35
BRANCH   4  39
HETATM   39  C7  UNL     1      26.142  22.456  20.140  1.00  0.00     0.009 C 
HETATM   40  C8  UNL     1      27.566  22.044  19.967  1.00  0.00     0.012 C 
HETATM   41  C9  UNL     1      25.274  21.702  19.159  1.00  0.00     0.012 C 
ENDBRANCH   4  39
BRANCH  23  42
HETATM   42  C28 UNL     1      32.010  26.343  21.003  1.00  0.00     0.037 C 
HETATM   43  C29 UNL     1      31.988  25.463  19.772  1.00  0.00     0.016 C 
BRANCH  42  44
HETATM   44  C30 UNL     1      32.284  25.583  22.264  1.00  0.00     0.006 C 
HETATM   45  C31 UNL     1      32.254  26.557  23.452  1.00  0.00     0.006 C 
ENDBRANCH  42  44
ENDBRANCH  23  42
BRANCH   9  46
HETATM   46  C12 UNL     1      22.807  26.642  17.492  1.00  0.00     0.038 C 
BRANCH  46  47
HETATM   47  C13 UNL     1      21.443  27.200  17.626  1.00  0.00    -0.020 C 
HETATM   48  C14 UNL     1      21.111  27.329  19.141  1.00  0.00     0.009 C 
HETATM   49  C15 UNL     1      20.434  26.211  17.085  1.00  0.00     0.009 C 
ENDBRANCH  46  47
ENDBRANCH   9  46
BRANCH  18  50
HETATM   50  C23 UNL     1      28.664  30.869  18.829  1.00  0.00     0.009 C 
HETATM   51  C24 UNL     1      27.482  31.535  19.425  1.00  0.00     0.012 C 
HETATM   52  C25 UNL     1      29.978  31.530  19.155  1.00  0.00     0.012 C 
ENDBRANCH  18  50
BRANCH  12  53
HETATM   53  O3  UNL     1      25.733  28.988  17.781  1.00  0.00    -0.348 OA
ATOM     54  H3  UNL     1      26.165  29.620  18.343  1.00  0.00     0.219 HD
ENDBRANCH  12  53
BRANCH  13  55
HETATM   55  C18 UNL     1      26.413  26.483  16.171  1.00  0.00     0.008 C 
HETATM   56  C19 UNL     1      27.581  25.865  15.405  1.00  0.00     0.012 C 
HETATM   57  C20 UNL     1      25.816  27.543  15.304  1.00  0.00     0.012 C 
ENDBRANCH  13  55
TORSDOF 13
ENDMDL
MODEL 5
REMARK VINA RESULT: -4.984879286      2.566      4.223
REMARK  13 active torsions:
REMARK  status: ('A' for Active; 'I' for Inactive)
REMARK    1  A    between atoms: C2_2  and  C3_3 
REMARK    2  A    between atoms: C3_3  and  C4_4 
REMARK    3  A    between atoms: C4_4  and  N1_5 
REMARK    4  A    between atoms: C6_8  and  C7_9 
REMARK    5  A    between atoms: C11_16  and  C12_17 
REMARK    6  A    between atoms: C12_17  and  C13_18 
REMARK    7  A    between atoms: C16_23  and  O3_24 
REMARK    8  A    between atoms: C17_26  and  C18_27 
REMARK    9  A    between atoms: C22_34  and  C23_35 
REMARK   10  A    between atoms: C27_42  and  C28_43 
REMARK   11  A    between atoms: C28_43  and  C30_45 
REMARK   12  A    between atoms: C33_51  and  C34_52 
REMARK   13  A    between atoms: C34_52  and  N7_54 
ROOT
HETATM    1  N1  UNL     1      29.503  29.368  20.111  1.00  0.00    -0.335 N 
HETATM    2  C5  UNL     1      29.597  28.451  21.219  1.00  0.00     0.243 C 
HETATM    3  O1  UNL     1      29.376  28.870  22.376  1.00  0.00    -0.271 OA
HETATM    4  C6  UNL     1      29.937  27.043  21.094  1.00  0.00     0.180 C 
HETATM    5  N2  UNL     1      29.714  26.215  22.250  1.00  0.00    -0.346 N 
ATOM      6  H2  UNL     1      30.167  25.303  22.197  1.00  0.00     0.163 HD
HETATM    7  C10 UNL     1      28.999  26.421  23.422  1.00  0.00     0.241 C 
HETATM    8  O2  UNL     1      29.738  26.613  24.472  1.00  0.00    -0.271 OA
HETATM    9  C11 UNL     1      27.560  26.461  23.701  1.00  0.00     0.175 C 
HETATM   10  N3  UNL     1      26.667  26.618  22.594  1.00  0.00    -0.359 N 
ATOM     11  H3  UNL     1      26.453  27.595  22.394  1.00  0.00     0.162 HD
HETATM   12  C16 UNL     1      26.023  25.731  21.728  1.00  0.00     0.135 C 
HETATM   13  C17 UNL     1      26.549  24.882  20.631  1.00  0.00     0.162 C 
HETATM   14  N4  UNL     1      25.603  24.586  19.583  1.00  0.00    -0.347 N 
ATOM     15  H4  UNL     1      25.275  23.619  19.577  1.00  0.00     0.163 HD
HETATM   16  C21 UNL     1      25.055  25.378  18.580  1.00  0.00     0.241 C 
HETATM   17  O4  UNL     1      25.159  24.969  17.364  1.00  0.00    -0.271 OA
HETATM   18  C22 UNL     1      24.341  26.666  18.680  1.00  0.00     0.180 C 
HETATM   19  N5  UNL     1      24.460  27.546  17.564  1.00  0.00    -0.342 N 
ATOM     20  H5  UNL     1      23.791  28.315  17.597  1.00  0.00     0.163 HD
HETATM   21  C26 UNL     1      25.277  27.595  16.442  1.00  0.00     0.265 C 
HETATM   22  O5  UNL     1      24.659  27.438  15.321  1.00  0.00    -0.266 OA
HETATM   23  C27 UNL     1      26.742  27.807  16.391  1.00  0.00     0.084 C 
HETATM   24  N6  UNL     1      27.491  28.201  17.281  1.00  0.00    -0.324 N 
ATOM     25  H6  UNL     1      28.404  28.200  16.827  1.00  0.00     0.169 HD
HETATM   26  C32 UNL     1      27.775  28.632  18.522  1.00  0.00     0.247 C 
HETATM   27  O6  UNL     1      27.062  28.850  19.546  1.00  0.00    -0.271 OA
HETATM   28  C33 UNL     1      29.258  28.931  18.787  1.00  0.00     0.209 C 
ENDROOT
BRANCH  28  29
HETATM   29  C34 UNL     1      29.766  29.731  17.656  1.00  0.00     0.211 C 
HETATM   30  C35 UNL     1      31.253  29.853  17.567  1.00  0.00     0.042 C 
BRANCH  29  31
HETATM   31  N7  UNL     1      29.112  30.999  17.431  1.00  0.00    -0.073 N 
ATOM     32  H73 UNL     1      28.263  30.858  16.884  1.00  0.00     0.274 HD
ATOM     33  H72 UNL     1      28.714  31.343  18.304  1.00  0.00     0.274 HD
ATOM     34  H71 UNL     1      29.682  31.728  17.002  1.00  0.00     0.274 HD
ENDBRANCH  29  31
ENDBRANCH  28  29
BRANCH   1  35
HETATM   35  C4  UNL     1      29.693  30.762  20.447  1.00  0.00     0.127 C 
BRANCH  35  36
HETATM   36  C3  UNL     1      28.449  31.511  20.794  1.00  0.00     0.020 C 
BRANCH  36  37
HETATM   37  C2  UNL     1      28.607  32.256  22.129  1.00  0.00    -0.003 C 
HETATM   38  C1  UNL     1      27.415  31.989  23.020  1.00  0.00     0.005 C 
ENDBRANCH  36  37
ENDBRANCH  35  36
ENDBRANCH   1  35
BRANCH   4  39
HETATM   39  C7  UNL     1      31.458  27.007  20.827  1.00  0.00     0.009 C 
HETATM   40  C8  UNL     1      31.775  26.415  19.495  1.00  0.00     0.012 C 
HETATM   41  C9  UNL     1      32.161  26.222  21.910  1.00  0.00     0.012 C 
ENDBRANCH   4  39
BRANCH  23  42
HETATM   42  C28 UNL     1      27.380  27.505  15.049  1.00  0.00     0.037 C 
HETATM   43  C29 UNL     1      28.367  26.385  15.297  1.00  0.00     0.016 C 
BRANCH  42  44
HETATM   44  C30 UNL     1      28.005  28.709  14.415  1.00  0.00     0.006 C 
HETATM   45  C31 UNL     1      29.492  28.424  14.156  1.00  0.00     0.006 C 
ENDBRANCH  42  44
ENDBRANCH  23  42
BRANCH   9  46
HETATM   46  C12 UNL     1      27.182  25.401  24.673  1.00  0.00     0.038 C 
BRANCH  46  47
HETATM   47  C13 UNL     1      25.947  25.566  25.472  1.00  0.00    -0.020 C 
HETATM   48  C14 UNL     1      26.073  26.873  26.307  1.00  0.00     0.009 C 
HETATM   49  C15 UNL     1      25.850  24.454  26.494  1.00  0.00     0.009 C 
ENDBRANCH  46  47
ENDBRANCH   9  46
BRANCH  18  50
HETATM   50  C23 UNL     1      22.823  26.406  18.849  1.00  0.00     0.009 C 
HETATM   51  C24 UNL     1      22.343  27.066  20.085  1.00  0.00     0.012 C 
HETATM   52  C25 UNL     1      22.103  26.838  17.597  1.00  0.00     0.012 C 
ENDBRANCH  18  50
BRANCH  12  53
HETATM   53  O3  UNL     1      24.728  25.561  21.828  1.00  0.00    -0.348 OA
ATOM     54  H3  UNL     1      24.162  26.320  21.905  1.00  0.00     0.219 HD
ENDBRANCH  12  53
BRANCH  13  55
HETATM   55  C18 UNL     1      26.985  23.572  21.299  1.00  0.00     0.008 C 
HETATM   56  C19 UNL     1      28.490  23.378  21.124  1.00  0.00     0.012 C 
HETATM   57  C20 UNL     1      26.306  22.386  20.692  1.00  0.00     0.012 C 
ENDBRANCH  13  55
TORSDOF 13
ENDMDL
