MODEL 1
REMARK VINA RESULT: -6.254978341      0.000      0.000
REMARK  4 active torsions:
REMARK  status: ('A' for Active; 'I' for Inactive)
REMARK    1  A    between atoms: O1_2  and  C2_3 
REMARK    2  A    between atoms: C2_3  and  C3_4 
REMARK    3  A    between atoms: C5_8  and  O4_9 
REMARK    4  A    between atoms: C10_16  and  O6_17 
ROOT
HETATM    1  C3  UNL     1      36.748  60.563  16.084  1.00  0.00     0.177 C 
HETATM    2  O2  UNL     1      35.466  60.413  15.606  1.00  0.00    -0.350 OA
HETATM    3  C4  UNL     1      34.802  59.449  16.371  1.00  0.00     0.277 C 
HETATM    4  O3  UNL     1      33.566  59.138  15.897  1.00  0.00    -0.328 OA
HETATM    5  C5  UNL     1      32.636  59.247  16.888  1.00  0.00     0.289 C 
HETATM    6  C6  UNL     1      33.212  59.985  18.043  1.00  0.00     0.192 C 
HETATM    7  O5  UNL     1      33.439  59.218  19.194  1.00  0.00    -0.379 OA
HETATM    8  C7  UNL     1      34.799  58.999  18.882  1.00  0.00     0.185 C 
HETATM    9  C8  UNL     1      34.691  59.963  17.764  1.00  0.00     0.064 C 
HETATM   10  C9  UNL     1      35.338  61.302  17.924  1.00  0.00     0.054 C 
HETATM   11  C10 UNL     1      36.772  61.259  17.442  1.00  0.00     0.150 C 
ENDROOT
BRANCH   1  12
HETATM   12  C2  UNL     1      37.718  61.238  15.188  1.00  0.00     0.201 C 
BRANCH  12  13
HETATM   13  O1  UNL     1      39.032  61.162  15.479  1.00  0.00    -0.393 OA
HETATM   14  C1  UNL     1      39.574  59.988  15.884  1.00  0.00     0.201 C 
ENDBRANCH  12  13
ENDBRANCH   1  12
BRANCH  11  15
HETATM   15  O6  UNL     1      37.293  62.536  17.357  1.00  0.00    -0.393 OA
ATOM     16  H6  UNL     1      37.894  62.721  18.070  1.00  0.00     0.210 HD
ENDBRANCH  11  15
BRANCH   5  17
HETATM   17  O4  UNL     1      31.519  59.894  16.369  1.00  0.00    -0.368 OA
ATOM     18  H4  UNL     1      31.316  59.510  15.525  1.00  0.00     0.212 HD
ENDBRANCH   5  17
TORSDOF 4
ENDMDL
MODEL 2
REMARK VINA RESULT: -5.868959938      2.532      3.463
REMARK  4 active torsions:
REMARK  status: ('A' for Active; 'I' for Inactive)
REMARK    1  A    between atoms: O1_2  and  C2_3 
REMARK    2  A    between atoms: C2_3  and  C3_4 
REMARK    3  A    between atoms: C5_8  and  O4_9 
REMARK    4  A    between atoms: C10_16  and  O6_17 
ROOT
HETATM    1  C3  UNL     1      37.207  61.367  15.979  1.00  0.00     0.177 C 
HETATM    2  O2  UNL     1      36.136  61.780  16.739  1.00  0.00    -0.350 OA
HETATM    3  C4  UNL     1      36.142  61.083  17.952  1.00  0.00     0.277 C 
HETATM    4  O3  UNL     1      35.050  61.331  18.723  1.00  0.00    -0.328 OA
HETATM    5  C5  UNL     1      35.428  61.698  19.980  1.00  0.00     0.289 C 
HETATM    6  C6  UNL     1      36.876  62.033  19.994  1.00  0.00     0.192 C 
HETATM    7  O5  UNL     1      37.697  61.131  20.683  1.00  0.00    -0.379 OA
HETATM    8  C7  UNL     1      38.052  60.427  19.510  1.00  0.00     0.185 C 
HETATM    9  C8  UNL     1      37.376  61.461  18.695  1.00  0.00     0.064 C 
HETATM   10  C9  UNL     1      38.229  62.416  17.922  1.00  0.00     0.054 C 
HETATM   11  C10 UNL     1      38.534  61.861  16.547  1.00  0.00     0.150 C 
ENDROOT
BRANCH   1  12
HETATM   12  C2  UNL     1      37.161  61.692  14.532  1.00  0.00     0.201 C 
BRANCH  12  13
HETATM   13  O1  UNL     1      38.010  61.061  13.697  1.00  0.00    -0.393 OA
HETATM   14  C1  UNL     1      37.531  60.237  12.734  1.00  0.00     0.201 C 
ENDBRANCH  12  13
ENDBRANCH   1  12
BRANCH  11  15
HETATM   15  O6  UNL     1      39.107  62.834  15.748  1.00  0.00    -0.393 OA
ATOM     16  H6  UNL     1      39.913  63.170  16.123  1.00  0.00     0.210 HD
ENDBRANCH  11  15
BRANCH   5  17
HETATM   17  O4  UNL     1      34.646  62.779  20.374  1.00  0.00    -0.368 OA
ATOM     18  H4  UNL     1      34.897  63.022  21.258  1.00  0.00     0.212 HD
ENDBRANCH   5  17
TORSDOF 4
ENDMDL
MODEL 3
REMARK VINA RESULT: -5.756787185      2.765      3.961
REMARK  4 active torsions:
REMARK  status: ('A' for Active; 'I' for Inactive)
REMARK    1  A    between atoms: O1_2  and  C2_3 
REMARK    2  A    between atoms: C2_3  and  C3_4 
REMARK    3  A    between atoms: C5_8  and  O4_9 
REMARK    4  A    between atoms: C10_16  and  O6_17 
ROOT
HETATM    1  C3  UNL     1      34.949  61.555  19.830  1.00  0.00     0.177 C 
HETATM    2  O2  UNL     1      33.670  61.048  19.829  1.00  0.00    -0.350 OA
HETATM    3  C4  UNL     1      33.325  60.683  18.523  1.00  0.00     0.277 C 
HETATM    4  O3  UNL     1      32.030  60.286  18.397  1.00  0.00    -0.328 OA
HETATM    5  C5  UNL     1      31.963  59.072  17.781  1.00  0.00     0.289 C 
HETATM    6  C6  UNL     1      33.308  58.440  17.762  1.00  0.00     0.192 C 
HETATM    7  O5  UNL     1      33.913  58.350  16.501  1.00  0.00    -0.379 OA
HETATM    8  C7  UNL     1      34.666  59.532  16.685  1.00  0.00     0.185 C 
HETATM    9  C8  UNL     1      34.231  59.581  18.098  1.00  0.00     0.064 C 
HETATM   10  C9  UNL     1      35.231  59.235  19.155  1.00  0.00     0.054 C 
HETATM   11  C10 UNL     1      35.993  60.468  19.588  1.00  0.00     0.150 C 
ENDROOT
BRANCH   1  12
HETATM   12  C2  UNL     1      35.353  62.343  21.021  1.00  0.00     0.201 C 
BRANCH  12  13
HETATM   13  O1  UNL     1      36.474  63.088  20.958  1.00  0.00    -0.393 OA
HETATM   14  C1  UNL     1      36.988  63.642  22.082  1.00  0.00     0.201 C 
ENDBRANCH  12  13
ENDBRANCH   1  12
BRANCH  11  15
HETATM   15  O6  UNL     1      36.736  60.205  20.724  1.00  0.00    -0.393 OA
ATOM     16  H6  UNL     1      36.636  59.305  21.012  1.00  0.00     0.210 HD
ENDBRANCH  11  15
BRANCH   5  17
HETATM   17  O4  UNL     1      31.036  58.288  18.460  1.00  0.00    -0.368 OA
ATOM     18  H4  UNL     1      31.306  58.226  19.368  1.00  0.00     0.212 HD
ENDBRANCH   5  17
TORSDOF 4
ENDMDL
MODEL 4
REMARK VINA RESULT: -5.636174328      1.899      5.154
REMARK  4 active torsions:
REMARK  status: ('A' for Active; 'I' for Inactive)
REMARK    1  A    between atoms: O1_2  and  C2_3 
REMARK    2  A    between atoms: C2_3  and  C3_4 
REMARK    3  A    between atoms: C5_8  and  O4_9 
REMARK    4  A    between atoms: C10_16  and  O6_17 
ROOT
HETATM    1  C3  UNL     1      36.158  61.454  18.226  1.00  0.00     0.177 C 
HETATM    2  O2  UNL     1      36.077  61.186  16.878  1.00  0.00    -0.350 OA
HETATM    3  C4  UNL     1      37.092  61.882  16.213  1.00  0.00     0.277 C 
HETATM    4  O3  UNL     1      37.019  61.781  14.859  1.00  0.00    -0.328 OA
HETATM    5  C5  UNL     1      38.214  61.373  14.346  1.00  0.00     0.289 C 
HETATM    6  C6  UNL     1      39.080  60.854  15.438  1.00  0.00     0.192 C 
HETATM    7  O5  UNL     1      40.192  61.646  15.752  1.00  0.00    -0.379 OA
HETATM    8  C7  UNL     1      39.534  62.293  16.823  1.00  0.00     0.185 C 
HETATM    9  C8  UNL     1      38.401  61.352  16.685  1.00  0.00     0.064 C 
HETATM   10  C9  UNL     1      38.236  60.291  17.727  1.00  0.00     0.054 C 
HETATM   11  C10 UNL     1      37.378  60.795  18.866  1.00  0.00     0.150 C 
ENDROOT
BRANCH   1  12
HETATM   12  C2  UNL     1      34.962  61.131  19.042  1.00  0.00     0.201 C 
BRANCH  12  13
HETATM   13  O1  UNL     1      34.300  59.983  18.799  1.00  0.00    -0.393 OA
HETATM   14  C1  UNL     1      32.980  60.008  18.496  1.00  0.00     0.201 C 
ENDBRANCH  12  13
ENDBRANCH   1  12
BRANCH  11  15
HETATM   15  O6  UNL     1      37.021  59.754  19.702  1.00  0.00    -0.393 OA
ATOM     16  H6  UNL     1      37.720  59.529  20.306  1.00  0.00     0.210 HD
ENDBRANCH  11  15
BRANCH   5  17
HETATM   17  O4  UNL     1      37.969  60.404  13.380  1.00  0.00    -0.368 OA
ATOM     18  H4  UNL     1      38.782  59.948  13.201  1.00  0.00     0.212 HD
ENDBRANCH   5  17
TORSDOF 4
ENDMDL
MODEL 5
REMARK VINA RESULT: -5.472517357      2.671      4.925
REMARK  4 active torsions:
REMARK  status: ('A' for Active; 'I' for Inactive)
REMARK    1  A    between atoms: O1_2  and  C2_3 
REMARK    2  A    between atoms: C2_3  and  C3_4 
REMARK    3  A    between atoms: C5_8  and  O4_9 
REMARK    4  A    between atoms: C10_16  and  O6_17 
ROOT
HETATM    1  C3  UNL     1      39.755  60.885  18.545  1.00  0.00     0.177 C 
HETATM    2  O2  UNL     1      38.438  60.547  18.331  1.00  0.00    -0.350 OA
HETATM    3  C4  UNL     1      37.902  61.394  17.355  1.00  0.00     0.277 C 
HETATM    4  O3  UNL     1      36.567  61.221  17.163  1.00  0.00    -0.328 OA
HETATM    5  C5  UNL     1      36.298  61.028  15.841  1.00  0.00     0.289 C 
HETATM    6  C6  UNL     1      37.557  60.733  15.108  1.00  0.00     0.192 C 
HETATM    7  O5  UNL     1      37.993  61.737  14.232  1.00  0.00    -0.379 OA
HETATM    8  C7  UNL     1      38.883  62.292  15.179  1.00  0.00     0.185 C 
HETATM    9  C8  UNL     1      38.629  61.146  16.080  1.00  0.00     0.064 C 
HETATM   10  C9  UNL     1      39.706  60.120  16.236  1.00  0.00     0.054 C 
HETATM   11  C10 UNL     1      40.641  60.501  17.363  1.00  0.00     0.150 C 
ENDROOT
BRANCH   1  12
HETATM   12  C2  UNL     1      40.380  60.376  19.791  1.00  0.00     0.201 C 
BRANCH  12  13
HETATM   13  O1  UNL     1      40.095  59.122  20.195  1.00  0.00    -0.393 OA
HETATM   14  C1  UNL     1      39.405  58.917  21.343  1.00  0.00     0.201 C 
ENDBRANCH  12  13
ENDBRANCH   1  12
BRANCH  11  15
HETATM   15  O6  UNL     1      41.483  59.448  17.671  1.00  0.00    -0.393 OA
ATOM     16  H6  UNL     1      41.000  58.678  17.948  1.00  0.00     0.210 HD
ENDBRANCH  11  15
BRANCH   5  17
HETATM   17  O4  UNL     1      35.381  59.988  15.729  1.00  0.00    -0.368 OA
ATOM     18  H4  UNL     1      35.594  59.486  14.951  1.00  0.00     0.212 HD
ENDBRANCH   5  17
TORSDOF 4
ENDMDL
