MODEL 1
REMARK VINA RESULT: -7.199286632      0.000      0.000
REMARK  8 active torsions:
REMARK  status: ('A' for Active; 'I' for Inactive)
REMARK    1  A    between atoms: C2_2  and  O1_3 
REMARK    2  A    between atoms: C2_2  and  N1_5 
REMARK    3  A    between atoms: C3_7  and  N2_8 
REMARK    4  A    between atoms: C3_7  and  O2_16 
REMARK    5  A    between atoms: N2_8  and  C4_10 
REMARK    6  A    between atoms: O2_16  and  C10_17 
REMARK    7  A    between atoms: C10_17  and  O4_19 
REMARK    8  A    between atoms: O4_19  and  C11_20 
ROOT
HETATM    1  N1  UNL     1      17.897  10.596 -10.550  1.00  0.00    -0.330 N 
ATOM      2  H1  UNL     1      18.595  10.032 -10.065  1.00  0.00     0.165 HD
HETATM    3  C3  UNL     1      17.064  11.209  -9.820  1.00  0.00     0.227 C 
ENDROOT
BRANCH   3   4
HETATM    4  N2  UNL     1      16.053  12.020 -10.390  1.00  0.00    -0.351 N 
ATOM      5  H2  UNL     1      15.322  11.601 -10.964  1.00  0.00     0.163 HD
BRANCH   4   6
HETATM    6  C4  UNL     1      16.062  13.441 -10.154  1.00  0.00     0.085 C 
HETATM    7  C5  UNL     1      17.007  14.073 -11.148  1.00  0.00     0.025 C 
HETATM    8  C6  UNL     1      16.485  15.385 -11.673  1.00  0.00     0.002 C 
HETATM    9  C7  UNL     1      15.164  15.217 -12.374  1.00  0.00     0.000 C 
HETATM   10  C8  UNL     1      14.222  14.310 -11.623  1.00  0.00     0.002 C 
HETATM   11  C9  UNL     1      14.682  14.030 -10.214  1.00  0.00     0.025 C 
ENDBRANCH   4   6
ENDBRANCH   3   4
BRANCH   3  12
HETATM   12  O2  UNL     1      17.143  11.085  -8.444  1.00  0.00    -0.222 OA
BRANCH  12  13
HETATM   13  C10 UNL     1      16.354  10.158  -7.755  1.00  0.00     0.414 C 
HETATM   14  O3  UNL     1      16.392   8.982  -8.154  1.00  0.00    -0.229 OA
BRANCH  13  15
HETATM   15  O4  UNL     1      15.566  10.485  -6.687  1.00  0.00    -0.288 OA
BRANCH  15  16
HETATM   16  C11 UNL     1      14.328  11.153  -6.775  1.00  0.00     0.062 C 
HETATM   17  C12 UNL     1      13.515  10.844  -5.517  1.00  0.00     0.046 C 
HETATM   18  C13 UNL     1      13.490  10.664  -7.942  1.00  0.00     0.046 C 
HETATM   19  C14 UNL     1      14.449  12.637  -6.874  1.00  0.00     0.046 C 
ENDBRANCH  15  16
ENDBRANCH  13  15
ENDBRANCH  12  13
ENDBRANCH   3  12
BRANCH   1  20
HETATM   20  C2  UNL     1      17.971  10.604 -11.974  1.00  0.00     0.216 C 
HETATM   21  C1  UNL     1      19.236  10.020 -12.527  1.00  0.00     0.063 C 
BRANCH  20  22
HETATM   22  O1  UNL     1      16.823  10.047 -12.577  1.00  0.00    -0.377 OA
ATOM     23  H1  UNL     1      16.022  10.384 -12.196  1.00  0.00     0.212 HD
ENDBRANCH  20  22
ENDBRANCH   1  20
TORSDOF 8
ENDMDL
MODEL 2
REMARK VINA RESULT: -7.123575187      1.965      5.899
REMARK  8 active torsions:
REMARK  status: ('A' for Active; 'I' for Inactive)
REMARK    1  A    between atoms: C2_2  and  O1_3 
REMARK    2  A    between atoms: C2_2  and  N1_5 
REMARK    3  A    between atoms: C3_7  and  N2_8 
REMARK    4  A    between atoms: C3_7  and  O2_16 
REMARK    5  A    between atoms: N2_8  and  C4_10 
REMARK    6  A    between atoms: O2_16  and  C10_17 
REMARK    7  A    between atoms: C10_17  and  O4_19 
REMARK    8  A    between atoms: O4_19  and  C11_20 
ROOT
HETATM    1  N1  UNL     1      15.415  12.577 -11.054  1.00  0.00    -0.330 N 
ATOM      2  H1  UNL     1      15.559  12.657 -12.061  1.00  0.00     0.165 HD
HETATM    3  C3  UNL     1      15.918  11.560 -10.494  1.00  0.00     0.227 C 
ENDROOT
BRANCH   3   4
HETATM    4  N2  UNL     1      15.778  11.350  -9.100  1.00  0.00    -0.351 N 
ATOM      5  H2  UNL     1      16.003  12.097  -8.444  1.00  0.00     0.163 HD
BRANCH   4   6
HETATM    6  C4  UNL     1      15.314  10.075  -8.615  1.00  0.00     0.085 C 
HETATM    7  C5  UNL     1      16.472   9.388  -7.931  1.00  0.00     0.025 C 
HETATM    8  C6  UNL     1      16.042   8.657  -6.686  1.00  0.00     0.002 C 
HETATM    9  C7  UNL     1      15.432   9.590  -5.676  1.00  0.00     0.000 C 
HETATM   10  C8  UNL     1      14.479  10.576  -6.302  1.00  0.00     0.002 C 
HETATM   11  C9  UNL     1      14.116  10.216  -7.721  1.00  0.00     0.025 C 
ENDBRANCH   4   6
ENDBRANCH   3   4
BRANCH   3  12
HETATM   12  O2  UNL     1      16.617  10.639 -11.254  1.00  0.00    -0.222 OA
BRANCH  12  13
HETATM   13  C10 UNL     1      17.855  10.958 -11.822  1.00  0.00     0.414 C 
HETATM   14  O3  UNL     1      18.717  10.063 -11.830  1.00  0.00    -0.229 OA
BRANCH  13  15
HETATM   15  O4  UNL     1      18.145  12.183 -12.356  1.00  0.00    -0.288 OA
BRANCH  15  16
HETATM   16  C11 UNL     1      18.953  13.158 -11.740  1.00  0.00     0.062 C 
HETATM   17  C12 UNL     1      18.459  14.542 -12.162  1.00  0.00     0.046 C 
HETATM   18  C13 UNL     1      20.401  13.079 -12.192  1.00  0.00     0.046 C 
HETATM   19  C14 UNL     1      18.925  13.111 -10.249  1.00  0.00     0.046 C 
ENDBRANCH  15  16
ENDBRANCH  13  15
ENDBRANCH  12  13
ENDBRANCH   3  12
BRANCH   1  20
HETATM   20  C2  UNL     1      14.668  13.624 -10.438  1.00  0.00     0.216 C 
HETATM   21  C1  UNL     1      14.241  14.710 -11.380  1.00  0.00     0.063 C 
BRANCH  20  22
HETATM   22  O1  UNL     1      13.590  13.137  -9.669  1.00  0.00    -0.377 OA
ATOM     23  H1  UNL     1      13.703  12.223  -9.436  1.00  0.00     0.212 HD
ENDBRANCH  20  22
ENDBRANCH   1  20
TORSDOF 8
ENDMDL
MODEL 3
REMARK VINA RESULT: -7.077829845      1.981      2.792
REMARK  8 active torsions:
REMARK  status: ('A' for Active; 'I' for Inactive)
REMARK    1  A    between atoms: C2_2  and  O1_3 
REMARK    2  A    between atoms: C2_2  and  N1_5 
REMARK    3  A    between atoms: C3_7  and  N2_8 
REMARK    4  A    between atoms: C3_7  and  O2_16 
REMARK    5  A    between atoms: N2_8  and  C4_10 
REMARK    6  A    between atoms: O2_16  and  C10_17 
REMARK    7  A    between atoms: C10_17  and  O4_19 
REMARK    8  A    between atoms: O4_19  and  C11_20 
ROOT
HETATM    1  N1  UNL     1      16.901  10.672 -12.259  1.00  0.00    -0.330 N 
ATOM      2  H1  UNL     1      16.440   9.801 -11.995  1.00  0.00     0.165 HD
HETATM    3  C3  UNL     1      16.450  11.729 -11.729  1.00  0.00     0.227 C 
ENDROOT
BRANCH   3   4
HETATM    4  N2  UNL     1      17.017  12.993 -12.026  1.00  0.00    -0.351 N 
ATOM      5  H2  UNL     1      16.981  13.361 -12.976  1.00  0.00     0.163 HD
BRANCH   4   6
HETATM    6  C4  UNL     1      17.643  13.757 -10.978  1.00  0.00     0.085 C 
HETATM    7  C5  UNL     1      18.780  12.934 -10.418  1.00  0.00     0.025 C 
HETATM    8  C6  UNL     1      19.987  13.777 -10.099  1.00  0.00     0.002 C 
HETATM    9  C7  UNL     1      20.516  14.476 -11.321  1.00  0.00     0.000 C 
HETATM   10  C8  UNL     1      19.420  15.072 -12.167  1.00  0.00     0.002 C 
HETATM   11  C9  UNL     1      18.090  15.108 -11.456  1.00  0.00     0.025 C 
ENDBRANCH   4   6
ENDBRANCH   3   4
BRANCH   3  12
HETATM   12  O2  UNL     1      15.388  11.650 -10.847  1.00  0.00    -0.222 OA
BRANCH  12  13
HETATM   13  C10 UNL     1      15.432  10.804  -9.734  1.00  0.00     0.414 C 
HETATM   14  O3  UNL     1      16.503  10.208  -9.524  1.00  0.00    -0.229 OA
BRANCH  13  15
HETATM   15  O4  UNL     1      14.373  10.611  -8.891  1.00  0.00    -0.288 OA
BRANCH  15  16
HETATM   16  C11 UNL     1      14.239  11.204  -7.620  1.00  0.00     0.062 C 
HETATM   17  C12 UNL     1      12.751  11.357  -7.305  1.00  0.00     0.046 C 
HETATM   18  C13 UNL     1      14.820  12.606  -7.572  1.00  0.00     0.046 C 
HETATM   19  C14 UNL     1      14.849  10.407  -6.515  1.00  0.00     0.046 C 
ENDBRANCH  15  16
ENDBRANCH  13  15
ENDBRANCH  12  13
ENDBRANCH   3  12
BRANCH   1  20
HETATM   20  C2  UNL     1      17.981  10.560 -13.184  1.00  0.00     0.216 C 
HETATM   21  C1  UNL     1      19.244  10.012 -12.589  1.00  0.00     0.063 C 
BRANCH  20  22
HETATM   22  O1  UNL     1      17.613   9.878 -14.363  1.00  0.00    -0.377 OA
ATOM     23  H1  UNL     1      17.409  10.477 -15.071  1.00  0.00     0.212 HD
ENDBRANCH  20  22
ENDBRANCH   1  20
TORSDOF 8
ENDMDL
MODEL 4
REMARK VINA RESULT: -7.047704491      1.859      3.805
REMARK  8 active torsions:
REMARK  status: ('A' for Active; 'I' for Inactive)
REMARK    1  A    between atoms: C2_2  and  O1_3 
REMARK    2  A    between atoms: C2_2  and  N1_5 
REMARK    3  A    between atoms: C3_7  and  N2_8 
REMARK    4  A    between atoms: C3_7  and  O2_16 
REMARK    5  A    between atoms: N2_8  and  C4_10 
REMARK    6  A    between atoms: O2_16  and  C10_17 
REMARK    7  A    between atoms: C10_17  and  O4_19 
REMARK    8  A    between atoms: O4_19  and  C11_20 
ROOT
HETATM    1  N1  UNL     1      14.646  12.513  -9.909  1.00  0.00    -0.330 N 
ATOM      2  H1  UNL     1      14.108  12.535  -9.042  1.00  0.00     0.165 HD
HETATM    3  C3  UNL     1      15.307  11.457 -10.132  1.00  0.00     0.227 C 
ENDROOT
BRANCH   3   4
HETATM    4  N2  UNL     1      16.088  11.320 -11.306  1.00  0.00    -0.351 N 
ATOM      5  H2  UNL     1      15.715  11.616 -12.208  1.00  0.00     0.163 HD
BRANCH   4   6
HETATM    6  C4  UNL     1      17.413  10.760 -11.220  1.00  0.00     0.085 C 
HETATM    7  C5  UNL     1      17.949  10.612 -12.624  1.00  0.00     0.025 C 
HETATM    8  C6  UNL     1      19.412  10.961 -12.712  1.00  0.00     0.002 C 
HETATM    9  C7  UNL     1      19.671  12.382 -12.294  1.00  0.00     0.000 C 
HETATM   10  C8  UNL     1      18.908  12.769 -11.053  1.00  0.00     0.002 C 
HETATM   11  C9  UNL     1      18.313  11.580 -10.341  1.00  0.00     0.025 C 
ENDBRANCH   4   6
ENDBRANCH   3   4
BRANCH   3  12
HETATM   12  O2  UNL     1      15.269  10.421  -9.216  1.00  0.00    -0.222 OA
BRANCH  12  13
HETATM   13  C10 UNL     1      14.059   9.990  -8.662  1.00  0.00     0.414 C 
HETATM   14  O3  UNL     1      13.662   8.859  -8.993  1.00  0.00    -0.229 OA
BRANCH  13  15
HETATM   15  O4  UNL     1      13.318  10.740  -7.793  1.00  0.00    -0.288 OA
BRANCH  15  16
HETATM   16  C11 UNL     1      13.748  11.154  -6.517  1.00  0.00     0.062 C 
HETATM   17  C12 UNL     1      14.380  12.541  -6.640  1.00  0.00     0.046 C 
HETATM   18  C13 UNL     1      14.832  10.253  -5.953  1.00  0.00     0.046 C 
HETATM   19  C14 UNL     1      12.651  11.252  -5.512  1.00  0.00     0.046 C 
ENDBRANCH  15  16
ENDBRANCH  13  15
ENDBRANCH  12  13
ENDBRANCH   3  12
BRANCH   1  20
HETATM   20  C2  UNL     1      14.565  13.675 -10.733  1.00  0.00     0.216 C 
HETATM   21  C1  UNL     1      13.773  14.798 -10.133  1.00  0.00     0.063 C 
BRANCH  20  22
HETATM   22  O1  UNL     1      15.830  14.103 -11.186  1.00  0.00    -0.377 OA
ATOM     23  H1  UNL     1      16.376  14.417 -10.475  1.00  0.00     0.212 HD
ENDBRANCH  20  22
ENDBRANCH   1  20
TORSDOF 8
ENDMDL
MODEL 5
REMARK VINA RESULT: -6.997309105      2.961      6.746
REMARK  8 active torsions:
REMARK  status: ('A' for Active; 'I' for Inactive)
REMARK    1  A    between atoms: C2_2  and  O1_3 
REMARK    2  A    between atoms: C2_2  and  N1_5 
REMARK    3  A    between atoms: C3_7  and  N2_8 
REMARK    4  A    between atoms: C3_7  and  O2_16 
REMARK    5  A    between atoms: N2_8  and  C4_10 
REMARK    6  A    between atoms: O2_16  and  C10_17 
REMARK    7  A    between atoms: C10_17  and  O4_19 
REMARK    8  A    between atoms: O4_19  and  C11_20 
ROOT
HETATM    1  N1  UNL     1      12.578  12.614  -6.558  1.00  0.00    -0.330 N 
ATOM      2  H1  UNL     1      12.183  13.490  -6.899  1.00  0.00     0.165 HD
HETATM    3  C3  UNL     1      13.090  11.852  -7.429  1.00  0.00     0.227 C 
ENDROOT
BRANCH   3   4
HETATM    4  N2  UNL     1      13.667  10.611  -7.065  1.00  0.00    -0.351 N 
ATOM      5  H2  UNL     1      13.138   9.746  -7.178  1.00  0.00     0.163 HD
BRANCH   4   6
HETATM    6  C4  UNL     1      15.005  10.576  -6.534  1.00  0.00     0.085 C 
HETATM    7  C5  UNL     1      15.010   9.648  -5.342  1.00  0.00     0.025 C 
HETATM    8  C6  UNL     1      16.260   8.809  -5.281  1.00  0.00     0.002 C 
HETATM    9  C7  UNL     1      16.413   7.948  -6.505  1.00  0.00     0.000 C 
HETATM   10  C8  UNL     1      16.101   8.692  -7.778  1.00  0.00     0.002 C 
HETATM   11  C9  UNL     1      16.013  10.184  -7.575  1.00  0.00     0.025 C 
ENDBRANCH   4   6
ENDBRANCH   3   4
BRANCH   3  12
HETATM   12  O2  UNL     1      13.085  12.236  -8.758  1.00  0.00    -0.222 OA
BRANCH  12  13
HETATM   13  C10 UNL     1      13.751  13.391  -9.180  1.00  0.00     0.414 C 
HETATM   14  O3  UNL     1      13.685  14.383  -8.432  1.00  0.00    -0.229 OA
BRANCH  13  15
HETATM   15  O4  UNL     1      14.455  13.472 -10.350  1.00  0.00    -0.288 OA
BRANCH  15  16
HETATM   16  C11 UNL     1      15.734  12.920 -10.559  1.00  0.00     0.062 C 
HETATM   17  C12 UNL     1      16.438  13.718 -11.657  1.00  0.00     0.046 C 
HETATM   18  C13 UNL     1      15.670  11.488 -11.062  1.00  0.00     0.046 C 
HETATM   19  C14 UNL     1      16.610  12.952  -9.352  1.00  0.00     0.046 C 
ENDBRANCH  15  16
ENDBRANCH  13  15
ENDBRANCH  12  13
ENDBRANCH   3  12
BRANCH   1  20
HETATM   20  C2  UNL     1      12.492  12.387  -5.152  1.00  0.00     0.216 C 
HETATM   21  C1  UNL     1      11.944  13.546  -4.375  1.00  0.00     0.063 C 
BRANCH  20  22
HETATM   22  O1  UNL     1      11.829  11.181  -4.840  1.00  0.00    -0.377 OA
ATOM     23  H1  UNL     1      12.424  10.440  -4.831  1.00  0.00     0.212 HD
ENDBRANCH  20  22
ENDBRANCH   1  20
TORSDOF 8
ENDMDL
