MODEL 1
REMARK VINA RESULT: -7.418354136      0.000      0.000
REMARK  6 active torsions:
REMARK  status: ('A' for Active; 'I' for Inactive)
REMARK    1  A    between atoms: C2_2  and  C3_3 
REMARK    2  A    between atoms: C5_7  and  C6_8 
REMARK    3  A    between atoms: C8_13  and  C9_14 
REMARK    4  A    between atoms: C9_14  and  C10_15 
REMARK    5  A    between atoms: C10_15  and  C11_16 
REMARK    6  A    between atoms: C15_22  and  N4_23 
ROOT
HETATM    1  C3  UNL     1      18.378  11.750 -11.430  1.00  0.00     0.001 A 
HETATM    2  C4  UNL     1      18.345  12.559 -10.314  1.00  0.00     0.100 A 
HETATM    3  N1  UNL     1      17.207  12.705  -9.621  1.00  0.00    -0.350 N 
ATOM      4  H1  UNL     1      17.220  13.312  -8.802  1.00  0.00     0.166 HD
HETATM    5  C5  UNL     1      16.036  12.091  -9.946  1.00  0.00     0.136 A 
HETATM    6  N3  UNL     1      16.070  11.326 -11.001  1.00  0.00    -0.327 N 
ATOM      7  H3  UNL     1      15.214  10.847 -11.280  1.00  0.00     0.169 HD
HETATM    8  C15 UNL     1      17.199  11.132 -11.757  1.00  0.00     0.108 A 
ENDROOT
BRANCH   5   9
HETATM    9  C6  UNL     1      14.839  12.352  -9.081  1.00  0.00     0.103 A 
HETATM   10  N2  UNL     1      14.530  11.470  -8.130  1.00  0.00    -0.355 N 
HETATM   11  C7  UNL     1      13.514  11.650  -7.356  1.00  0.00     0.140 A 
ATOM     12  H2  UNL     1      15.107  10.637  -8.013  1.00  0.00     0.166 HD
HETATM   13  S1  UNL     1      12.871  13.121  -7.898  1.00  0.00    -0.073 SA
HETATM   14  C8  UNL     1      14.022  13.431  -9.168  1.00  0.00     0.090 A 
BRANCH  14  15
HETATM   15  C9  UNL     1      14.009  14.595 -10.035  1.00  0.00    -0.056 C 
BRANCH  15  16
HETATM   16  C10 UNL     1      14.031  15.540 -10.771  1.00  0.00    -0.091 C 
BRANCH  16  17
HETATM   17  C11 UNL     1      14.081  16.684 -11.682  1.00  0.00     0.013 C 
HETATM   18  C12 UNL     1      14.893  17.825 -11.139  1.00  0.00     0.028 C 
HETATM   19  C13 UNL     1      12.653  17.091 -11.982  1.00  0.00     0.028 C 
HETATM   20  C14 UNL     1      14.737  16.272 -13.003  1.00  0.00     0.028 C 
ENDBRANCH  16  17
ENDBRANCH  15  16
ENDBRANCH  14  15
ENDBRANCH   5   9
BRANCH   8  21
HETATM   21  N4  UNL     1      17.181  10.373 -12.782  1.00  0.00    -0.385 N 
ATOM     22  H42 UNL     1      17.895  10.451 -13.506  1.00  0.00     0.157 HD
ATOM     23  H41 UNL     1      16.433   9.684 -12.859  1.00  0.00     0.157 HD
ENDBRANCH   8  21
BRANCH   1  24
HETATM   24  C2  UNL     1      19.595  11.538 -12.248  1.00  0.00     0.039 C 
HETATM   25  C1  UNL     1      20.514  12.729 -12.241  1.00  0.00     0.010 C 
ENDBRANCH   1  24
TORSDOF 6
ENDMDL
MODEL 2
REMARK VINA RESULT: -7.344088167      1.154      1.709
REMARK  6 active torsions:
REMARK  status: ('A' for Active; 'I' for Inactive)
REMARK    1  A    between atoms: C2_2  and  C3_3 
REMARK    2  A    between atoms: C5_7  and  C6_8 
REMARK    3  A    between atoms: C8_13  and  C9_14 
REMARK    4  A    between atoms: C9_14  and  C10_15 
REMARK    5  A    between atoms: C10_15  and  C11_16 
REMARK    6  A    between atoms: C15_22  and  N4_23 
ROOT
HETATM    1  C3  UNL     1      17.616  11.184 -11.045  1.00  0.00     0.001 A 
HETATM    2  C4  UNL     1      16.307  10.778 -11.189  1.00  0.00     0.100 A 
HETATM    3  N1  UNL     1      15.352  11.291 -10.401  1.00  0.00    -0.350 N 
ATOM      4  H1  UNL     1      14.394  10.967 -10.535  1.00  0.00     0.166 HD
HETATM    5  C5  UNL     1      15.584  12.220  -9.432  1.00  0.00     0.136 A 
HETATM    6  N3  UNL     1      16.824  12.602  -9.298  1.00  0.00    -0.327 N 
ATOM      7  H3  UNL     1      17.042  13.296  -8.584  1.00  0.00     0.169 HD
HETATM    8  C15 UNL     1      17.850  12.118 -10.069  1.00  0.00     0.108 A 
ENDROOT
BRANCH   5   9
HETATM    9  C6  UNL     1      14.418  12.700  -8.621  1.00  0.00     0.103 A 
HETATM   10  N2  UNL     1      14.015  11.969  -7.581  1.00  0.00    -0.355 N 
HETATM   11  C7  UNL     1      13.020  12.339  -6.849  1.00  0.00     0.140 A 
ATOM     12  H2  UNL     1      14.503  11.100  -7.360  1.00  0.00     0.166 HD
HETATM   13  S1  UNL     1      12.534  13.795  -7.566  1.00  0.00    -0.073 SA
HETATM   14  C8  UNL     1      13.716  13.839  -8.844  1.00  0.00     0.090 A 
BRANCH  14  15
HETATM   15  C9  UNL     1      13.827  14.890  -9.839  1.00  0.00    -0.056 C 
BRANCH  15  16
HETATM   16  C10 UNL     1      13.952  15.739 -10.675  1.00  0.00    -0.091 C 
BRANCH  16  17
HETATM   17  C11 UNL     1      14.131  16.769 -11.698  1.00  0.00     0.013 C 
HETATM   18  C12 UNL     1      15.003  17.902 -11.236  1.00  0.00     0.028 C 
HETATM   19  C13 UNL     1      12.754  17.242 -12.117  1.00  0.00     0.028 C 
HETATM   20  C14 UNL     1      14.814  16.169 -12.930  1.00  0.00     0.028 C 
ENDBRANCH  16  17
ENDBRANCH  15  16
ENDBRANCH  14  15
ENDBRANCH   5   9
BRANCH   8  21
HETATM   21  N4  UNL     1      19.047  12.525  -9.899  1.00  0.00    -0.385 N 
ATOM     22  H42 UNL     1      19.262  13.520  -9.847  1.00  0.00     0.157 HD
ATOM     23  H41 UNL     1      19.786  11.827  -9.817  1.00  0.00     0.157 HD
ENDBRANCH   8  21
BRANCH   1  24
HETATM   24  C2  UNL     1      18.728  10.664 -11.876  1.00  0.00     0.039 C 
HETATM   25  C1  UNL     1      18.301  10.348 -13.284  1.00  0.00     0.010 C 
ENDBRANCH   1  24
TORSDOF 6
ENDMDL
MODEL 3
REMARK VINA RESULT: -7.323657312      2.180      5.164
REMARK  6 active torsions:
REMARK  status: ('A' for Active; 'I' for Inactive)
REMARK    1  A    between atoms: C2_2  and  C3_3 
REMARK    2  A    between atoms: C5_7  and  C6_8 
REMARK    3  A    between atoms: C8_13  and  C9_14 
REMARK    4  A    between atoms: C9_14  and  C10_15 
REMARK    5  A    between atoms: C10_15  and  C11_16 
REMARK    6  A    between atoms: C15_22  and  N4_23 
ROOT
HETATM    1  C3  UNL     1      13.642  12.548  -6.649  1.00  0.00     0.001 A 
HETATM    2  C4  UNL     1      14.616  11.574  -6.693  1.00  0.00     0.100 A 
HETATM    3  N1  UNL     1      15.428  11.481  -7.755  1.00  0.00    -0.350 N 
ATOM      4  H1  UNL     1      16.137  10.748  -7.754  1.00  0.00     0.166 HD
HETATM    5  C5  UNL     1      15.364  12.308  -8.836  1.00  0.00     0.136 A 
HETATM    6  N3  UNL     1      14.441  13.228  -8.791  1.00  0.00    -0.327 N 
ATOM      7  H3  UNL     1      14.359  13.869  -9.580  1.00  0.00     0.169 HD
HETATM    8  C15 UNL     1      13.576  13.380  -7.737  1.00  0.00     0.108 A 
ENDROOT
BRANCH   5   9
HETATM    9  C6  UNL     1      16.335  12.081  -9.956  1.00  0.00     0.103 A 
HETATM   10  N2  UNL     1      17.118  11.002  -9.917  1.00  0.00    -0.355 N 
HETATM   11  C7  UNL     1      17.967  10.758 -10.858  1.00  0.00     0.140 A 
ATOM     12  H2  UNL     1      17.044  10.358  -9.130  1.00  0.00     0.166 HD
HETATM   13  S1  UNL     1      17.744  12.056 -11.924  1.00  0.00    -0.073 SA
HETATM   14  C8  UNL     1      16.495  12.884 -11.037  1.00  0.00     0.090 A 
BRANCH  14  15
HETATM   15  C9  UNL     1      15.857  14.119 -11.455  1.00  0.00    -0.056 C 
BRANCH  15  16
HETATM   16  C10 UNL     1      15.366  15.156 -11.801  1.00  0.00    -0.091 C 
BRANCH  16  17
HETATM   17  C11 UNL     1      14.791  16.435 -12.216  1.00  0.00     0.013 C 
HETATM   18  C12 UNL     1      13.293  16.460 -12.114  1.00  0.00     0.028 C 
HETATM   19  C13 UNL     1      15.272  16.716 -13.625  1.00  0.00     0.028 C 
HETATM   20  C14 UNL     1      15.308  17.558 -11.313  1.00  0.00     0.028 C 
ENDBRANCH  16  17
ENDBRANCH  15  16
ENDBRANCH  14  15
ENDBRANCH   5   9
BRANCH   8  21
HETATM   21  N4  UNL     1      12.691  14.298  -7.741  1.00  0.00    -0.385 N 
ATOM     22  H42 UNL     1      12.197  14.555  -6.886  1.00  0.00     0.157 HD
ATOM     23  H41 UNL     1      12.488  14.768  -8.622  1.00  0.00     0.157 HD
ENDBRANCH   8  21
BRANCH   1  24
HETATM   24  C2  UNL     1      12.706  12.715  -5.512  1.00  0.00     0.039 C 
HETATM   25  C1  UNL     1      12.451  11.429  -4.776  1.00  0.00     0.010 C 
ENDBRANCH   1  24
TORSDOF 6
ENDMDL
MODEL 4
REMARK VINA RESULT: -7.315354995      2.215      6.006
REMARK  6 active torsions:
REMARK  status: ('A' for Active; 'I' for Inactive)
REMARK    1  A    between atoms: C2_2  and  C3_3 
REMARK    2  A    between atoms: C5_7  and  C6_8 
REMARK    3  A    between atoms: C8_13  and  C9_14 
REMARK    4  A    between atoms: C9_14  and  C10_15 
REMARK    5  A    between atoms: C10_15  and  C11_16 
REMARK    6  A    between atoms: C15_22  and  N4_23 
ROOT
HETATM    1  C3  UNL     1      13.677  11.724  -6.786  1.00  0.00     0.001 A 
HETATM    2  C4  UNL     1      13.607  13.097  -6.705  1.00  0.00     0.100 A 
HETATM    3  N1  UNL     1      13.802  13.848  -7.798  1.00  0.00    -0.350 N 
ATOM      4  H1  UNL     1      13.743  14.861  -7.701  1.00  0.00     0.166 HD
HETATM    5  C5  UNL     1      14.074  13.338  -9.031  1.00  0.00     0.136 A 
HETATM    6  N3  UNL     1      14.140  12.038  -9.105  1.00  0.00    -0.327 N 
ATOM      7  H3  UNL     1      14.341  11.614 -10.011  1.00  0.00     0.169 HD
HETATM    8  C15 UNL     1      13.952  11.210  -8.028  1.00  0.00     0.108 A 
ENDROOT
BRANCH   5   9
HETATM    9  C6  UNL     1      14.275  14.300 -10.164  1.00  0.00     0.103 A 
HETATM   10  N2  UNL     1      13.511  15.392 -10.221  1.00  0.00    -0.355 N 
HETATM   11  C7  UNL     1      13.647  16.254 -11.171  1.00  0.00     0.140 A 
ATOM     12  H2  UNL     1      12.807  15.548  -9.500  1.00  0.00     0.166 HD
HETATM   13  S1  UNL     1      14.899  15.601 -12.108  1.00  0.00    -0.073 SA
HETATM   14  C8  UNL     1      15.187  14.170 -11.159  1.00  0.00     0.090 A 
BRANCH  14  15
HETATM   15  C9  UNL     1      16.188  13.161 -11.457  1.00  0.00    -0.056 C 
BRANCH  15  16
HETATM   16  C10 UNL     1      17.030  12.354 -11.730  1.00  0.00    -0.091 C 
BRANCH  16  17
HETATM   17  C11 UNL     1      18.074  11.389 -12.076  1.00  0.00     0.013 C 
HETATM   18  C12 UNL     1      17.799  10.671 -13.365  1.00  0.00     0.028 C 
HETATM   19  C13 UNL     1      18.216  10.433 -10.909  1.00  0.00     0.028 C 
HETATM   20  C14 UNL     1      19.413  12.109 -12.256  1.00  0.00     0.028 C 
ENDBRANCH  16  17
ENDBRANCH  15  16
ENDBRANCH  14  15
ENDBRANCH   5   9
BRANCH   8  21
HETATM   21  N4  UNL     1      14.026   9.943  -8.152  1.00  0.00    -0.385 N 
ATOM     22  H42 UNL     1      14.929   9.475  -8.239  1.00  0.00     0.157 HD
ATOM     23  H41 UNL     1      13.159   9.407  -8.162  1.00  0.00     0.157 HD
ENDBRANCH   8  21
BRANCH   1  24
HETATM   24  C2  UNL     1      13.474  10.826  -5.625  1.00  0.00     0.039 C 
HETATM   25  C1  UNL     1      12.449  11.351  -4.657  1.00  0.00     0.010 C 
ENDBRANCH   1  24
TORSDOF 6
ENDMDL
MODEL 5
REMARK VINA RESULT: -7.267732436      2.217      5.670
REMARK  6 active torsions:
REMARK  status: ('A' for Active; 'I' for Inactive)
REMARK    1  A    between atoms: C2_2  and  C3_3 
REMARK    2  A    between atoms: C5_7  and  C6_8 
REMARK    3  A    between atoms: C8_13  and  C9_14 
REMARK    4  A    between atoms: C9_14  and  C10_15 
REMARK    5  A    between atoms: C10_15  and  C11_16 
REMARK    6  A    between atoms: C15_22  and  N4_23 
ROOT
HETATM    1  C3  UNL     1      14.982  10.683  -6.698  1.00  0.00     0.001 A 
HETATM    2  C4  UNL     1      16.021  11.140  -7.479  1.00  0.00     0.100 A 
HETATM    3  N1  UNL     1      15.808  12.105  -8.385  1.00  0.00    -0.350 N 
ATOM      4  H1  UNL     1      16.600  12.418  -8.947  1.00  0.00     0.166 HD
HETATM    5  C5  UNL     1      14.598  12.691  -8.601  1.00  0.00     0.136 A 
HETATM    6  N3  UNL     1      13.617  12.257  -7.860  1.00  0.00    -0.327 N 
ATOM      7  H3  UNL     1      12.694  12.670  -7.989  1.00  0.00     0.169 HD
HETATM    8  C15 UNL     1      13.763  11.273  -6.915  1.00  0.00     0.108 A 
ENDROOT
BRANCH   5   9
HETATM    9  C6  UNL     1      14.508  13.755  -9.654  1.00  0.00     0.103 A 
HETATM   10  N2  UNL     1      13.649  14.760  -9.479  1.00  0.00    -0.355 N 
HETATM   11  C7  UNL     1      13.536  15.703 -10.352  1.00  0.00     0.140 A 
ATOM     12  H2  UNL     1      13.070  14.783  -8.639  1.00  0.00     0.166 HD
HETATM   13  S1  UNL     1      14.658  15.263 -11.542  1.00  0.00    -0.073 SA
HETATM   14  C8  UNL     1      15.239  13.801 -10.795  1.00  0.00     0.090 A 
BRANCH  14  15
HETATM   15  C9  UNL     1      16.260  12.932 -11.351  1.00  0.00    -0.056 C 
BRANCH  15  16
HETATM   16  C10 UNL     1      17.112  12.202 -11.772  1.00  0.00    -0.091 C 
BRANCH  16  17
HETATM   17  C11 UNL     1      18.165  11.312 -12.262  1.00  0.00     0.013 C 
HETATM   18  C12 UNL     1      17.860  10.741 -13.617  1.00  0.00     0.028 C 
HETATM   19  C13 UNL     1      18.370  10.231 -11.220  1.00  0.00     0.028 C 
HETATM   20  C14 UNL     1      19.479  12.084 -12.400  1.00  0.00     0.028 C 
ENDBRANCH  16  17
ENDBRANCH  15  16
ENDBRANCH  14  15
ENDBRANCH   5   9
BRANCH   8  21
HETATM   21  N4  UNL     1      12.772  10.883  -6.214  1.00  0.00    -0.385 N 
ATOM     22  H42 UNL     1      12.907  10.510  -5.274  1.00  0.00     0.157 HD
ATOM     23  H41 UNL     1      11.838  10.953  -6.619  1.00  0.00     0.157 HD
ENDBRANCH   8  21
BRANCH   1  24
HETATM   24  C2  UNL     1      15.136   9.621  -5.676  1.00  0.00     0.039 C 
HETATM   25  C1  UNL     1      16.336   8.748  -5.922  1.00  0.00     0.010 C 
ENDBRANCH   1  24
TORSDOF 6
ENDMDL
