MODEL 1
REMARK VINA RESULT: -8.204948782      0.000      0.000
REMARK  6 active torsions:
REMARK  status: ('A' for Active; 'I' for Inactive)
REMARK    1  A    between atoms: C5_6  and  O2_7 
REMARK    2  A    between atoms: C6_9  and  N1_10 
REMARK    3  A    between atoms: N1_10  and  S1_12 
REMARK    4  A    between atoms: S1_12  and  C7_13 
REMARK    5  A    between atoms: C9_16  and  C10_17 
REMARK    6  A    between atoms: C11_18  and  C12_19 
ROOT
HETATM    1  C1  UNL     1      23.419 -18.078   8.149  1.00  0.00     0.078 C 
HETATM    2  C2  UNL     1      22.996 -19.020   7.042  1.00  0.00     0.158 C 
HETATM    3  C3  UNL     1      23.353 -18.464   5.687  1.00  0.00     0.078 C 
HETATM    4  O1  UNL     1      21.606 -19.192   7.172  1.00  0.00    -0.345 OA
HETATM    5  C4  UNL     1      21.482 -20.330   7.915  1.00  0.00     0.187 C 
HETATM    6  C5  UNL     1      20.168 -20.999   7.940  1.00  0.00     0.175 C 
HETATM    7  C6  UNL     1      20.271 -22.471   7.680  1.00  0.00     0.151 C 
HETATM    8  C13 UNL     1      21.464 -23.112   8.305  1.00  0.00     0.182 C 
HETATM    9  O6  UNL     1      21.267 -23.182   9.682  1.00  0.00    -0.346 OA
HETATM   10  C14 UNL     1      22.410 -22.716  10.293  1.00  0.00     0.158 C 
HETATM   11  C15 UNL     1      22.050 -21.886  11.533  1.00  0.00     0.078 C 
HETATM   12  C16 UNL     1      23.212 -23.895  10.801  1.00  0.00     0.078 C 
HETATM   13  O7  UNL     1      23.098 -21.939   9.394  1.00  0.00    -0.345 OA
HETATM   14  C17 UNL     1      22.757 -22.376   8.117  1.00  0.00     0.188 C 
HETATM   15  C18 UNL     1      22.563 -21.188   7.237  1.00  0.00     0.188 C 
HETATM   16  O8  UNL     1      23.585 -20.269   7.247  1.00  0.00    -0.345 OA
ENDROOT
BRANCH   7  17
HETATM   17  N1  UNL     1      20.153 -22.833   6.283  1.00  0.00    -0.353 N 
ATOM     18  H1  UNL     1      20.082 -22.138   5.539  1.00  0.00     0.168 HD
BRANCH  17  19
HETATM   19  S1  UNL     1      20.142 -24.531   5.971  1.00  0.00    -0.026 SA
BRANCH  19  20
HETATM   20  C7  UNL     1      20.632 -24.976   4.289  1.00  0.00     0.213 C 
HETATM   21  O3  UNL     1      19.951 -26.067   3.761  1.00  0.00    -0.372 OA
HETATM   22  C8  UNL     1      21.085 -26.832   3.883  1.00  0.00     0.181 C 
HETATM   23  C9  UNL     1      21.966 -25.631   4.178  1.00  0.00     0.073 C 
BRANCH  23  24
HETATM   24  C10 UNL     1      22.822 -25.283   3.037  1.00  0.00    -0.010 C 
HETATM   25  C11 UNL     1      23.881 -24.509   3.070  1.00  0.00     0.081 C 
BRANCH  25  26
HETATM   26  C12 UNL     1      24.688 -24.205   1.898  1.00  0.00     0.198 C 
HETATM   27  O4  UNL     1      25.025 -23.011   1.709  1.00  0.00    -0.645 OA
HETATM   28  O5  UNL     1      25.083 -25.184   1.005  1.00  0.00    -0.645 OA
ENDBRANCH  25  26
ENDBRANCH  23  24
ENDBRANCH  19  20
ENDBRANCH  17  19
ENDBRANCH   7  17
BRANCH   6  29
HETATM   29  O2  UNL     1      19.214 -20.415   7.117  1.00  0.00    -0.391 OA
ATOM     30  H2  UNL     1      18.316 -20.576   7.383  1.00  0.00     0.210 HD
ENDBRANCH   6  29
TORSDOF 6
ENDMDL
MODEL 2
REMARK VINA RESULT: -7.967878116      2.039      2.687
REMARK  6 active torsions:
REMARK  status: ('A' for Active; 'I' for Inactive)
REMARK    1  A    between atoms: C5_6  and  O2_7 
REMARK    2  A    between atoms: C6_9  and  N1_10 
REMARK    3  A    between atoms: N1_10  and  S1_12 
REMARK    4  A    between atoms: S1_12  and  C7_13 
REMARK    5  A    between atoms: C9_16  and  C10_17 
REMARK    6  A    between atoms: C11_18  and  C12_19 
ROOT
HETATM    1  C1  UNL     1      23.478 -18.024   8.190  1.00  0.00     0.078 C 
HETATM    2  C2  UNL     1      23.066 -18.954   7.070  1.00  0.00     0.158 C 
HETATM    3  C3  UNL     1      23.431 -18.382   5.723  1.00  0.00     0.078 C 
HETATM    4  O1  UNL     1      21.675 -19.130   7.187  1.00  0.00    -0.345 OA
HETATM    5  C4  UNL     1      21.548 -20.277   7.916  1.00  0.00     0.187 C 
HETATM    6  C5  UNL     1      20.235 -20.949   7.923  1.00  0.00     0.175 C 
HETATM    7  C6  UNL     1      20.344 -22.418   7.648  1.00  0.00     0.151 C 
HETATM    8  C13 UNL     1      21.533 -23.063   8.274  1.00  0.00     0.182 C 
HETATM    9  O6  UNL     1      21.326 -23.149   9.649  1.00  0.00    -0.346 OA
HETATM   10  C14 UNL     1      22.463 -22.688  10.274  1.00  0.00     0.158 C 
HETATM   11  C15 UNL     1      22.092 -21.872  11.520  1.00  0.00     0.078 C 
HETATM   12  C16 UNL     1      23.264 -23.870  10.775  1.00  0.00     0.078 C 
HETATM   13  O7  UNL     1      23.156 -21.899   9.389  1.00  0.00    -0.345 OA
HETATM   14  C17 UNL     1      22.826 -22.322   8.104  1.00  0.00     0.188 C 
HETATM   15  C18 UNL     1      22.636 -21.125   7.237  1.00  0.00     0.188 C 
HETATM   16  O8  UNL     1      23.656 -20.203   7.265  1.00  0.00    -0.345 OA
ENDROOT
BRANCH   7  17
HETATM   17  N1  UNL     1      20.237 -22.764   6.245  1.00  0.00    -0.353 N 
ATOM     18  H1  UNL     1      20.318 -22.071   5.501  1.00  0.00     0.168 HD
BRANCH  17  19
HETATM   19  S1  UNL     1      19.962 -24.439   5.930  1.00  0.00    -0.026 SA
BRANCH  19  20
HETATM   20  C7  UNL     1      21.335 -25.269   5.098  1.00  0.00     0.213 C 
HETATM   21  O3  UNL     1      21.329 -25.145   3.714  1.00  0.00    -0.372 OA
HETATM   22  C8  UNL     1      20.966 -26.465   3.599  1.00  0.00     0.181 C 
HETATM   23  C9  UNL     1      21.242 -26.756   5.064  1.00  0.00     0.073 C 
BRANCH  23  24
HETATM   24  C10 UNL     1      22.470 -27.537   5.247  1.00  0.00    -0.010 C 
HETATM   25  C11 UNL     1      22.555 -28.734   5.780  1.00  0.00     0.081 C 
BRANCH  25  26
HETATM   26  C12 UNL     1      23.809 -29.456   5.932  1.00  0.00     0.198 C 
HETATM   27  O4  UNL     1      24.743 -29.187   5.139  1.00  0.00    -0.645 OA
HETATM   28  O5  UNL     1      23.989 -30.414   6.913  1.00  0.00    -0.645 OA
ENDBRANCH  25  26
ENDBRANCH  23  24
ENDBRANCH  19  20
ENDBRANCH  17  19
ENDBRANCH   7  17
BRANCH   6  29
HETATM   29  O2  UNL     1      19.286 -20.358   7.100  1.00  0.00    -0.391 OA
ATOM     30  H2  UNL     1      18.427 -20.762   7.139  1.00  0.00     0.210 HD
ENDBRANCH   6  29
TORSDOF 6
ENDMDL
MODEL 3
REMARK VINA RESULT: -7.611945743      2.121      7.242
REMARK  6 active torsions:
REMARK  status: ('A' for Active; 'I' for Inactive)
REMARK    1  A    between atoms: C5_6  and  O2_7 
REMARK    2  A    between atoms: C6_9  and  N1_10 
REMARK    3  A    between atoms: N1_10  and  S1_12 
REMARK    4  A    between atoms: S1_12  and  C7_13 
REMARK    5  A    between atoms: C9_16  and  C10_17 
REMARK    6  A    between atoms: C11_18  and  C12_19 
ROOT
HETATM    1  C1  UNL     1      22.901 -25.691  -0.032  1.00  0.00     0.078 C 
HETATM    2  C2  UNL     1      22.035 -24.863   0.893  1.00  0.00     0.158 C 
HETATM    3  C3  UNL     1      21.551 -23.609   0.211  1.00  0.00     0.078 C 
HETATM    4  O1  UNL     1      22.826 -24.559   2.016  1.00  0.00    -0.345 OA
HETATM    5  C4  UNL     1      22.508 -25.534   2.918  1.00  0.00     0.187 C 
HETATM    6  C5  UNL     1      22.884 -25.318   4.328  1.00  0.00     0.175 C 
HETATM    7  C6  UNL     1      21.748 -25.587   5.268  1.00  0.00     0.151 C 
HETATM    8  C13 UNL     1      20.900 -26.749   4.874  1.00  0.00     0.182 C 
HETATM    9  O6  UNL     1      21.612 -27.924   5.105  1.00  0.00    -0.346 OA
HETATM   10  C14 UNL     1      21.503 -28.708   3.978  1.00  0.00     0.158 C 
HETATM   11  C15 UNL     1      22.833 -29.422   3.696  1.00  0.00     0.078 C 
HETATM   12  C16 UNL     1      20.490 -29.802   4.234  1.00  0.00     0.078 C 
HETATM   13  O7  UNL     1      21.173 -27.901   2.917  1.00  0.00    -0.345 OA
HETATM   14  C17 UNL     1      20.505 -26.791   3.427  1.00  0.00     0.188 C 
HETATM   15  C18 UNL     1      20.984 -25.572   2.716  1.00  0.00     0.188 C 
HETATM   16  O8  UNL     1      20.965 -25.638   1.343  1.00  0.00    -0.345 OA
ENDROOT
BRANCH   7  17
HETATM   17  N1  UNL     1      20.938 -24.423   5.562  1.00  0.00    -0.353 N 
ATOM     18  H1  UNL     1      20.409 -23.926   4.846  1.00  0.00     0.168 HD
BRANCH  17  19
HETATM   19  S1  UNL     1      20.937 -23.940   7.221  1.00  0.00    -0.026 SA
BRANCH  19  20
HETATM   20  C7  UNL     1      22.267 -22.796   7.656  1.00  0.00     0.213 C 
HETATM   21  O3  UNL     1      22.627 -22.817   8.999  1.00  0.00    -0.372 OA
HETATM   22  C8  UNL     1      22.034 -21.590   9.175  1.00  0.00     0.181 C 
HETATM   23  C9  UNL     1      21.873 -21.359   7.683  1.00  0.00     0.073 C 
BRANCH  23  24
HETATM   24  C10 UNL     1      22.826 -20.365   7.176  1.00  0.00    -0.010 C 
HETATM   25  C11 UNL     1      22.526 -19.262   6.529  1.00  0.00     0.081 C 
BRANCH  25  26
HETATM   26  C12 UNL     1      23.522 -18.316   6.053  1.00  0.00     0.198 C 
HETATM   27  O4  UNL     1      24.351 -17.867   6.881  1.00  0.00    -0.645 OA
HETATM   28  O5  UNL     1      23.575 -17.908   4.732  1.00  0.00    -0.645 OA
ENDBRANCH  25  26
ENDBRANCH  23  24
ENDBRANCH  19  20
ENDBRANCH  17  19
ENDBRANCH   7  17
BRANCH   6  29
HETATM   29  O2  UNL     1      23.458 -24.080   4.584  1.00  0.00    -0.391 OA
ATOM     30  H2  UNL     1      24.094 -24.082   5.289  1.00  0.00     0.210 HD
ENDBRANCH   6  29
TORSDOF 6
ENDMDL
MODEL 4
REMARK VINA RESULT: -7.562505019      5.859      8.510
REMARK  6 active torsions:
REMARK  status: ('A' for Active; 'I' for Inactive)
REMARK    1  A    between atoms: C5_6  and  O2_7 
REMARK    2  A    between atoms: C6_9  and  N1_10 
REMARK    3  A    between atoms: N1_10  and  S1_12 
REMARK    4  A    between atoms: S1_12  and  C7_13 
REMARK    5  A    between atoms: C9_16  and  C10_17 
REMARK    6  A    between atoms: C11_18  and  C12_19 
ROOT
HETATM    1  C1  UNL     1      20.609 -29.714   4.968  1.00  0.00     0.078 C 
HETATM    2  C2  UNL     1      20.884 -28.241   4.754  1.00  0.00     0.158 C 
HETATM    3  C3  UNL     1      20.895 -27.492   6.062  1.00  0.00     0.078 C 
HETATM    4  O1  UNL     1      19.869 -27.765   3.904  1.00  0.00    -0.345 OA
HETATM    5  C4  UNL     1      20.419 -27.843   2.657  1.00  0.00     0.187 C 
HETATM    6  C5  UNL     1      19.767 -27.094   1.566  1.00  0.00     0.175 C 
HETATM    7  C6  UNL     1      20.742 -26.285   0.767  1.00  0.00     0.151 C 
HETATM    8  C13 UNL     1      22.053 -26.963   0.548  1.00  0.00     0.182 C 
HETATM    9  O6  UNL     1      21.876 -27.997  -0.368  1.00  0.00    -0.346 OA
HETATM   10  C14 UNL     1      22.485 -29.121   0.146  1.00  0.00     0.158 C 
HETATM   11  C15 UNL     1      21.645 -30.369  -0.162  1.00  0.00     0.078 C 
HETATM   12  C16 UNL     1      23.809 -29.328  -0.556  1.00  0.00     0.078 C 
HETATM   13  O7  UNL     1      22.610 -28.965   1.504  1.00  0.00    -0.345 OA
HETATM   14  C17 UNL     1      22.655 -27.599   1.767  1.00  0.00     0.188 C 
HETATM   15  C18 UNL     1      21.827 -27.312   2.973  1.00  0.00     0.188 C 
HETATM   16  O8  UNL     1      22.093 -28.090   4.074  1.00  0.00    -0.345 OA
ENDROOT
BRANCH   7  17
HETATM   17  N1  UNL     1      20.926 -24.933   1.253  1.00  0.00    -0.353 N 
ATOM     18  H1  UNL     1      20.404 -24.559   2.045  1.00  0.00     0.168 HD
BRANCH  17  19
HETATM   19  S1  UNL     1      22.098 -24.004   0.390  1.00  0.00    -0.026 SA
BRANCH  19  20
HETATM   20  C7  UNL     1      23.770 -24.111   1.069  1.00  0.00     0.213 C 
HETATM   21  O3  UNL     1      24.341 -22.883   1.385  1.00  0.00    -0.372 OA
HETATM   22  C8  UNL     1      25.186 -23.001   0.308  1.00  0.00     0.181 C 
HETATM   23  C9  UNL     1      24.827 -24.460   0.079  1.00  0.00     0.073 C 
BRANCH  23  24
HETATM   24  C10 UNL     1      25.906 -25.362   0.498  1.00  0.00    -0.010 C 
HETATM   25  C11 UNL     1      26.331 -26.418  -0.156  1.00  0.00     0.081 C 
BRANCH  25  26
HETATM   26  C12 UNL     1      27.409 -27.273   0.317  1.00  0.00     0.198 C 
HETATM   27  O4  UNL     1      27.161 -28.069   1.255  1.00  0.00    -0.645 OA
HETATM   28  O5  UNL     1      28.676 -27.229  -0.235  1.00  0.00    -0.645 OA
ENDBRANCH  25  26
ENDBRANCH  23  24
ENDBRANCH  19  20
ENDBRANCH  17  19
ENDBRANCH   7  17
BRANCH   6  29
HETATM   29  O2  UNL     1      18.691 -26.316   1.971  1.00  0.00    -0.391 OA
ATOM     30  H2  UNL     1      18.604 -25.494   1.503  1.00  0.00     0.210 HD
ENDBRANCH   6  29
TORSDOF 6
ENDMDL
MODEL 5
REMARK VINA RESULT: -7.509538371      4.741      7.622
REMARK  6 active torsions:
REMARK  status: ('A' for Active; 'I' for Inactive)
REMARK    1  A    between atoms: C5_6  and  O2_7 
REMARK    2  A    between atoms: C6_9  and  N1_10 
REMARK    3  A    between atoms: N1_10  and  S1_12 
REMARK    4  A    between atoms: S1_12  and  C7_13 
REMARK    5  A    between atoms: C9_16  and  C10_17 
REMARK    6  A    between atoms: C11_18  and  C12_19 
ROOT
HETATM    1  C1  UNL     1      20.257 -27.760   6.571  1.00  0.00     0.078 C 
HETATM    2  C2  UNL     1      21.179 -26.631   6.164  1.00  0.00     0.158 C 
HETATM    3  C3  UNL     1      21.527 -25.758   7.343  1.00  0.00     0.078 C 
HETATM    4  O1  UNL     1      20.502 -25.900   5.171  1.00  0.00    -0.345 OA
HETATM    5  C4  UNL     1      20.962 -26.430   4.000  1.00  0.00     0.187 C 
HETATM    6  C5  UNL     1      20.734 -25.664   2.760  1.00  0.00     0.175 C 
HETATM    7  C6  UNL     1      21.977 -25.534   1.933  1.00  0.00     0.151 C 
HETATM    8  C13 UNL     1      22.830 -26.757   1.928  1.00  0.00     0.182 C 
HETATM    9  O6  UNL     1      22.203 -27.739   1.164  1.00  0.00    -0.346 OA
HETATM   10  C14 UNL     1      22.224 -28.910   1.888  1.00  0.00     0.158 C 
HETATM   11  C15 UNL     1      20.906 -29.675   1.700  1.00  0.00     0.078 C 
HETATM   12  C16 UNL     1      23.309 -29.810   1.338  1.00  0.00     0.078 C 
HETATM   13  O7  UNL     1      22.398 -28.599   3.214  1.00  0.00    -0.345 OA
HETATM   14  C17 UNL     1      23.065 -27.378   3.273  1.00  0.00     0.188 C 
HETATM   15  C18 UNL     1      22.455 -26.548   4.350  1.00  0.00     0.188 C 
HETATM   16  O8  UNL     1      22.327 -27.162   5.573  1.00  0.00    -0.345 OA
ENDROOT
BRANCH   7  17
HETATM   17  N1  UNL     1      22.759 -24.351   2.227  1.00  0.00    -0.353 N 
ATOM     18  H1  UNL     1      22.752 -23.901   3.143  1.00  0.00     0.168 HD
BRANCH  17  19
HETATM   19  S1  UNL     1      23.705 -23.760   0.909  1.00  0.00    -0.026 SA
BRANCH  19  20
HETATM   20  C7  UNL     1      25.488 -23.795   1.206  1.00  0.00     0.213 C 
HETATM   21  O3  UNL     1      26.074 -22.540   1.337  1.00  0.00    -0.372 OA
HETATM   22  C8  UNL     1      26.664 -22.690   0.106  1.00  0.00     0.181 C 
HETATM   23  C9  UNL     1      26.314 -24.166   0.023  1.00  0.00     0.073 C 
BRANCH  23  24
HETATM   24  C10 UNL     1      27.487 -25.022   0.230  1.00  0.00    -0.010 C 
HETATM   25  C11 UNL     1      27.584 -26.294  -0.078  1.00  0.00     0.081 C 
BRANCH  25  26
HETATM   26  C12 UNL     1      28.780 -27.087   0.156  1.00  0.00     0.198 C 
HETATM   27  O4  UNL     1      29.106 -27.326   1.344  1.00  0.00    -0.645 OA
HETATM   28  O5  UNL     1      29.552 -27.574  -0.884  1.00  0.00    -0.645 OA
ENDBRANCH  25  26
ENDBRANCH  23  24
ENDBRANCH  19  20
ENDBRANCH  17  19
ENDBRANCH   7  17
BRANCH   6  29
HETATM   29  O2  UNL     1      20.135 -24.427   2.954  1.00  0.00    -0.391 OA
ATOM     30  H2  UNL     1      19.382 -24.443   3.532  1.00  0.00     0.210 HD
ENDBRANCH   6  29
TORSDOF 6
ENDMDL
