MODEL 1
REMARK VINA RESULT: -6.182917841      0.000      0.000
REMARK  16 active torsions:
REMARK  status: ('A' for Active; 'I' for Inactive)
REMARK    1  A    between atoms: C2_2  and  C3_3 
REMARK    2  A    between atoms: C3_3  and  C4_4 
REMARK    3  A    between atoms: C4_4  and  C5_5 
REMARK    4  A    between atoms: C6_8  and  O1_9 
REMARK    5  A    between atoms: N2_11  and  C7_12 
REMARK    6  A    between atoms: C7_12  and  C8_13 
REMARK       I    between atoms: C8_13  and  N3_15 
REMARK    7  A    between atoms: C11_20  and  C12_21 
REMARK    8  A    between atoms: C12_21  and  C13_22 
REMARK    9  A    between atoms: C17_29  and  C18_30 
REMARK   10  A    between atoms: C18_30  and  C19_31 
REMARK   11  A    between atoms: C23_38  and  C24_39 
REMARK   12  A    between atoms: C24_39  and  C25_40 
REMARK   13  A    between atoms: C28_45  and  O6_46 
REMARK   14  A    between atoms: C29_48  and  C30_49 
REMARK   15  A    between atoms: C30_49  and  C31_50 
REMARK   16  A    between atoms: C34_55  and  O7_56 
ROOT
HETATM    1  C5  UNL     1      28.828  26.372  19.704  1.00  0.00     0.063 C 
HETATM    2  N1  UNL     1      27.825  26.313  18.662  1.00  0.00    -0.322 N 
ATOM      3  H1  UNL     1      26.887  26.145  19.024  1.00  0.00     0.169 HD
HETATM    4  C6  UNL     1      27.856  26.432  17.293  1.00  0.00     0.230 C 
HETATM    5  N2  UNL     1      28.011  27.509  16.390  1.00  0.00    -0.251 N 
HETATM    6  C10 UNL     1      27.541  28.836  16.652  1.00  0.00     0.254 C 
HETATM    7  O3  UNL     1      28.208  29.804  16.266  1.00  0.00    -0.270 OA
HETATM    8  C11 UNL     1      26.243  29.056  17.389  1.00  0.00     0.178 C 
HETATM    9  N4  UNL     1      25.147  28.691  16.484  1.00  0.00    -0.346 N 
ATOM     10  H4  UNL     1      24.897  29.388  15.784  1.00  0.00     0.163 HD
HETATM   11  C16 UNL     1      24.400  27.504  16.460  1.00  0.00     0.241 C 
HETATM   12  O4  UNL     1      24.618  26.737  15.437  1.00  0.00    -0.271 OA
HETATM   13  C17 UNL     1      23.411  26.999  17.415  1.00  0.00     0.177 C 
HETATM   14  N5  UNL     1      23.724  27.309  18.809  1.00  0.00    -0.346 N 
ATOM     15  H5  UNL     1      24.002  28.272  18.999  1.00  0.00     0.163 HD
HETATM   16  C22 UNL     1      23.693  26.470  19.896  1.00  0.00     0.241 C 
HETATM   17  O5  UNL     1      23.516  27.019  21.043  1.00  0.00    -0.271 OA
HETATM   18  C23 UNL     1      23.838  24.976  19.943  1.00  0.00     0.175 C 
HETATM   19  N6  UNL     1      24.499  24.631  21.169  1.00  0.00    -0.359 N 
ATOM     20  H6  UNL     1      23.873  24.454  21.956  1.00  0.00     0.162 HD
HETATM   21  C28 UNL     1      25.856  24.497  21.462  1.00  0.00     0.135 C 
HETATM   22  C29 UNL     1      26.877  23.580  20.959  1.00  0.00     0.158 C 
HETATM   23  N7  UNL     1      28.223  24.165  20.977  1.00  0.00    -0.357 N 
ATOM     24  H7  UNL     1      28.964  23.481  21.126  1.00  0.00     0.162 HD
HETATM   25  C34 UNL     1      28.685  25.460  20.833  1.00  0.00     0.159 C 
ENDROOT
BRANCH   5  26
HETATM   26  C7  UNL     1      28.634  27.286  15.106  1.00  0.00     0.177 C 
BRANCH  26  27
HETATM   27  C8  UNL     1      29.994  26.805  15.075  1.00  0.00     0.257 C 
HETATM   28  O2  UNL     1      30.987  27.422  15.463  1.00  0.00    -0.267 OA
HETATM   29  N3  UNL     1      30.231  25.484  14.543  1.00  0.00    -0.361 N 
HETATM   30  C9  UNL     1      31.569  24.935  14.480  1.00  0.00     0.149 C 
ATOM     31  H3  UNL     1      29.444  24.929  14.207  1.00  0.00     0.162 HD
ENDBRANCH  26  27
ENDBRANCH   5  26
BRANCH   4  32
HETATM   32  O1  UNL     1      27.702  25.295  16.654  1.00  0.00    -0.332 OA
ATOM     33  H1  UNL     1      26.987  25.297  16.028  1.00  0.00     0.221 HD
ENDBRANCH   4  32
BRANCH   8  34
HETATM   34  C12 UNL     1      26.059  30.491  17.754  1.00  0.00     0.038 C 
BRANCH  34  35
HETATM   35  C13 UNL     1      27.066  30.960  18.755  1.00  0.00    -0.020 C 
HETATM   36  C14 UNL     1      26.472  32.137  19.575  1.00  0.00     0.009 C 
HETATM   37  C15 UNL     1      27.442  29.868  19.739  1.00  0.00     0.009 C 
ENDBRANCH  34  35
ENDBRANCH   8  34
BRANCH   1  38
HETATM   38  C4  UNL     1      30.174  26.725  19.199  1.00  0.00     0.062 C 
BRANCH  38  39
HETATM   39  C3  UNL     1      31.219  25.708  18.989  1.00  0.00     0.006 C 
BRANCH  39  40
HETATM   40  C2  UNL     1      30.953  24.538  18.133  1.00  0.00    -0.004 C 
HETATM   41  C1  UNL     1      31.055  23.232  18.930  1.00  0.00     0.005 C 
ENDBRANCH  39  40
ENDBRANCH  38  39
ENDBRANCH   1  38
BRANCH  25  42
HETATM   42  O7  UNL     1      29.099  26.029  21.953  1.00  0.00    -0.345 OA
ATOM     43  H7  UNL     1      28.955  25.455  22.696  1.00  0.00     0.219 HD
ENDBRANCH  25  42
BRANCH  13  44
HETATM   44  C18 UNL     1      21.995  27.444  17.238  1.00  0.00     0.038 C 
BRANCH  44  45
HETATM   45  C19 UNL     1      21.058  26.621  16.450  1.00  0.00    -0.020 C 
HETATM   46  C20 UNL     1      19.925  26.088  17.393  1.00  0.00     0.009 C 
HETATM   47  C21 UNL     1      20.293  27.478  15.465  1.00  0.00     0.009 C 
ENDBRANCH  44  45
ENDBRANCH  13  44
BRANCH  22  48
HETATM   48  C30 UNL     1      26.560  22.885  19.664  1.00  0.00     0.037 C 
BRANCH  48  49
HETATM   49  C31 UNL     1      26.481  21.392  19.749  1.00  0.00    -0.020 C 
HETATM   50  C32 UNL     1      27.818  20.767  20.119  1.00  0.00     0.009 C 
HETATM   51  C33 UNL     1      25.810  20.668  18.648  1.00  0.00     0.009 C 
ENDBRANCH  48  49
ENDBRANCH  22  48
BRANCH  21  52
HETATM   52  O6  UNL     1      26.345  25.329  22.350  1.00  0.00    -0.348 OA
ATOM     53  H6  UNL     1      26.899  26.025  22.017  1.00  0.00     0.219 HD
ENDBRANCH  21  52
BRANCH  18  54
HETATM   54  C24 UNL     1      22.484  24.396  19.804  1.00  0.00     0.038 C 
BRANCH  54  55
HETATM   55  C25 UNL     1      21.745  23.944  20.995  1.00  0.00    -0.020 C 
HETATM   56  C26 UNL     1      20.591  24.835  21.362  1.00  0.00     0.009 C 
HETATM   57  C27 UNL     1      21.102  22.561  20.751  1.00  0.00     0.009 C 
ENDBRANCH  54  55
ENDBRANCH  18  54
TORSDOF 16
ENDMDL
MODEL 2
REMARK VINA RESULT: -6.089765303      0.880      1.527
REMARK  16 active torsions:
REMARK  status: ('A' for Active; 'I' for Inactive)
REMARK    1  A    between atoms: C2_2  and  C3_3 
REMARK    2  A    between atoms: C3_3  and  C4_4 
REMARK    3  A    between atoms: C4_4  and  C5_5 
REMARK    4  A    between atoms: C6_8  and  O1_9 
REMARK    5  A    between atoms: N2_11  and  C7_12 
REMARK    6  A    between atoms: C7_12  and  C8_13 
REMARK       I    between atoms: C8_13  and  N3_15 
REMARK    7  A    between atoms: C11_20  and  C12_21 
REMARK    8  A    between atoms: C12_21  and  C13_22 
REMARK    9  A    between atoms: C17_29  and  C18_30 
REMARK   10  A    between atoms: C18_30  and  C19_31 
REMARK   11  A    between atoms: C23_38  and  C24_39 
REMARK   12  A    between atoms: C24_39  and  C25_40 
REMARK   13  A    between atoms: C28_45  and  O6_46 
REMARK   14  A    between atoms: C29_48  and  C30_49 
REMARK   15  A    between atoms: C30_49  and  C31_50 
REMARK   16  A    between atoms: C34_55  and  O7_56 
ROOT
HETATM    1  C5  UNL     1      29.089  26.644  19.416  1.00  0.00     0.063 C 
HETATM    2  N1  UNL     1      28.044  26.567  18.416  1.00  0.00    -0.322 N 
ATOM      3  H1  UNL     1      27.133  26.338  18.814  1.00  0.00     0.169 HD
HETATM    4  C6  UNL     1      28.006  26.732  17.053  1.00  0.00     0.230 C 
HETATM    5  N2  UNL     1      28.065  27.844  16.183  1.00  0.00    -0.251 N 
HETATM    6  C10 UNL     1      27.541  29.136  16.512  1.00  0.00     0.254 C 
HETATM    7  O3  UNL     1      28.141  30.150  16.131  1.00  0.00    -0.270 OA
HETATM    8  C11 UNL     1      26.269  29.264  17.313  1.00  0.00     0.178 C 
HETATM    9  N4  UNL     1      25.153  28.872  16.445  1.00  0.00    -0.346 N 
ATOM     10  H4  UNL     1      24.836  29.579  15.781  1.00  0.00     0.163 HD
HETATM   11  C16 UNL     1      24.466  27.650  16.412  1.00  0.00     0.241 C 
HETATM   12  O4  UNL     1      24.676  26.930  15.353  1.00  0.00    -0.271 OA
HETATM   13  C17 UNL     1      23.548  27.063  17.391  1.00  0.00     0.177 C 
HETATM   14  N5  UNL     1      23.910  27.343  18.780  1.00  0.00    -0.346 N 
ATOM     15  H5  UNL     1      24.147  28.312  18.990  1.00  0.00     0.163 HD
HETATM   16  C22 UNL     1      23.970  26.468  19.837  1.00  0.00     0.241 C 
HETATM   17  O5  UNL     1      23.819  26.968  21.009  1.00  0.00    -0.271 OA
HETATM   18  C23 UNL     1      24.192  24.983  19.825  1.00  0.00     0.175 C 
HETATM   19  N6  UNL     1      24.925  24.632  21.008  1.00  0.00    -0.359 N 
ATOM     20  H6  UNL     1      24.346  24.398  21.814  1.00  0.00     0.162 HD
HETATM   21  C28 UNL     1      26.299  24.559  21.235  1.00  0.00     0.135 C 
HETATM   22  C29 UNL     1      27.341  23.714  20.655  1.00  0.00     0.158 C 
HETATM   23  N7  UNL     1      28.656  24.367  20.635  1.00  0.00    -0.357 N 
ATOM     24  H7  UNL     1      29.436  23.717  20.727  1.00  0.00     0.162 HD
HETATM   25  C34 UNL     1      29.045  25.688  20.516  1.00  0.00     0.159 C 
ENDROOT
BRANCH   5  26
HETATM   26  C7  UNL     1      28.639  27.697  14.865  1.00  0.00     0.177 C 
BRANCH  26  27
HETATM   27  C8  UNL     1      30.055  27.442  14.756  1.00  0.00     0.257 C 
HETATM   28  O2  UNL     1      30.948  28.288  14.811  1.00  0.00    -0.267 OA
HETATM   29  N3  UNL     1      30.482  26.075  14.564  1.00  0.00    -0.361 N 
HETATM   30  C9  UNL     1      31.886  25.744  14.446  1.00  0.00     0.149 C 
ATOM     31  H3  UNL     1      29.784  25.334  14.511  1.00  0.00     0.162 HD
ENDBRANCH  26  27
ENDBRANCH   5  26
BRANCH   4  32
HETATM   32  O1  UNL     1      27.881  25.611  16.381  1.00  0.00    -0.332 OA
ATOM     33  H1  UNL     1      28.116  25.681  15.463  1.00  0.00     0.221 HD
ENDBRANCH   4  32
BRANCH   8  34
HETATM   34  C12 UNL     1      26.029  30.674  17.736  1.00  0.00     0.038 C 
BRANCH  34  35
HETATM   35  C13 UNL     1      27.014  31.139  18.762  1.00  0.00    -0.020 C 
HETATM   36  C14 UNL     1      26.375  32.262  19.622  1.00  0.00     0.009 C 
HETATM   37  C15 UNL     1      27.421  30.023  19.706  1.00  0.00     0.009 C 
ENDBRANCH  34  35
ENDBRANCH   8  34
BRANCH   1  38
HETATM   38  C4  UNL     1      30.391  27.082  18.864  1.00  0.00     0.062 C 
BRANCH  38  39
HETATM   39  C3  UNL     1      30.945  28.419  19.141  1.00  0.00     0.006 C 
BRANCH  39  40
HETATM   40  C2  UNL     1      30.943  29.453  18.091  1.00  0.00    -0.004 C 
HETATM   41  C1  UNL     1      30.924  30.861  18.699  1.00  0.00     0.005 C 
ENDBRANCH  39  40
ENDBRANCH  38  39
ENDBRANCH   1  38
BRANCH  25  42
HETATM   42  O7  UNL     1      29.480  26.240  21.636  1.00  0.00    -0.345 OA
ATOM     43  H7  UNL     1      29.087  25.822  22.393  1.00  0.00     0.219 HD
ENDBRANCH  25  42
BRANCH  13  44
HETATM   44  C18 UNL     1      22.105  27.439  17.292  1.00  0.00     0.038 C 
BRANCH  44  45
HETATM   45  C19 UNL     1      21.194  26.646  16.446  1.00  0.00    -0.020 C 
HETATM   46  C20 UNL     1      20.028  26.086  17.332  1.00  0.00     0.009 C 
HETATM   47  C21 UNL     1      20.465  27.537  15.464  1.00  0.00     0.009 C 
ENDBRANCH  44  45
ENDBRANCH  13  44
BRANCH  22  48
HETATM   48  C30 UNL     1      27.001  23.046  19.352  1.00  0.00     0.037 C 
BRANCH  48  49
HETATM   49  C31 UNL     1      26.656  21.592  19.456  1.00  0.00    -0.020 C 
HETATM   50  C32 UNL     1      25.153  21.356  19.421  1.00  0.00     0.009 C 
HETATM   51  C33 UNL     1      27.324  20.794  20.505  1.00  0.00     0.009 C 
ENDBRANCH  48  49
ENDBRANCH  22  48
BRANCH  21  52
HETATM   52  O6  UNL     1      26.786  25.386  22.130  1.00  0.00    -0.348 OA
ATOM     53  H6  UNL     1      27.430  26.012  21.820  1.00  0.00     0.219 HD
ENDBRANCH  21  52
BRANCH  18  54
HETATM   54  C24 UNL     1      22.865  24.338  19.725  1.00  0.00     0.038 C 
BRANCH  54  55
HETATM   55  C25 UNL     1      22.159  23.902  20.942  1.00  0.00    -0.020 C 
HETATM   56  C26 UNL     1      21.031  24.811  21.343  1.00  0.00     0.009 C 
HETATM   57  C27 UNL     1      21.487  22.527  20.724  1.00  0.00     0.009 C 
ENDBRANCH  54  55
ENDBRANCH  18  54
TORSDOF 16
ENDMDL
MODEL 3
REMARK VINA RESULT: -5.847538137      1.074      1.386
REMARK  16 active torsions:
REMARK  status: ('A' for Active; 'I' for Inactive)
REMARK    1  A    between atoms: C2_2  and  C3_3 
REMARK    2  A    between atoms: C3_3  and  C4_4 
REMARK    3  A    between atoms: C4_4  and  C5_5 
REMARK    4  A    between atoms: C6_8  and  O1_9 
REMARK    5  A    between atoms: N2_11  and  C7_12 
REMARK    6  A    between atoms: C7_12  and  C8_13 
REMARK       I    between atoms: C8_13  and  N3_15 
REMARK    7  A    between atoms: C11_20  and  C12_21 
REMARK    8  A    between atoms: C12_21  and  C13_22 
REMARK    9  A    between atoms: C17_29  and  C18_30 
REMARK   10  A    between atoms: C18_30  and  C19_31 
REMARK   11  A    between atoms: C23_38  and  C24_39 
REMARK   12  A    between atoms: C24_39  and  C25_40 
REMARK   13  A    between atoms: C28_45  and  O6_46 
REMARK   14  A    between atoms: C29_48  and  C30_49 
REMARK   15  A    between atoms: C30_49  and  C31_50 
REMARK   16  A    between atoms: C34_55  and  O7_56 
ROOT
HETATM    1  C5  UNL     1      28.200  25.990  20.079  1.00  0.00     0.063 C 
HETATM    2  N1  UNL     1      27.338  25.962  18.916  1.00  0.00    -0.322 N 
ATOM      3  H1  UNL     1      26.348  25.926  19.158  1.00  0.00     0.169 HD
HETATM    4  C6  UNL     1      27.556  25.975  17.559  1.00  0.00     0.230 C 
HETATM    5  N2  UNL     1      27.951  26.957  16.623  1.00  0.00    -0.251 N 
HETATM    6  C10 UNL     1      27.612  28.344  16.739  1.00  0.00     0.254 C 
HETATM    7  O3  UNL     1      28.433  29.202  16.390  1.00  0.00    -0.270 OA
HETATM    8  C11 UNL     1      26.266  28.759  17.280  1.00  0.00     0.178 C 
HETATM    9  N4  UNL     1      25.259  28.449  16.259  1.00  0.00    -0.346 N 
ATOM     10  H4  UNL     1      25.184  29.116  15.491  1.00  0.00     0.163 HD
HETATM   11  C16 UNL     1      24.386  27.352  16.205  1.00  0.00     0.241 C 
HETATM   12  O4  UNL     1      24.640  26.492  15.268  1.00  0.00    -0.271 OA
HETATM   13  C17 UNL     1      23.230  27.032  17.046  1.00  0.00     0.177 C 
HETATM   14  N5  UNL     1      23.399  27.409  18.449  1.00  0.00    -0.346 N 
ATOM     15  H5  UNL     1      23.762  28.347  18.616  1.00  0.00     0.163 HD
HETATM   16  C22 UNL     1      23.130  26.662  19.570  1.00  0.00     0.241 C 
HETATM   17  O5  UNL     1      22.875  27.311  20.647  1.00  0.00    -0.271 OA
HETATM   18  C23 UNL     1      23.090  25.169  19.725  1.00  0.00     0.175 C 
HETATM   19  N6  UNL     1      23.544  24.846  21.047  1.00  0.00    -0.359 N 
ATOM     20  H6  UNL     1      22.807  24.799  21.751  1.00  0.00     0.162 HD
HETATM   21  C28 UNL     1      24.827  24.587  21.528  1.00  0.00     0.135 C 
HETATM   22  C29 UNL     1      25.789  23.529  21.223  1.00  0.00     0.158 C 
HETATM   23  N7  UNL     1      27.181  23.964  21.388  1.00  0.00    -0.357 N 
ATOM     24  H7  UNL     1      27.811  23.215  21.676  1.00  0.00     0.162 HD
HETATM   25  C34 UNL     1      27.808  25.185  21.230  1.00  0.00     0.159 C 
ENDROOT
BRANCH   5  26
HETATM   26  C7  UNL     1      28.702  26.572  15.451  1.00  0.00     0.177 C 
BRANCH  26  27
HETATM   27  C8  UNL     1      30.082  26.183  15.613  1.00  0.00     0.257 C 
HETATM   28  O2  UNL     1      30.842  26.572  16.501  1.00  0.00    -0.267 OA
HETATM   29  N3  UNL     1      30.639  25.254  14.658  1.00  0.00    -0.361 N 
HETATM   30  C9  UNL     1      32.016  24.819  14.759  1.00  0.00     0.149 C 
ATOM     31  H3  UNL     1      30.054  24.900  13.902  1.00  0.00     0.162 HD
ENDBRANCH  26  27
ENDBRANCH   5  26
BRANCH   4  32
HETATM   32  O1  UNL     1      27.352  24.817  16.974  1.00  0.00    -0.332 OA
ATOM     33  H1  UNL     1      28.104  24.486  16.497  1.00  0.00     0.221 HD
ENDBRANCH   4  32
BRANCH   8  34
HETATM   34  C12 UNL     1      26.208  30.229  17.530  1.00  0.00     0.038 C 
BRANCH  34  35
HETATM   35  C13 UNL     1      25.475  30.964  16.453  1.00  0.00    -0.020 C 
HETATM   36  C14 UNL     1      24.982  32.330  17.002  1.00  0.00     0.009 C 
HETATM   37  C15 UNL     1      26.361  31.251  15.256  1.00  0.00     0.009 C 
ENDBRANCH  34  35
ENDBRANCH   8  34
BRANCH   1  38
HETATM   38  C4  UNL     1      29.631  26.154  19.740  1.00  0.00     0.062 C 
BRANCH  38  39
HETATM   39  C3  UNL     1      30.558  25.010  19.696  1.00  0.00     0.006 C 
BRANCH  39  40
HETATM   40  C2  UNL     1      30.183  23.779  18.978  1.00  0.00    -0.004 C 
HETATM   41  C1  UNL     1      30.294  22.550  19.889  1.00  0.00     0.005 C 
ENDBRANCH  39  40
ENDBRANCH  38  39
ENDBRANCH   1  38
BRANCH  25  42
HETATM   42  O7  UNL     1      28.139  25.787  22.360  1.00  0.00    -0.345 OA
ATOM     43  H7  UNL     1      28.551  25.177  22.960  1.00  0.00     0.219 HD
ENDBRANCH  25  42
BRANCH  13  44
HETATM   44  C18 UNL     1      21.911  27.614  16.653  1.00  0.00     0.038 C 
BRANCH  44  45
HETATM   45  C19 UNL     1      21.400  27.420  15.284  1.00  0.00    -0.020 C 
HETATM   46  C20 UNL     1      21.354  25.886  14.966  1.00  0.00     0.009 C 
HETATM   47  C21 UNL     1      19.943  27.819  15.196  1.00  0.00     0.009 C 
ENDBRANCH  44  45
ENDBRANCH  13  44
BRANCH  22  48
HETATM   48  C30 UNL     1      25.559  22.778  19.941  1.00  0.00     0.037 C 
BRANCH  48  49
HETATM   49  C31 UNL     1      26.492  21.630  19.703  1.00  0.00    -0.020 C 
HETATM   50  C32 UNL     1      25.923  20.625  18.713  1.00  0.00     0.009 C 
HETATM   51  C33 UNL     1      27.100  20.974  20.881  1.00  0.00     0.009 C 
ENDBRANCH  48  49
ENDBRANCH  22  48
BRANCH  21  52
HETATM   52  O6  UNL     1      25.294  25.425  22.423  1.00  0.00    -0.348 OA
ATOM     53  H6  UNL     1      26.239  25.518  22.461  1.00  0.00     0.219 HD
ENDBRANCH  21  52
BRANCH  18  54
HETATM   54  C24 UNL     1      21.706  24.731  19.439  1.00  0.00     0.038 C 
BRANCH  54  55
HETATM   55  C25 UNL     1      20.936  23.995  20.456  1.00  0.00    -0.020 C 
HETATM   56  C26 UNL     1      20.143  24.884  21.373  1.00  0.00     0.009 C 
HETATM   57  C27 UNL     1      19.879  23.085  19.792  1.00  0.00     0.009 C 
ENDBRANCH  54  55
ENDBRANCH  18  54
TORSDOF 16
ENDMDL
MODEL 4
REMARK VINA RESULT: -5.734295939     12.424     17.046
REMARK  16 active torsions:
REMARK  status: ('A' for Active; 'I' for Inactive)
REMARK    1  A    between atoms: C2_2  and  C3_3 
REMARK    2  A    between atoms: C3_3  and  C4_4 
REMARK    3  A    between atoms: C4_4  and  C5_5 
REMARK    4  A    between atoms: C6_8  and  O1_9 
REMARK    5  A    between atoms: N2_11  and  C7_12 
REMARK    6  A    between atoms: C7_12  and  C8_13 
REMARK       I    between atoms: C8_13  and  N3_15 
REMARK    7  A    between atoms: C11_20  and  C12_21 
REMARK    8  A    between atoms: C12_21  and  C13_22 
REMARK    9  A    between atoms: C17_29  and  C18_30 
REMARK   10  A    between atoms: C18_30  and  C19_31 
REMARK   11  A    between atoms: C23_38  and  C24_39 
REMARK   12  A    between atoms: C24_39  and  C25_40 
REMARK   13  A    between atoms: C28_45  and  O6_46 
REMARK   14  A    between atoms: C29_48  and  C30_49 
REMARK   15  A    between atoms: C30_49  and  C31_50 
REMARK   16  A    between atoms: C34_55  and  O7_56 
ROOT
HETATM    1  C5  UNL     1      12.585  21.430  14.514  1.00  0.00     0.063 C 
HETATM    2  N1  UNL     1      12.684  19.991  14.638  1.00  0.00    -0.322 N 
ATOM      3  H1  UNL     1      12.596  19.670  15.602  1.00  0.00     0.169 HD
HETATM    4  C6  UNL     1      12.869  18.962  13.747  1.00  0.00     0.230 C 
HETATM    5  N2  UNL     1      12.059  18.321  12.783  1.00  0.00    -0.251 N 
HETATM    6  C10 UNL     1      10.643  18.153  12.923  1.00  0.00     0.254 C 
HETATM    7  O3  UNL     1       9.919  18.242  11.923  1.00  0.00    -0.270 OA
HETATM    8  C11 UNL     1      10.037  17.867  14.274  1.00  0.00     0.178 C 
HETATM    9  N4  UNL     1      10.383  16.488  14.637  1.00  0.00    -0.346 N 
ATOM     10  H4  UNL     1       9.819  15.759  14.202  1.00  0.00     0.163 HD
HETATM   11  C16 UNL     1      11.391  16.045  15.506  1.00  0.00     0.241 C 
HETATM   12  O4  UNL     1      12.386  15.443  14.933  1.00  0.00    -0.271 OA
HETATM   13  C17 UNL     1      11.490  16.159  16.963  1.00  0.00     0.177 C 
HETATM   14  N5  UNL     1      10.950  17.410  17.495  1.00  0.00    -0.346 N 
ATOM     15  H5  UNL     1      10.036  17.687  17.137  1.00  0.00     0.163 HD
HETATM   16  C22 UNL     1      11.515  18.259  18.414  1.00  0.00     0.241 C 
HETATM   17  O5  UNL     1      10.710  18.993  19.093  1.00  0.00    -0.271 OA
HETATM   18  C23 UNL     1      12.965  18.461  18.750  1.00  0.00     0.175 C 
HETATM   19  N6  UNL     1      13.153  19.839  19.104  1.00  0.00    -0.359 N 
ATOM     20  H6  UNL     1      13.039  20.044  20.097  1.00  0.00     0.162 HD
HETATM   21  C28 UNL     1      13.465  20.944  18.312  1.00  0.00     0.135 C 
HETATM   22  C29 UNL     1      14.639  21.264  17.502  1.00  0.00     0.158 C 
HETATM   23  N7  UNL     1      14.319  22.118  16.352  1.00  0.00    -0.357 N 
ATOM     24  H7  UNL     1      15.079  22.743  16.083  1.00  0.00     0.162 HD
HETATM   25  C34 UNL     1      13.192  22.243  15.561  1.00  0.00     0.159 C 
ENDROOT
BRANCH   5  26
HETATM   26  C7  UNL     1      12.662  17.755  11.598  1.00  0.00     0.177 C 
BRANCH  26  27
HETATM   27  C8  UNL     1      13.257  16.444  11.688  1.00  0.00     0.257 C 
HETATM   28  O2  UNL     1      12.650  15.372  11.660  1.00  0.00    -0.267 OA
HETATM   29  N3  UNL     1      14.692  16.361  11.822  1.00  0.00    -0.361 N 
HETATM   30  C9  UNL     1      15.358  15.079  11.917  1.00  0.00     0.149 C 
ATOM     31  H3  UNL     1      15.245  17.217  11.850  1.00  0.00     0.162 HD
ENDBRANCH  26  27
ENDBRANCH   5  26
BRANCH   4  32
HETATM   32  O1  UNL     1      14.070  18.430  13.787  1.00  0.00    -0.332 OA
ATOM     33  H1  UNL     1      14.378  18.108  12.948  1.00  0.00     0.221 HD
ENDBRANCH   4  32
BRANCH   8  34
HETATM   34  C12 UNL     1       8.549  17.957  14.236  1.00  0.00     0.038 C 
BRANCH  34  35
HETATM   35  C13 UNL     1       7.900  16.623  14.039  1.00  0.00    -0.020 C 
HETATM   36  C14 UNL     1       6.874  16.374  15.177  1.00  0.00     0.009 C 
HETATM   37  C15 UNL     1       7.146  16.546  12.726  1.00  0.00     0.009 C 
ENDBRANCH  34  35
ENDBRANCH   8  34
BRANCH   1  38
HETATM   38  C4  UNL     1      12.601  21.896  13.109  1.00  0.00     0.062 C 
BRANCH  38  39
HETATM   39  C3  UNL     1      13.856  22.220  12.409  1.00  0.00     0.006 C 
BRANCH  39  40
HETATM   40  C2  UNL     1      15.139  21.694  12.907  1.00  0.00    -0.004 C 
HETATM   41  C1  UNL     1      16.049  22.825  13.400  1.00  0.00     0.005 C 
ENDBRANCH  39  40
ENDBRANCH  38  39
ENDBRANCH   1  38
BRANCH  25  42
HETATM   42  O7  UNL     1      12.481  23.336  15.780  1.00  0.00    -0.345 OA
ATOM     43  H7  UNL     1      12.038  23.289  16.619  1.00  0.00     0.219 HD
ENDBRANCH  25  42
BRANCH  13  44
HETATM   44  C18 UNL     1      10.844  15.090  17.782  1.00  0.00     0.038 C 
BRANCH  44  45
HETATM   45  C19 UNL     1       9.567  14.496  17.342  1.00  0.00    -0.020 C 
HETATM   46  C20 UNL     1       9.633  12.941  17.530  1.00  0.00     0.009 C 
HETATM   47  C21 UNL     1       8.443  14.894  18.274  1.00  0.00     0.009 C 
ENDBRANCH  44  45
ENDBRANCH  13  44
BRANCH  22  48
HETATM   48  C30 UNL     1      15.527  20.106  17.140  1.00  0.00     0.037 C 
BRANCH  48  49
HETATM   49  C31 UNL     1      16.964  20.261  17.535  1.00  0.00    -0.020 C 
HETATM   50  C32 UNL     1      17.114  20.707  18.983  1.00  0.00     0.009 C 
HETATM   51  C33 UNL     1      17.858  21.005  16.624  1.00  0.00     0.009 C 
ENDBRANCH  48  49
ENDBRANCH  22  48
BRANCH  21  52
HETATM   52  O6  UNL     1      12.565  21.897  18.260  1.00  0.00    -0.348 OA
ATOM     53  H6  UNL     1      11.777  21.707  17.764  1.00  0.00     0.219 HD
ENDBRANCH  21  52
BRANCH  18  54
HETATM   54  C24 UNL     1      13.305  17.510  19.831  1.00  0.00     0.038 C 
BRANCH  54  55
HETATM   55  C25 UNL     1      13.669  18.007  21.169  1.00  0.00    -0.020 C 
HETATM   56  C26 UNL     1      13.222  17.107  22.287  1.00  0.00     0.009 C 
HETATM   57  C27 UNL     1      15.204  18.086  21.327  1.00  0.00     0.009 C 
ENDBRANCH  54  55
ENDBRANCH  18  54
TORSDOF 16
ENDMDL
MODEL 5
REMARK VINA RESULT: -5.567725469      2.175      7.050
REMARK  16 active torsions:
REMARK  status: ('A' for Active; 'I' for Inactive)
REMARK    1  A    between atoms: C2_2  and  C3_3 
REMARK    2  A    between atoms: C3_3  and  C4_4 
REMARK    3  A    between atoms: C4_4  and  C5_5 
REMARK    4  A    between atoms: C6_8  and  O1_9 
REMARK    5  A    between atoms: N2_11  and  C7_12 
REMARK    6  A    between atoms: C7_12  and  C8_13 
REMARK       I    between atoms: C8_13  and  N3_15 
REMARK    7  A    between atoms: C11_20  and  C12_21 
REMARK    8  A    between atoms: C12_21  and  C13_22 
REMARK    9  A    between atoms: C17_29  and  C18_30 
REMARK   10  A    between atoms: C18_30  and  C19_31 
REMARK   11  A    between atoms: C23_38  and  C24_39 
REMARK   12  A    between atoms: C24_39  and  C25_40 
REMARK   13  A    between atoms: C28_45  and  O6_46 
REMARK   14  A    between atoms: C29_48  and  C30_49 
REMARK   15  A    between atoms: C30_49  and  C31_50 
REMARK   16  A    between atoms: C34_55  and  O7_56 
ROOT
HETATM    1  C5  UNL     1      29.451  25.409  21.053  1.00  0.00     0.063 C 
HETATM    2  N1  UNL     1      28.124  25.970  20.913  1.00  0.00    -0.322 N 
ATOM      3  H1  UNL     1      27.902  26.226  19.950  1.00  0.00     0.169 HD
HETATM    4  C6  UNL     1      27.097  26.236  21.786  1.00  0.00     0.230 C 
HETATM    5  N2  UNL     1      26.147  25.448  22.475  1.00  0.00    -0.251 N 
HETATM    6  C10 UNL     1      25.598  24.233  21.952  1.00  0.00     0.254 C 
HETATM    7  O3  UNL     1      25.362  23.292  22.722  1.00  0.00    -0.270 OA
HETATM    8  C11 UNL     1      25.305  24.097  20.479  1.00  0.00     0.178 C 
HETATM    9  N4  UNL     1      24.132  24.926  20.178  1.00  0.00    -0.346 N 
ATOM     10  H4  UNL     1      23.228  24.523  20.420  1.00  0.00     0.163 HD
HETATM   11  C16 UNL     1      24.097  26.203  19.599  1.00  0.00     0.241 C 
HETATM   12  O4  UNL     1      23.744  27.161  20.399  1.00  0.00    -0.271 OA
HETATM   13  C17 UNL     1      24.398  26.619  18.227  1.00  0.00     0.177 C 
HETATM   14  N5  UNL     1      25.494  25.871  17.611  1.00  0.00    -0.346 N 
ATOM     15  H5  UNL     1      25.455  24.858  17.718  1.00  0.00     0.163 HD
HETATM   16  C22 UNL     1      26.567  26.359  16.906  1.00  0.00     0.241 C 
HETATM   17  O5  UNL     1      27.112  25.562  16.060  1.00  0.00    -0.271 OA
HETATM   18  C23 UNL     1      27.212  27.713  16.980  1.00  0.00     0.175 C 
HETATM   19  N6  UNL     1      28.617  27.552  16.736  1.00  0.00    -0.359 N 
ATOM     20  H6  UNL     1      28.891  27.630  15.756  1.00  0.00     0.162 HD
HETATM   21  C28 UNL     1      29.669  27.305  17.619  1.00  0.00     0.135 C 
HETATM   22  C29 UNL     1      30.217  28.087  18.725  1.00  0.00     0.158 C 
HETATM   23  N7  UNL     1      30.809  27.247  19.774  1.00  0.00    -0.357 N 
ATOM     24  H7  UNL     1      31.590  27.688  20.258  1.00  0.00     0.162 HD
HETATM   25  C34 UNL     1      30.516  25.977  20.235  1.00  0.00     0.159 C 
ENDROOT
BRANCH   5  26
HETATM   26  C7  UNL     1      25.647  25.883  23.758  1.00  0.00     0.177 C 
BRANCH  26  27
HETATM   27  C8  UNL     1      26.413  25.566  24.939  1.00  0.00     0.257 C 
HETATM   28  O2  UNL     1      27.214  26.313  25.503  1.00  0.00    -0.267 OA
HETATM   29  N3  UNL     1      26.236  24.259  25.527  1.00  0.00    -0.361 N 
HETATM   30  C9  UNL     1      26.971  23.871  26.713  1.00  0.00     0.149 C 
ATOM     31  H3  UNL     1      25.585  23.600  25.102  1.00  0.00     0.162 HD
ENDBRANCH  26  27
ENDBRANCH   5  26
BRANCH   4  32
HETATM   32  O1  UNL     1      26.939  27.512  22.054  1.00  0.00    -0.332 OA
ATOM     33  H1  UNL     1      27.471  28.088  21.518  1.00  0.00     0.221 HD
ENDBRANCH   4  32
BRANCH   8  34
HETATM   34  C12 UNL     1      24.960  22.691  20.118  1.00  0.00     0.038 C 
BRANCH  34  35
HETATM   35  C13 UNL     1      25.877  22.126  19.080  1.00  0.00    -0.020 C 
HETATM   36  C14 UNL     1      27.141  23.019  18.964  1.00  0.00     0.009 C 
HETATM   37  C15 UNL     1      26.343  20.727  19.435  1.00  0.00     0.009 C 
ENDBRANCH  34  35
ENDBRANCH   8  34
BRANCH   1  38
HETATM   38  C4  UNL     1      29.740  24.934  22.424  1.00  0.00     0.062 C 
BRANCH  38  39
HETATM   39  C3  UNL     1      29.296  23.613  22.902  1.00  0.00     0.006 C 
BRANCH  39  40
HETATM   40  C2  UNL     1      29.097  22.508  21.946  1.00  0.00    -0.004 C 
HETATM   41  C1  UNL     1      28.275  21.375  22.572  1.00  0.00     0.005 C 
ENDBRANCH  39  40
ENDBRANCH  38  39
ENDBRANCH   1  38
BRANCH  25  42
HETATM   42  O7  UNL     1      31.378  25.043  19.869  1.00  0.00    -0.345 OA
ATOM     43  H7  UNL     1      31.797  25.273  19.048  1.00  0.00     0.219 HD
ENDBRANCH  25  42
BRANCH  13  44
HETATM   44  C18 UNL     1      23.288  26.554  17.229  1.00  0.00     0.038 C 
BRANCH  44  45
HETATM   45  C19 UNL     1      22.095  27.404  17.400  1.00  0.00    -0.020 C 
HETATM   46  C20 UNL     1      21.510  27.757  15.989  1.00  0.00     0.009 C 
HETATM   47  C21 UNL     1      20.968  26.621  18.038  1.00  0.00     0.009 C 
ENDBRANCH  44  45
ENDBRANCH  13  44
BRANCH  22  48
HETATM   48  C30 UNL     1      29.329  29.168  19.275  1.00  0.00     0.037 C 
BRANCH  48  49
HETATM   49  C31 UNL     1      29.758  30.566  18.952  1.00  0.00    -0.020 C 
HETATM   50  C32 UNL     1      29.049  31.598  19.818  1.00  0.00     0.009 C 
HETATM   51  C33 UNL     1      29.804  30.967  17.529  1.00  0.00     0.009 C 
ENDBRANCH  48  49
ENDBRANCH  22  48
BRANCH  21  52
HETATM   52  O6  UNL     1      30.312  26.174  17.457  1.00  0.00    -0.348 OA
ATOM     53  H6  UNL     1      31.015  25.996  18.072  1.00  0.00     0.219 HD
ENDBRANCH  21  52
BRANCH  18  54
HETATM   54  C24 UNL     1      26.527  28.584  16.001  1.00  0.00     0.038 C 
BRANCH  54  55
HETATM   55  C25 UNL     1      25.837  29.806  16.449  1.00  0.00    -0.020 C 
HETATM   56  C26 UNL     1      26.207  30.229  17.843  1.00  0.00     0.009 C 
HETATM   57  C27 UNL     1      26.226  31.011  15.564  1.00  0.00     0.009 C 
ENDBRANCH  54  55
ENDBRANCH  18  54
TORSDOF 16
ENDMDL
