MODEL 1
REMARK VINA RESULT: -7.501511198      0.000      0.000
REMARK  16 active torsions:
REMARK  status: ('A' for Active; 'I' for Inactive)
REMARK    1  A    between atoms: C2_2  and  O1_3 
REMARK    2  A    between atoms: O1_3  and  C3_4 
REMARK    3  A    between atoms: C3_4  and  C4_5 
REMARK    4  A    between atoms: C4_5  and  C5_6 
REMARK    5  A    between atoms: C5_6  and  C6_8 
REMARK    6  A    between atoms: C6_8  and  C7_9 
REMARK    7  A    between atoms: C7_9  and  C8_10 
REMARK    8  A    between atoms: C10_12  and  C11_13 
REMARK    9  A    between atoms: C11_13  and  O3_15 
REMARK   10  A    between atoms: C17_21  and  C18_22 
REMARK   11  A    between atoms: C18_22  and  C19_23 
REMARK   12  A    between atoms: C23_27  and  C24_28 
REMARK   13  A    between atoms: C24_28  and  O5_30 
REMARK   14  A    between atoms: C26_32  and  O6_33 
REMARK   15  A    between atoms: C28_36  and  O7_37 
REMARK   16  A    between atoms: C30_39  and  O8_40 
ROOT
HETATM    1  C8  UNL     1      14.495  21.625  14.442  1.00  0.00    -0.033 C 
HETATM    2  C9  UNL     1      14.883  21.536  12.931  1.00  0.00     0.016 C 
HETATM    3  C10 UNL     1      14.086  22.962  14.727  1.00  0.00     0.028 C 
HETATM    4  C13 UNL     1      14.977  23.558  15.825  1.00  0.00     0.011 C 
HETATM    5  C14 UNL     1      16.292  24.019  15.210  1.00  0.00     0.001 C 
HETATM    6  C15 UNL     1      16.652  22.669  14.550  1.00  0.00     0.012 C 
HETATM    7  C16 UNL     1      15.811  21.624  15.274  1.00  0.00     0.008 C 
HETATM    8  C17 UNL     1      15.513  22.322  16.563  1.00  0.00     0.004 C 
HETATM    9  C23 UNL     1      16.650  22.599  17.467  1.00  0.00     0.039 C 
HETATM   10  C26 UNL     1      17.178  24.004  17.426  1.00  0.00     0.097 C 
HETATM   11  C27 UNL     1      18.495  24.286  17.995  1.00  0.00     0.078 C 
HETATM   12  C28 UNL     1      18.809  25.659  17.365  1.00  0.00     0.153 C 
HETATM   13  C30 UNL     1      17.811  25.818  16.203  1.00  0.00     0.154 C 
HETATM   14  C31 UNL     1      17.404  24.388  16.001  1.00  0.00     0.060 C 
ENDROOT
BRANCH   1  15
HETATM   15  C7  UNL     1      13.857  20.364  14.657  1.00  0.00     0.017 C 
BRANCH  15  16
HETATM   16  C6  UNL     1      13.453  19.444  13.541  1.00  0.00     0.079 C 
BRANCH  16  17
HETATM   17  C5  UNL     1      11.953  19.349  13.453  1.00  0.00     0.129 C 
HETATM   18  O2  UNL     1      11.421  19.651  12.404  1.00  0.00    -0.298 OA
BRANCH  17  19
HETATM   19  C4  UNL     1      11.131  18.907  14.591  1.00  0.00     0.104 C 
BRANCH  19  20
HETATM   20  C3  UNL     1      10.669  17.479  14.521  1.00  0.00     0.175 C 
BRANCH  20  21
HETATM   21  O1  UNL     1       9.867  17.095  15.574  1.00  0.00    -0.391 OA
BRANCH  21  22
HETATM   22  C2  UNL     1      10.446  16.011  16.225  1.00  0.00     0.163 C 
HETATM   23  C1  UNL     1      11.026  16.383  17.555  1.00  0.00     0.033 C 
ENDBRANCH  21  22
ENDBRANCH  20  21
ENDBRANCH  19  20
ENDBRANCH  17  19
ENDBRANCH  16  17
ENDBRANCH  15  16
ENDBRANCH   1  15
BRANCH   3  24
HETATM   24  C11 UNL     1      12.769  23.588  14.572  1.00  0.00     0.119 C 
HETATM   25  C12 UNL     1      11.580  22.642  14.609  1.00  0.00     0.040 C 
BRANCH  24  26
HETATM   26  O3  UNL     1      12.385  24.682  15.280  1.00  0.00    -0.396 OA
ATOM     27  H3  UNL     1      12.204  25.521  14.874  1.00  0.00     0.210 HD
ENDBRANCH  24  26
ENDBRANCH   3  24
BRANCH   8  28
HETATM   28  C18 UNL     1      14.413  21.853  17.450  1.00  0.00     0.042 C 
BRANCH  28  29
HETATM   29  C19 UNL     1      14.622  20.556  18.115  1.00  0.00    -0.024 C 
HETATM   30  C20 UNL     1      13.636  19.729  18.323  1.00  0.00    -0.091 C 
HETATM   31  C21 UNL     1      12.210  19.943  17.943  1.00  0.00     0.042 C 
HETATM   32  C22 UNL     1      13.910  18.405  19.019  1.00  0.00     0.042 C 
ENDBRANCH  28  29
ENDBRANCH   8  28
BRANCH   9  33
HETATM   33  C24 UNL     1      17.647  21.546  17.693  1.00  0.00     0.288 C 
HETATM   34  O4  UNL     1      18.066  20.743  16.772  1.00  0.00    -0.260 OA
BRANCH  33  35
HETATM   35  O5  UNL     1      18.291  21.230  18.874  1.00  0.00    -0.323 OA
HETATM   36  C25 UNL     1      17.964  21.625  20.160  1.00  0.00     0.213 C 
ENDBRANCH  33  35
ENDBRANCH   9  33
BRANCH  10  37
HETATM   37  O6  UNL     1      16.274  24.943  17.986  1.00  0.00    -0.384 OA
ATOM     38  H6  UNL     1      16.460  25.130  18.899  1.00  0.00     0.211 HD
ENDBRANCH  10  37
BRANCH  13  39
HETATM   39  O8  UNL     1      18.423  26.384  15.102  1.00  0.00    -0.392 OA
ATOM     40  H8  UNL     1      17.802  26.504  14.394  1.00  0.00     0.210 HD
ENDBRANCH  13  39
BRANCH  12  41
HETATM   41  O7  UNL     1      20.092  25.714  16.878  1.00  0.00    -0.388 OA
HETATM   42  C29 UNL     1      20.922  26.536  17.644  1.00  0.00     0.202 C 
ENDBRANCH  12  41
TORSDOF 16
ENDMDL
MODEL 2
REMARK VINA RESULT: -7.433455851      1.052      1.216
REMARK  16 active torsions:
REMARK  status: ('A' for Active; 'I' for Inactive)
REMARK    1  A    between atoms: C2_2  and  O1_3 
REMARK    2  A    between atoms: O1_3  and  C3_4 
REMARK    3  A    between atoms: C3_4  and  C4_5 
REMARK    4  A    between atoms: C4_5  and  C5_6 
REMARK    5  A    between atoms: C5_6  and  C6_8 
REMARK    6  A    between atoms: C6_8  and  C7_9 
REMARK    7  A    between atoms: C7_9  and  C8_10 
REMARK    8  A    between atoms: C10_12  and  C11_13 
REMARK    9  A    between atoms: C11_13  and  O3_15 
REMARK   10  A    between atoms: C17_21  and  C18_22 
REMARK   11  A    between atoms: C18_22  and  C19_23 
REMARK   12  A    between atoms: C23_27  and  C24_28 
REMARK   13  A    between atoms: C24_28  and  O5_30 
REMARK   14  A    between atoms: C26_32  and  O6_33 
REMARK   15  A    between atoms: C28_36  and  O7_37 
REMARK   16  A    between atoms: C30_39  and  O8_40 
ROOT
HETATM    1  C8  UNL     1      14.410  21.620  14.590  1.00  0.00    -0.033 C 
HETATM    2  C9  UNL     1      14.766  21.427  13.081  1.00  0.00     0.016 C 
HETATM    3  C10 UNL     1      14.054  22.986  14.800  1.00  0.00     0.028 C 
HETATM    4  C13 UNL     1      14.987  23.614  15.845  1.00  0.00     0.011 C 
HETATM    5  C14 UNL     1      16.306  23.988  15.181  1.00  0.00     0.001 C 
HETATM    6  C15 UNL     1      16.604  22.588  14.599  1.00  0.00     0.012 C 
HETATM    7  C16 UNL     1      15.741  21.621  15.399  1.00  0.00     0.008 C 
HETATM    8  C17 UNL     1      15.493  22.405  16.648  1.00  0.00     0.004 C 
HETATM    9  C23 UNL     1      16.656  22.694  17.514  1.00  0.00     0.039 C 
HETATM   10  C26 UNL     1      17.233  24.074  17.379  1.00  0.00     0.097 C 
HETATM   11  C27 UNL     1      18.569  24.341  17.908  1.00  0.00     0.078 C 
HETATM   12  C28 UNL     1      18.920  25.661  17.191  1.00  0.00     0.153 C 
HETATM   13  C30 UNL     1      17.906  25.787  16.038  1.00  0.00     0.154 C 
HETATM   14  C31 UNL     1      17.446  24.363  15.929  1.00  0.00     0.060 C 
ENDROOT
BRANCH   1  15
HETATM   15  C7  UNL     1      13.732  20.399  14.892  1.00  0.00     0.017 C 
BRANCH  15  16
HETATM   16  C6  UNL     1      13.202  19.468  13.838  1.00  0.00     0.079 C 
BRANCH  16  17
HETATM   17  C5  UNL     1      11.699  19.410  13.895  1.00  0.00     0.129 C 
HETATM   18  O2  UNL     1      11.174  19.232  14.975  1.00  0.00    -0.298 OA
BRANCH  17  19
HETATM   19  C4  UNL     1      10.866  19.560  12.690  1.00  0.00     0.104 C 
BRANCH  19  20
HETATM   20  C3  UNL     1      10.451  18.269  12.044  1.00  0.00     0.175 C 
BRANCH  20  21
HETATM   21  O1  UNL     1       9.511  17.558  12.760  1.00  0.00    -0.391 OA
BRANCH  21  22
HETATM   22  C2  UNL     1       9.808  16.201  12.691  1.00  0.00     0.163 C 
HETATM   23  C1  UNL     1      10.975  15.824  13.550  1.00  0.00     0.033 C 
ENDBRANCH  21  22
ENDBRANCH  20  21
ENDBRANCH  19  20
ENDBRANCH  17  19
ENDBRANCH  16  17
ENDBRANCH  15  16
ENDBRANCH   1  15
BRANCH   3  24
HETATM   24  C11 UNL     1      12.758  23.650  14.630  1.00  0.00     0.119 C 
HETATM   25  C12 UNL     1      11.544  22.736  14.631  1.00  0.00     0.040 C 
BRANCH  24  26
HETATM   26  O3  UNL     1      12.390  24.743  15.347  1.00  0.00    -0.396 OA
ATOM     27  H3  UNL     1      11.491  25.044  15.402  1.00  0.00     0.210 HD
ENDBRANCH  24  26
ENDBRANCH   3  24
BRANCH   8  28
HETATM   28  C18 UNL     1      14.393  22.031  17.579  1.00  0.00     0.042 C 
BRANCH  28  29
HETATM   29  C19 UNL     1      14.656  20.887  18.468  1.00  0.00    -0.024 C 
HETATM   30  C20 UNL     1      13.741  19.992  18.717  1.00  0.00    -0.091 C 
HETATM   31  C21 UNL     1      12.353  19.974  18.172  1.00  0.00     0.042 C 
HETATM   32  C22 UNL     1      14.066  18.833  19.646  1.00  0.00     0.042 C 
ENDBRANCH  28  29
ENDBRANCH   8  28
BRANCH   9  33
HETATM   33  C24 UNL     1      17.619  21.621  17.787  1.00  0.00     0.288 C 
HETATM   34  O4  UNL     1      18.034  20.784  16.895  1.00  0.00    -0.260 OA
BRANCH  33  35
HETATM   35  O5  UNL     1      18.230  21.317  18.988  1.00  0.00    -0.323 OA
HETATM   36  C25 UNL     1      17.921  21.795  20.250  1.00  0.00     0.213 C 
ENDBRANCH  33  35
ENDBRANCH   9  33
BRANCH  10  37
HETATM   37  O6  UNL     1      16.374  25.077  17.897  1.00  0.00    -0.384 OA
ATOM     38  H6  UNL     1      16.014  25.636  17.218  1.00  0.00     0.211 HD
ENDBRANCH  10  37
BRANCH  13  39
HETATM   39  O8  UNL     1      18.517  26.262  14.894  1.00  0.00    -0.392 OA
ATOM     40  H8  UNL     1      18.903  25.552  14.396  1.00  0.00     0.210 HD
ENDBRANCH  13  39
BRANCH  12  41
HETATM   41  O7  UNL     1      20.195  25.640  16.680  1.00  0.00    -0.388 OA
HETATM   42  C29 UNL     1      21.058  26.506  17.355  1.00  0.00     0.202 C 
ENDBRANCH  12  41
TORSDOF 16
ENDMDL
MODEL 3
REMARK VINA RESULT: -7.214981228      1.113      1.240
REMARK  16 active torsions:
REMARK  status: ('A' for Active; 'I' for Inactive)
REMARK    1  A    between atoms: C2_2  and  O1_3 
REMARK    2  A    between atoms: O1_3  and  C3_4 
REMARK    3  A    between atoms: C3_4  and  C4_5 
REMARK    4  A    between atoms: C4_5  and  C5_6 
REMARK    5  A    between atoms: C5_6  and  C6_8 
REMARK    6  A    between atoms: C6_8  and  C7_9 
REMARK    7  A    between atoms: C7_9  and  C8_10 
REMARK    8  A    between atoms: C10_12  and  C11_13 
REMARK    9  A    between atoms: C11_13  and  O3_15 
REMARK   10  A    between atoms: C17_21  and  C18_22 
REMARK   11  A    between atoms: C18_22  and  C19_23 
REMARK   12  A    between atoms: C23_27  and  C24_28 
REMARK   13  A    between atoms: C24_28  and  O5_30 
REMARK   14  A    between atoms: C26_32  and  O6_33 
REMARK   15  A    between atoms: C28_36  and  O7_37 
REMARK   16  A    between atoms: C30_39  and  O8_40 
ROOT
HETATM    1  C8  UNL     1      14.011  21.180  14.938  1.00  0.00    -0.033 C 
HETATM    2  C9  UNL     1      14.218  20.862  13.423  1.00  0.00     0.016 C 
HETATM    3  C10 UNL     1      13.618  22.546  15.065  1.00  0.00     0.028 C 
HETATM    4  C13 UNL     1      14.625  23.299  15.947  1.00  0.00     0.011 C 
HETATM    5  C14 UNL     1      15.851  23.657  15.117  1.00  0.00     0.001 C 
HETATM    6  C15 UNL     1      16.149  22.221  14.629  1.00  0.00     0.012 C 
HETATM    7  C16 UNL     1      15.416  21.300  15.598  1.00  0.00     0.008 C 
HETATM    8  C17 UNL     1      15.263  22.187  16.793  1.00  0.00     0.004 C 
HETATM    9  C23 UNL     1      16.495  22.593  17.503  1.00  0.00     0.039 C 
HETATM   10  C26 UNL     1      16.994  23.974  17.188  1.00  0.00     0.097 C 
HETATM   11  C27 UNL     1      18.364  24.335  17.546  1.00  0.00     0.078 C 
HETATM   12  C28 UNL     1      18.581  25.596  16.684  1.00  0.00     0.153 C 
HETATM   13  C30 UNL     1      17.450  25.580  15.638  1.00  0.00     0.154 C 
HETATM   14  C31 UNL     1      17.043  24.137  15.704  1.00  0.00     0.060 C 
ENDROOT
BRANCH   1  15
HETATM   15  C7  UNL     1      13.421  19.969  15.416  1.00  0.00     0.017 C 
BRANCH  15  16
HETATM   16  C6  UNL     1      12.321  19.246  14.691  1.00  0.00     0.079 C 
BRANCH  16  17
HETATM   17  C5  UNL     1      11.074  19.204  15.535  1.00  0.00     0.129 C 
HETATM   18  O2  UNL     1      10.427  20.224  15.651  1.00  0.00    -0.298 OA
BRANCH  17  19
HETATM   19  C4  UNL     1      10.632  17.973  16.211  1.00  0.00     0.104 C 
BRANCH  19  20
HETATM   20  C3  UNL     1      10.500  16.773  15.316  1.00  0.00     0.175 C 
BRANCH  20  21
HETATM   21  O1  UNL     1      10.930  15.595  15.889  1.00  0.00    -0.391 OA
BRANCH  21  22
HETATM   22  C2  UNL     1      10.476  15.526  17.202  1.00  0.00     0.163 C 
HETATM   23  C1  UNL     1       9.730  14.259  17.485  1.00  0.00     0.033 C 
ENDBRANCH  21  22
ENDBRANCH  20  21
ENDBRANCH  19  20
ENDBRANCH  17  19
ENDBRANCH  16  17
ENDBRANCH  15  16
ENDBRANCH   1  15
BRANCH   3  24
HETATM   24  C11 UNL     1      12.284  23.147  14.977  1.00  0.00     0.119 C 
HETATM   25  C12 UNL     1      12.243  24.606  14.554  1.00  0.00     0.040 C 
BRANCH  24  26
HETATM   26  O3  UNL     1      11.250  22.552  14.328  1.00  0.00    -0.396 OA
ATOM     27  H3  UNL     1      10.654  23.029  13.763  1.00  0.00     0.210 HD
ENDBRANCH  24  26
ENDBRANCH   3  24
BRANCH   8  28
HETATM   28  C18 UNL     1      14.283  21.861  17.865  1.00  0.00     0.042 C 
BRANCH  28  29
HETATM   29  C19 UNL     1      14.643  20.747  18.759  1.00  0.00    -0.024 C 
HETATM   30  C20 UNL     1      13.758  19.876  19.155  1.00  0.00    -0.091 C 
HETATM   31  C21 UNL     1      12.312  19.859  18.789  1.00  0.00     0.042 C 
HETATM   32  C22 UNL     1      14.185  18.749  20.082  1.00  0.00     0.042 C 
ENDBRANCH  28  29
ENDBRANCH   8  28
BRANCH   9  33
HETATM   33  C24 UNL     1      17.527  21.584  17.764  1.00  0.00     0.288 C 
HETATM   34  O4  UNL     1      17.956  20.748  16.877  1.00  0.00    -0.260 OA
BRANCH  33  35
HETATM   35  O5  UNL     1      18.199  21.346  18.948  1.00  0.00    -0.323 OA
HETATM   36  C25 UNL     1      17.941  21.878  20.199  1.00  0.00     0.213 C 
ENDBRANCH  33  35
ENDBRANCH   9  33
BRANCH  10  37
HETATM   37  O6  UNL     1      16.149  24.990  17.704  1.00  0.00    -0.384 OA
ATOM     38  H6  UNL     1      15.270  24.679  17.882  1.00  0.00     0.211 HD
ENDBRANCH  10  37
BRANCH  13  39
HETATM   39  O8  UNL     1      17.918  25.970  14.399  1.00  0.00    -0.392 OA
ATOM     40  H8  UNL     1      18.624  25.405  14.111  1.00  0.00     0.210 HD
ENDBRANCH  13  39
BRANCH  12  41
HETATM   41  O7  UNL     1      19.797  25.572  16.044  1.00  0.00    -0.388 OA
HETATM   42  C29 UNL     1      20.703  26.488  16.581  1.00  0.00     0.202 C 
ENDBRANCH  12  41
TORSDOF 16
ENDMDL
MODEL 4
REMARK VINA RESULT: -7.021597430      2.405      8.919
REMARK  16 active torsions:
REMARK  status: ('A' for Active; 'I' for Inactive)
REMARK    1  A    between atoms: C2_2  and  O1_3 
REMARK    2  A    between atoms: O1_3  and  C3_4 
REMARK    3  A    between atoms: C3_4  and  C4_5 
REMARK    4  A    between atoms: C4_5  and  C5_6 
REMARK    5  A    between atoms: C5_6  and  C6_8 
REMARK    6  A    between atoms: C6_8  and  C7_9 
REMARK    7  A    between atoms: C7_9  and  C8_10 
REMARK    8  A    between atoms: C10_12  and  C11_13 
REMARK    9  A    between atoms: C11_13  and  O3_15 
REMARK   10  A    between atoms: C17_21  and  C18_22 
REMARK   11  A    between atoms: C18_22  and  C19_23 
REMARK   12  A    between atoms: C23_27  and  C24_28 
REMARK   13  A    between atoms: C24_28  and  O5_30 
REMARK   14  A    between atoms: C26_32  and  O6_33 
REMARK   15  A    between atoms: C28_36  and  O7_37 
REMARK   16  A    between atoms: C30_39  and  O8_40 
ROOT
HETATM    1  C8  UNL     1      19.108  23.051  19.447  1.00  0.00    -0.033 C 
HETATM    2  C9  UNL     1      19.831  21.873  20.175  1.00  0.00     0.016 C 
HETATM    3  C10 UNL     1      17.997  23.463  20.242  1.00  0.00     0.028 C 
HETATM    4  C13 UNL     1      16.699  23.328  19.435  1.00  0.00     0.011 C 
HETATM    5  C14 UNL     1      16.252  21.871  19.443  1.00  0.00     0.001 C 
HETATM    6  C15 UNL     1      17.578  21.286  18.906  1.00  0.00     0.012 C 
HETATM    7  C16 UNL     1      18.306  22.454  18.253  1.00  0.00     0.008 C 
HETATM    8  C17 UNL     1      17.174  23.392  17.976  1.00  0.00     0.004 C 
HETATM    9  C23 UNL     1      16.161  22.965  16.987  1.00  0.00     0.039 C 
HETATM   10  C26 UNL     1      14.886  22.421  17.564  1.00  0.00     0.097 C 
HETATM   11  C27 UNL     1      13.987  21.654  16.705  1.00  0.00     0.078 C 
HETATM   12  C28 UNL     1      13.098  20.948  17.750  1.00  0.00     0.153 C 
HETATM   13  C30 UNL     1      13.847  21.086  19.089  1.00  0.00     0.154 C 
HETATM   14  C31 UNL     1      15.229  21.393  18.593  1.00  0.00     0.060 C 
ENDROOT
BRANCH   1  15
HETATM   15  C7  UNL     1      20.210  23.777  18.895  1.00  0.00     0.017 C 
BRANCH  15  16
HETATM   16  C6  UNL     1      21.383  24.240  19.712  1.00  0.00     0.079 C 
BRANCH  16  17
HETATM   17  C5  UNL     1      21.865  25.581  19.227  1.00  0.00     0.129 C 
HETATM   18  O2  UNL     1      23.029  25.872  19.413  1.00  0.00    -0.298 OA
BRANCH  17  19
HETATM   19  C4  UNL     1      20.972  26.531  18.545  1.00  0.00     0.104 C 
BRANCH  19  20
HETATM   20  C3  UNL     1      21.651  27.445  17.563  1.00  0.00     0.175 C 
BRANCH  20  21
HETATM   21  O1  UNL     1      20.830  27.894  16.551  1.00  0.00    -0.391 OA
BRANCH  21  22
HETATM   22  C2  UNL     1      21.599  28.209  15.437  1.00  0.00     0.163 C 
HETATM   23  C1  UNL     1      20.811  28.171  14.164  1.00  0.00     0.033 C 
ENDBRANCH  21  22
ENDBRANCH  20  21
ENDBRANCH  19  20
ENDBRANCH  17  19
ENDBRANCH  16  17
ENDBRANCH  15  16
ENDBRANCH   1  15
BRANCH   3  24
HETATM   24  C11 UNL     1      17.950  24.409  21.361  1.00  0.00     0.119 C 
HETATM   25  C12 UNL     1      19.294  24.786  21.964  1.00  0.00     0.040 C 
BRANCH  24  26
HETATM   26  O3  UNL     1      17.234  25.562  21.322  1.00  0.00    -0.396 OA
ATOM     27  H3  UNL     1      17.625  26.405  21.125  1.00  0.00     0.210 HD
ENDBRANCH  24  26
ENDBRANCH   3  24
BRANCH   8  28
HETATM   28  C18 UNL     1      17.428  24.830  17.681  1.00  0.00     0.042 C 
BRANCH  28  29
HETATM   29  C19 UNL     1      17.238  25.250  16.283  1.00  0.00    -0.024 C 
HETATM   30  C20 UNL     1      18.223  25.248  15.430  1.00  0.00    -0.091 C 
HETATM   31  C21 UNL     1      19.630  24.840  15.708  1.00  0.00     0.042 C 
HETATM   32  C22 UNL     1      17.970  25.697  13.999  1.00  0.00     0.042 C 
ENDBRANCH  28  29
ENDBRANCH   8  28
BRANCH   9  33
HETATM   33  C24 UNL     1      16.612  22.349  15.734  1.00  0.00     0.288 C 
HETATM   34  O4  UNL     1      17.531  21.444  15.668  1.00  0.00    -0.260 OA
BRANCH  33  35
HETATM   35  O5  UNL     1      16.162  22.608  14.453  1.00  0.00    -0.323 OA
HETATM   36  C25 UNL     1      15.344  21.824  13.659  1.00  0.00     0.213 C 
ENDBRANCH  33  35
ENDBRANCH   9  33
BRANCH  10  37
HETATM   37  O6  UNL     1      14.104  23.420  18.198  1.00  0.00    -0.384 OA
ATOM     38  H6  UNL     1      14.000  23.267  19.130  1.00  0.00     0.211 HD
ENDBRANCH  10  37
BRANCH  13  39
HETATM   39  O8  UNL     1      13.765  19.918  19.821  1.00  0.00    -0.392 OA
ATOM     40  H8  UNL     1      12.925  19.495  19.692  1.00  0.00     0.210 HD
ENDBRANCH  13  39
BRANCH  12  41
HETATM   41  O7  UNL     1      12.925  19.617  17.455  1.00  0.00    -0.388 OA
HETATM   42  C29 UNL     1      11.596  19.299  17.172  1.00  0.00     0.202 C 
ENDBRANCH  12  41
TORSDOF 16
ENDMDL
MODEL 5
REMARK VINA RESULT: -6.675575502      3.069      9.370
REMARK  16 active torsions:
REMARK  status: ('A' for Active; 'I' for Inactive)
REMARK    1  A    between atoms: C2_2  and  O1_3 
REMARK    2  A    between atoms: O1_3  and  C3_4 
REMARK    3  A    between atoms: C3_4  and  C4_5 
REMARK    4  A    between atoms: C4_5  and  C5_6 
REMARK    5  A    between atoms: C5_6  and  C6_8 
REMARK    6  A    between atoms: C6_8  and  C7_9 
REMARK    7  A    between atoms: C7_9  and  C8_10 
REMARK    8  A    between atoms: C10_12  and  C11_13 
REMARK    9  A    between atoms: C11_13  and  O3_15 
REMARK   10  A    between atoms: C17_21  and  C18_22 
REMARK   11  A    between atoms: C18_22  and  C19_23 
REMARK   12  A    between atoms: C23_27  and  C24_28 
REMARK   13  A    between atoms: C24_28  and  O5_30 
REMARK   14  A    between atoms: C26_32  and  O6_33 
REMARK   15  A    between atoms: C28_36  and  O7_37 
REMARK   16  A    between atoms: C30_39  and  O8_40 
ROOT
HETATM    1  C8  UNL     1      19.128  23.067  19.463  1.00  0.00    -0.033 C 
HETATM    2  C9  UNL     1      19.941  21.900  20.109  1.00  0.00     0.016 C 
HETATM    3  C10 UNL     1      18.034  23.387  20.322  1.00  0.00     0.028 C 
HETATM    4  C13 UNL     1      16.709  23.217  19.566  1.00  0.00     0.011 C 
HETATM    5  C14 UNL     1      16.338  21.739  19.530  1.00  0.00     0.001 C 
HETATM    6  C15 UNL     1      17.667  21.247  18.913  1.00  0.00     0.012 C 
HETATM    7  C16 UNL     1      18.304  22.478  18.280  1.00  0.00     0.008 C 
HETATM    8  C17 UNL     1      17.115  23.366  18.092  1.00  0.00     0.004 C 
HETATM    9  C23 UNL     1      16.082  22.927  17.129  1.00  0.00     0.039 C 
HETATM   10  C26 UNL     1      14.864  22.293  17.736  1.00  0.00     0.097 C 
HETATM   11  C27 UNL     1      13.966  21.516  16.884  1.00  0.00     0.078 C 
HETATM   12  C28 UNL     1      13.162  20.722  17.934  1.00  0.00     0.153 C 
HETATM   13  C30 UNL     1      13.962  20.844  19.245  1.00  0.00     0.154 C 
HETATM   14  C31 UNL     1      15.304  21.244  18.704  1.00  0.00     0.060 C 
ENDROOT
BRANCH   1  15
HETATM   15  C7  UNL     1      20.165  23.871  18.897  1.00  0.00     0.017 C 
BRANCH  15  16
HETATM   16  C6  UNL     1      20.583  25.197  19.467  1.00  0.00     0.079 C 
BRANCH  16  17
HETATM   17  C5  UNL     1      22.057  25.196  19.778  1.00  0.00     0.129 C 
HETATM   18  O2  UNL     1      22.775  25.944  19.147  1.00  0.00    -0.298 OA
BRANCH  17  19
HETATM   19  C4  UNL     1      22.635  24.321  20.811  1.00  0.00     0.104 C 
BRANCH  19  20
HETATM   20  C3  UNL     1      24.105  24.517  21.055  1.00  0.00     0.175 C 
BRANCH  20  21
HETATM   21  O1  UNL     1      24.394  25.461  22.018  1.00  0.00    -0.391 OA
BRANCH  21  22
HETATM   22  C2  UNL     1      25.689  25.262  22.485  1.00  0.00     0.163 C 
HETATM   23  C1  UNL     1      25.957  23.833  22.846  1.00  0.00     0.033 C 
ENDBRANCH  21  22
ENDBRANCH  20  21
ENDBRANCH  19  20
ENDBRANCH  17  19
ENDBRANCH  16  17
ENDBRANCH  15  16
ENDBRANCH   1  15
BRANCH   3  24
HETATM   24  C11 UNL     1      17.989  24.283  21.482  1.00  0.00     0.119 C 
HETATM   25  C12 UNL     1      19.275  24.387  22.286  1.00  0.00     0.040 C 
BRANCH  24  26
HETATM   26  O3  UNL     1      17.498  25.547  21.418  1.00  0.00    -0.396 OA
ATOM     27  H3  UNL     1      17.226  26.034  22.187  1.00  0.00     0.210 HD
ENDBRANCH  24  26
ENDBRANCH   3  24
BRANCH   8  28
HETATM   28  C18 UNL     1      17.282  24.825  17.849  1.00  0.00     0.042 C 
BRANCH  28  29
HETATM   29  C19 UNL     1      17.085  25.281  16.462  1.00  0.00    -0.024 C 
HETATM   30  C20 UNL     1      18.093  25.530  15.676  1.00  0.00    -0.091 C 
HETATM   31  C21 UNL     1      19.537  25.402  16.025  1.00  0.00     0.042 C 
HETATM   32  C22 UNL     1      17.830  26.002  14.255  1.00  0.00     0.042 C 
ENDBRANCH  28  29
ENDBRANCH   8  28
BRANCH   9  33
HETATM   33  C24 UNL     1      16.507  22.386  15.833  1.00  0.00     0.288 C 
HETATM   34  O4  UNL     1      17.418  21.481  15.695  1.00  0.00    -0.260 OA
BRANCH  33  35
HETATM   35  O5  UNL     1      16.038  22.728  14.578  1.00  0.00    -0.323 OA
HETATM   36  C25 UNL     1      15.379  21.925  13.664  1.00  0.00     0.213 C 
ENDBRANCH  33  35
ENDBRANCH   9  33
BRANCH  10  37
HETATM   37  O6  UNL     1      14.061  23.223  18.445  1.00  0.00    -0.384 OA
ATOM     38  H6  UNL     1      14.172  24.113  18.135  1.00  0.00     0.211 HD
ENDBRANCH  10  37
BRANCH  13  39
HETATM   39  O8  UNL     1      13.973  19.645  19.929  1.00  0.00    -0.392 OA
ATOM     40  H8  UNL     1      14.405  18.969  19.421  1.00  0.00     0.210 HD
ENDBRANCH  13  39
BRANCH  12  41
HETATM   41  O7  UNL     1      13.044  19.397  17.591  1.00  0.00    -0.388 OA
HETATM   42  C29 UNL     1      11.749  19.059  17.194  1.00  0.00     0.202 C 
ENDBRANCH  12  41
TORSDOF 16
ENDMDL
