MODEL 1
REMARK VINA RESULT: -9.616172815      0.000      0.000
REMARK  11 active torsions:
REMARK  status: ('A' for Active; 'I' for Inactive)
REMARK    1  A    between atoms: C2_2  and  N1_3 
REMARK    2  A    between atoms: N2_6  and  C5_7 
REMARK    3  A    between atoms: C5_7  and  C6_8 
REMARK    4  A    between atoms: C6_8  and  C7_9 
REMARK    5  A    between atoms: C7_9  and  N3_10 
REMARK       I    between atoms: N3_10  and  C8_12 
REMARK    6  A    between atoms: C8_12  and  C9_14 
REMARK    7  A    between atoms: C11_16  and  C12_17 
REMARK    8  A    between atoms: N4_20  and  C15_21 
REMARK    9  A    between atoms: C15_21  and  C16_22 
REMARK   10  A    between atoms: C20_28  and  O2_29 
REMARK   11  A    between atoms: O2_29  and  C21_30 
ROOT
HETATM    1  C12 UNL     1      20.020  23.280  21.630  1.00  0.00     0.040 C 
HETATM    2  C13 UNL     1      19.876  21.953  20.958  1.00  0.00     0.030 C 
HETATM    3  C14 UNL     1      18.386  21.704  20.816  1.00  0.00     0.118 C 
HETATM    4  N4  UNL     1      17.909  22.592  19.810  1.00  0.00    -0.408 N 
HETATM    5  C27 UNL     1      18.141  23.972  20.082  1.00  0.00     0.118 C 
HETATM    6  C28 UNL     1      18.988  24.286  21.261  1.00  0.00     0.030 C 
ENDROOT
BRANCH   1   7
HETATM    7  C11 UNL     1      21.364  23.842  21.248  1.00  0.00     0.032 A 
HETATM    8  C10 UNL     1      21.712  24.541  20.131  1.00  0.00     0.063 A 
HETATM    9  C9  UNL     1      23.060  24.837  20.217  1.00  0.00     0.117 A 
HETATM   10  N8  UNL     1      23.505  24.326  21.360  1.00  0.00    -0.295 N 
HETATM   11  N7  UNL     1      22.490  23.731  21.975  1.00  0.00    -0.304 N 
ATOM     12  H8  UNL     1      24.463  24.381  21.706  1.00  0.00     0.187 HD
ATOM     13  H7  UNL     1      22.555  23.255  22.875  1.00  0.00     0.186 HD
BRANCH   9  14
HETATM   14  C8  UNL     1      23.872  25.567  19.257  1.00  0.00     0.269 C 
HETATM   15  N3  UNL     1      23.306  25.899  18.004  1.00  0.00    -0.356 N 
ATOM     16  H3  UNL     1      22.346  25.627  17.797  1.00  0.00     0.162 HD
HETATM   17  O1  UNL     1      25.052  25.898  19.532  1.00  0.00    -0.266 OA
BRANCH  15  18
HETATM   18  C7  UNL     1      24.073  26.620  17.014  1.00  0.00     0.125 C 
BRANCH  18  19
HETATM   19  C6  UNL     1      23.178  27.412  16.072  1.00  0.00     0.050 C 
BRANCH  19  20
HETATM   20  C5  UNL     1      21.948  26.592  15.731  1.00  0.00     0.274 C 
BRANCH  20  21
HETATM   21  N2  UNL     1      20.757  27.281  16.108  1.00  0.00     0.091 N 
HETATM   22  C4  UNL     1      19.892  27.398  14.955  1.00  0.00     0.291 C 
HETATM   23  C3  UNL     1      19.423  26.030  14.562  1.00  0.00     0.147 C 
HETATM   24  N1  UNL     1      18.823  25.278  15.613  1.00  0.00    -0.409 N 
HETATM   25  C30 UNL     1      19.461  25.351  16.886  1.00  0.00     0.147 C 
HETATM   26  C29 UNL     1      20.016  26.725  17.189  1.00  0.00     0.291 C 
BRANCH  24  27
HETATM   27  C2  UNL     1      17.389  25.356  15.638  1.00  0.00     0.112 C 
HETATM   28  C1  UNL     1      16.938  25.410  17.083  1.00  0.00     0.026 C 
ENDBRANCH  24  27
ENDBRANCH  20  21
ENDBRANCH  19  20
ENDBRANCH  18  19
ENDBRANCH  15  18
ENDBRANCH   9  14
ENDBRANCH   1   7
BRANCH   4  29
HETATM   29  C15 UNL     1      18.117  22.205  18.458  1.00  0.00     0.157 C 
BRANCH  29  30
HETATM   30  C16 UNL     1      16.849  21.712  17.868  1.00  0.00    -0.023 A 
HETATM   31  C17 UNL     1      16.515  21.866  16.535  1.00  0.00     0.097 A 
HETATM   32  N5  UNL     1      15.353  21.406  16.041  1.00  0.00    -0.367 N 
HETATM   33  C18 UNL     1      14.447  20.772  16.796  1.00  0.00     0.038 A 
ATOM     34  H5  UNL     1      15.154  21.547  15.051  1.00  0.00     0.165 HD
HETATM   35  C19 UNL     1      13.159  20.267  16.232  1.00  0.00     0.071 C 
HETATM   36  C20 UNL     1      14.746  20.595  18.155  1.00  0.00     0.092 A 
HETATM   37  C26 UNL     1      15.926  21.055  18.689  1.00  0.00     0.049 A 
BRANCH  36  38
HETATM   38  O2  UNL     1      13.795  19.943  18.895  1.00  0.00    -0.344 OA
BRANCH  38  39
HETATM   39  C21 UNL     1      13.935  18.853  19.737  1.00  0.00     0.132 C 
HETATM   40  C22 UNL     1      13.862  17.537  18.964  1.00  0.00     0.060 C 
HETATM   41  C23 UNL     1      12.479  17.419  18.401  1.00  0.00     0.235 C 
HETATM   42  N6  UNL     1      11.540  17.271  19.476  1.00  0.00    -0.075 N 
HETATM   43  C24 UNL     1      11.528  18.465  20.302  1.00  0.00     0.235 C 
ATOM     44  H62 UNL     1      10.608  17.032  19.138  1.00  0.00     0.277 HD
ATOM     45  H61 UNL     1      11.720  16.431  20.026  1.00  0.00     0.277 HD
HETATM   46  C25 UNL     1      12.887  18.806  20.832  1.00  0.00     0.060 C 
ENDBRANCH  38  39
ENDBRANCH  36  38
ENDBRANCH  29  30
ENDBRANCH   4  29
TORSDOF 11
ENDMDL
MODEL 2
REMARK VINA RESULT: -9.347130411      1.109      1.343
REMARK  11 active torsions:
REMARK  status: ('A' for Active; 'I' for Inactive)
REMARK    1  A    between atoms: C2_2  and  N1_3 
REMARK    2  A    between atoms: N2_6  and  C5_7 
REMARK    3  A    between atoms: C5_7  and  C6_8 
REMARK    4  A    between atoms: C6_8  and  C7_9 
REMARK    5  A    between atoms: C7_9  and  N3_10 
REMARK       I    between atoms: N3_10  and  C8_12 
REMARK    6  A    between atoms: C8_12  and  C9_14 
REMARK    7  A    between atoms: C11_16  and  C12_17 
REMARK    8  A    between atoms: N4_20  and  C15_21 
REMARK    9  A    between atoms: C15_21  and  C16_22 
REMARK   10  A    between atoms: C20_28  and  O2_29 
REMARK   11  A    between atoms: O2_29  and  C21_30 
ROOT
HETATM    1  C12 UNL     1      19.691  23.300  21.294  1.00  0.00     0.040 C 
HETATM    2  C13 UNL     1      19.586  21.999  20.568  1.00  0.00     0.030 C 
HETATM    3  C14 UNL     1      18.134  21.852  20.156  1.00  0.00     0.118 C 
HETATM    4  N4  UNL     1      17.902  22.788  19.108  1.00  0.00    -0.408 N 
HETATM    5  C27 UNL     1      18.168  24.145  19.457  1.00  0.00     0.118 C 
HETATM    6  C28 UNL     1      18.807  24.380  20.777  1.00  0.00     0.030 C 
ENDROOT
BRANCH   1   7
HETATM    7  C11 UNL     1      21.114  23.777  21.173  1.00  0.00     0.032 A 
HETATM    8  C10 UNL     1      21.690  24.505  20.174  1.00  0.00     0.063 A 
HETATM    9  C9  UNL     1      23.022  24.693  20.499  1.00  0.00     0.117 A 
HETATM   10  N8  UNL     1      23.234  24.091  21.665  1.00  0.00    -0.295 N 
HETATM   11  N7  UNL     1      22.092  23.544  22.066  1.00  0.00    -0.304 N 
ATOM     12  H8  UNL     1      24.122  24.056  22.166  1.00  0.00     0.187 HD
ATOM     13  H7  UNL     1      21.973  23.019  22.933  1.00  0.00     0.186 HD
BRANCH   9  14
HETATM   14  C8  UNL     1      24.029  25.408  19.733  1.00  0.00     0.269 C 
HETATM   15  N3  UNL     1      23.833  25.576  18.343  1.00  0.00    -0.356 N 
ATOM     16  H3  UNL     1      22.993  25.200  17.904  1.00  0.00     0.162 HD
HETATM   17  O1  UNL     1      25.055  25.869  20.293  1.00  0.00    -0.266 OA
BRANCH  15  18
HETATM   18  C7  UNL     1      24.807  26.275  17.537  1.00  0.00     0.125 C 
BRANCH  18  19
HETATM   19  C6  UNL     1      24.201  27.485  16.840  1.00  0.00     0.050 C 
BRANCH  19  20
HETATM   20  C5  UNL     1      23.044  27.041  15.965  1.00  0.00     0.274 C 
BRANCH  20  21
HETATM   21  N2  UNL     1      21.857  27.765  16.284  1.00  0.00     0.091 N 
HETATM   22  C4  UNL     1      21.057  27.913  15.089  1.00  0.00     0.291 C 
HETATM   23  C3  UNL     1      20.567  26.562  14.664  1.00  0.00     0.147 C 
HETATM   24  N1  UNL     1      19.891  25.824  15.679  1.00  0.00    -0.409 N 
HETATM   25  C30 UNL     1      20.465  25.873  16.984  1.00  0.00     0.147 C 
HETATM   26  C29 UNL     1      21.046  27.227  17.323  1.00  0.00     0.291 C 
BRANCH  24  27
HETATM   27  C2  UNL     1      18.460  25.946  15.631  1.00  0.00     0.112 C 
HETATM   28  C1  UNL     1      18.023  25.885  14.182  1.00  0.00     0.026 C 
ENDBRANCH  24  27
ENDBRANCH  20  21
ENDBRANCH  19  20
ENDBRANCH  18  19
ENDBRANCH  15  18
ENDBRANCH   9  14
ENDBRANCH   1   7
BRANCH   4  29
HETATM   29  C15 UNL     1      18.324  22.413  17.803  1.00  0.00     0.157 C 
BRANCH  29  30
HETATM   30  C16 UNL     1      17.149  22.070  16.966  1.00  0.00    -0.023 A 
HETATM   31  C17 UNL     1      16.936  22.582  15.699  1.00  0.00     0.097 A 
HETATM   32  N5  UNL     1      15.856  22.247  14.975  1.00  0.00    -0.367 N 
HETATM   33  C18 UNL     1      14.918  21.401  15.423  1.00  0.00     0.038 A 
ATOM     34  H5  UNL     1      15.745  22.654  14.046  1.00  0.00     0.165 HD
HETATM   35  C19 UNL     1      13.722  21.039  14.604  1.00  0.00     0.071 C 
HETATM   36  C20 UNL     1      15.095  20.859  16.703  1.00  0.00     0.092 A 
HETATM   37  C26 UNL     1      16.190  21.184  17.468  1.00  0.00     0.049 A 
BRANCH  36  38
HETATM   38  O2  UNL     1      14.115  20.000  17.127  1.00  0.00    -0.344 OA
BRANCH  38  39
HETATM   39  C21 UNL     1      13.352  20.043  18.281  1.00  0.00     0.132 C 
HETATM   40  C22 UNL     1      13.889  19.082  19.341  1.00  0.00     0.060 C 
HETATM   41  C23 UNL     1      13.724  17.689  18.816  1.00  0.00     0.235 C 
HETATM   42  N6  UNL     1      12.325  17.384  18.712  1.00  0.00    -0.075 N 
HETATM   43  C24 UNL     1      11.692  18.250  17.734  1.00  0.00     0.235 C 
ATOM     44  H62 UNL     1      12.164  16.397  18.508  1.00  0.00     0.277 HD
ATOM     45  H61 UNL     1      11.858  17.427  19.618  1.00  0.00     0.277 HD
HETATM   46  C25 UNL     1      11.893  19.702  18.044  1.00  0.00     0.060 C 
ENDBRANCH  38  39
ENDBRANCH  36  38
ENDBRANCH  29  30
ENDBRANCH   4  29
TORSDOF 11
ENDMDL
MODEL 3
REMARK VINA RESULT: -9.345131614      1.891      3.643
REMARK  11 active torsions:
REMARK  status: ('A' for Active; 'I' for Inactive)
REMARK    1  A    between atoms: C2_2  and  N1_3 
REMARK    2  A    between atoms: N2_6  and  C5_7 
REMARK    3  A    between atoms: C5_7  and  C6_8 
REMARK    4  A    between atoms: C6_8  and  C7_9 
REMARK    5  A    between atoms: C7_9  and  N3_10 
REMARK       I    between atoms: N3_10  and  C8_12 
REMARK    6  A    between atoms: C8_12  and  C9_14 
REMARK    7  A    between atoms: C11_16  and  C12_17 
REMARK    8  A    between atoms: N4_20  and  C15_21 
REMARK    9  A    between atoms: C15_21  and  C16_22 
REMARK   10  A    between atoms: C20_28  and  O2_29 
REMARK   11  A    between atoms: O2_29  and  C21_30 
ROOT
HETATM    1  C12 UNL     1      17.634  25.335  17.264  1.00  0.00     0.040 C 
HETATM    2  C13 UNL     1      16.504  24.383  17.490  1.00  0.00     0.030 C 
HETATM    3  C14 UNL     1      15.909  24.092  16.125  1.00  0.00     0.118 C 
HETATM    4  N4  UNL     1      16.844  23.273  15.430  1.00  0.00    -0.408 N 
HETATM    5  C27 UNL     1      18.138  23.852  15.276  1.00  0.00     0.118 C 
HETATM    6  C28 UNL     1      18.388  25.125  15.999  1.00  0.00     0.030 C 
ENDROOT
BRANCH   1   7
HETATM    7  C11 UNL     1      18.602  25.174  18.406  1.00  0.00     0.032 A 
HETATM    8  C10 UNL     1      19.956  25.334  18.408  1.00  0.00     0.063 A 
HETATM    9  C9  UNL     1      20.414  25.069  19.686  1.00  0.00     0.117 A 
HETATM   10  N8  UNL     1      19.356  24.760  20.429  1.00  0.00    -0.295 N 
HETATM   11  N7  UNL     1      18.274  24.823  19.662  1.00  0.00    -0.304 N 
ATOM     12  H8  UNL     1      19.372  24.516  21.420  1.00  0.00     0.187 HD
ATOM     13  H7  UNL     1      17.324  24.631  19.982  1.00  0.00     0.186 HD
BRANCH   9  14
HETATM   14  C8  UNL     1      21.786  25.111  20.164  1.00  0.00     0.269 C 
HETATM   15  N3  UNL     1      22.835  25.099  19.216  1.00  0.00    -0.356 N 
ATOM     16  H3  UNL     1      22.615  25.066  18.221  1.00  0.00     0.162 HD
HETATM   17  O1  UNL     1      22.038  25.156  21.394  1.00  0.00    -0.266 OA
BRANCH  15  18
HETATM   18  C7  UNL     1      24.216  25.134  19.640  1.00  0.00     0.125 C 
BRANCH  18  19
HETATM   19  C6  UNL     1      25.115  25.766  18.587  1.00  0.00     0.050 C 
BRANCH  19  20
HETATM   20  C5  UNL     1      24.360  26.870  17.871  1.00  0.00     0.274 C 
BRANCH  20  21
HETATM   21  N2  UNL     1      24.377  26.667  16.459  1.00  0.00     0.091 N 
HETATM   22  C4  UNL     1      23.040  26.352  16.010  1.00  0.00     0.291 C 
HETATM   23  C3  UNL     1      22.168  27.556  16.202  1.00  0.00     0.147 C 
HETATM   24  N1  UNL     1      22.667  28.756  15.616  1.00  0.00    -0.409 N 
HETATM   25  C30 UNL     1      24.065  28.995  15.761  1.00  0.00     0.147 C 
HETATM   26  C29 UNL     1      24.893  27.733  15.670  1.00  0.00     0.291 C 
BRANCH  24  27
HETATM   27  C2  UNL     1      22.126  29.034  14.315  1.00  0.00     0.112 C 
HETATM   28  C1  UNL     1      20.803  28.308  14.181  1.00  0.00     0.026 C 
ENDBRANCH  24  27
ENDBRANCH  20  21
ENDBRANCH  19  20
ENDBRANCH  18  19
ENDBRANCH  15  18
ENDBRANCH   9  14
ENDBRANCH   1   7
BRANCH   4  29
HETATM   29  C15 UNL     1      16.844  21.886  15.742  1.00  0.00     0.157 C 
BRANCH  29  30
HETATM   30  C16 UNL     1      15.451  21.389  15.852  1.00  0.00    -0.023 A 
HETATM   31  C17 UNL     1      14.554  21.389  14.799  1.00  0.00     0.097 A 
HETATM   32  N5  UNL     1      13.299  20.932  14.941  1.00  0.00    -0.367 N 
HETATM   33  C18 UNL     1      12.832  20.447  16.100  1.00  0.00     0.038 A 
ATOM     34  H5  UNL     1      12.675  20.955  14.134  1.00  0.00     0.165 HD
HETATM   35  C19 UNL     1      11.434  19.943  16.242  1.00  0.00     0.071 C 
HETATM   36  C20 UNL     1      13.710  20.429  17.193  1.00  0.00     0.092 A 
HETATM   37  C26 UNL     1      14.999  20.891  17.078  1.00  0.00     0.049 A 
BRANCH  36  38
HETATM   38  O2  UNL     1      13.197  19.927  18.361  1.00  0.00    -0.344 OA
BRANCH  38  39
HETATM   39  C21 UNL     1      13.753  19.014  19.241  1.00  0.00     0.132 C 
HETATM   40  C22 UNL     1      13.696  17.594  18.680  1.00  0.00     0.060 C 
HETATM   41  C23 UNL     1      12.253  17.206  18.575  1.00  0.00     0.235 C 
HETATM   42  N6  UNL     1      11.692  17.108  19.893  1.00  0.00    -0.075 N 
HETATM   43  C24 UNL     1      11.703  18.406  20.542  1.00  0.00     0.235 C 
ATOM     44  H62 UNL     1      10.758  16.697  19.879  1.00  0.00     0.277 HD
ATOM     45  H61 UNL     1      12.160  16.397  20.455  1.00  0.00     0.277 HD
HETATM   46  C25 UNL     1      13.076  19.004  20.597  1.00  0.00     0.060 C 
ENDBRANCH  38  39
ENDBRANCH  36  38
ENDBRANCH  29  30
ENDBRANCH   4  29
TORSDOF 11
ENDMDL
MODEL 4
REMARK VINA RESULT: -9.262322963      1.855      3.132
REMARK  11 active torsions:
REMARK  status: ('A' for Active; 'I' for Inactive)
REMARK    1  A    between atoms: C2_2  and  N1_3 
REMARK    2  A    between atoms: N2_6  and  C5_7 
REMARK    3  A    between atoms: C5_7  and  C6_8 
REMARK    4  A    between atoms: C6_8  and  C7_9 
REMARK    5  A    between atoms: C7_9  and  N3_10 
REMARK       I    between atoms: N3_10  and  C8_12 
REMARK    6  A    between atoms: C8_12  and  C9_14 
REMARK    7  A    between atoms: C11_16  and  C12_17 
REMARK    8  A    between atoms: N4_20  and  C15_21 
REMARK    9  A    between atoms: C15_21  and  C16_22 
REMARK   10  A    between atoms: C20_28  and  O2_29 
REMARK   11  A    between atoms: O2_29  and  C21_30 
ROOT
HETATM    1  C12 UNL     1      19.913  23.584  21.100  1.00  0.00     0.040 C 
HETATM    2  C13 UNL     1      19.767  22.185  20.596  1.00  0.00     0.030 C 
HETATM    3  C14 UNL     1      18.343  21.762  20.906  1.00  0.00     0.118 C 
HETATM    4  N4  UNL     1      17.493  22.481  20.019  1.00  0.00    -0.408 N 
HETATM    5  C27 UNL     1      17.604  23.899  20.111  1.00  0.00     0.118 C 
HETATM    6  C28 UNL     1      18.694  24.427  20.971  1.00  0.00     0.030 C 
ENDROOT
BRANCH   1   7
HETATM    7  C11 UNL     1      21.011  24.242  20.307  1.00  0.00     0.032 A 
HETATM    8  C10 UNL     1      20.947  25.350  19.515  1.00  0.00     0.063 A 
HETATM    9  C9  UNL     1      22.207  25.568  18.986  1.00  0.00     0.117 A 
HETATM   10  N8  UNL     1      23.003  24.612  19.454  1.00  0.00    -0.295 N 
HETATM   11  N7  UNL     1      22.286  23.821  20.243  1.00  0.00    -0.304 N 
ATOM     12  H8  UNL     1      23.995  24.505  19.243  1.00  0.00     0.187 HD
ATOM     13  H7  UNL     1      22.653  23.004  20.734  1.00  0.00     0.186 HD
BRANCH   9  14
HETATM   14  C8  UNL     1      22.619  26.632  18.085  1.00  0.00     0.269 C 
HETATM   15  N3  UNL     1      21.678  27.140  17.160  1.00  0.00    -0.356 N 
ATOM     16  H3  UNL     1      20.733  26.759  17.142  1.00  0.00     0.162 HD
HETATM   17  O1  UNL     1      23.787  27.091  18.126  1.00  0.00    -0.266 OA
BRANCH  15  18
HETATM   18  C7  UNL     1      22.040  28.194  16.240  1.00  0.00     0.125 C 
BRANCH  18  19
HETATM   19  C6  UNL     1      21.261  28.098  14.936  1.00  0.00     0.050 C 
BRANCH  19  20
HETATM   20  C5  UNL     1      19.935  27.406  15.186  1.00  0.00     0.274 C 
BRANCH  20  21
HETATM   21  N2  UNL     1      19.696  26.394  14.209  1.00  0.00     0.091 N 
HETATM   22  C4  UNL     1      20.274  25.150  14.663  1.00  0.00     0.291 C 
HETATM   23  C3  UNL     1      19.524  24.682  15.874  1.00  0.00     0.147 C 
HETATM   24  N1  UNL     1      18.112  24.592  15.707  1.00  0.00    -0.409 N 
HETATM   25  C30 UNL     1      17.492  25.659  14.991  1.00  0.00     0.147 C 
HETATM   26  C29 UNL     1      18.338  26.171  13.846  1.00  0.00     0.291 C 
BRANCH  24  27
HETATM   27  C2  UNL     1      17.649  23.275  15.371  1.00  0.00     0.112 C 
HETATM   28  C1  UNL     1      16.187  23.365  14.985  1.00  0.00     0.026 C 
ENDBRANCH  24  27
ENDBRANCH  20  21
ENDBRANCH  19  20
ENDBRANCH  18  19
ENDBRANCH  15  18
ENDBRANCH   9  14
ENDBRANCH   1   7
BRANCH   4  29
HETATM   29  C15 UNL     1      17.369  21.976  18.695  1.00  0.00     0.157 C 
BRANCH  29  30
HETATM   30  C16 UNL     1      16.024  21.380  18.502  1.00  0.00    -0.023 A 
HETATM   31  C17 UNL     1      15.137  21.142  19.536  1.00  0.00     0.097 A 
HETATM   32  N5  UNL     1      13.929  20.597  19.318  1.00  0.00    -0.367 N 
HETATM   33  C18 UNL     1      13.501  20.251  18.096  1.00  0.00     0.038 A 
ATOM     34  H5  UNL     1      13.312  20.440  20.115  1.00  0.00     0.165 HD
HETATM   35  C19 UNL     1      12.154  19.647  17.870  1.00  0.00     0.071 C 
HETATM   36  C20 UNL     1      14.370  20.476  17.019  1.00  0.00     0.092 A 
HETATM   37  C26 UNL     1      15.613  21.031  17.211  1.00  0.00     0.049 A 
BRANCH  36  38
HETATM   38  O2  UNL     1      13.898  20.109  15.786  1.00  0.00    -0.344 OA
BRANCH  38  39
HETATM   39  C21 UNL     1      13.796  20.862  14.628  1.00  0.00     0.132 C 
HETATM   40  C22 UNL     1      12.618  21.833  14.696  1.00  0.00     0.060 C 
HETATM   41  C23 UNL     1      11.362  21.020  14.746  1.00  0.00     0.235 C 
HETATM   42  N6  UNL     1      11.198  20.325  13.501  1.00  0.00    -0.075 N 
HETATM   43  C24 UNL     1      12.276  19.371  13.311  1.00  0.00     0.235 C 
ATOM     44  H62 UNL     1      10.281  19.883  13.429  1.00  0.00     0.277 HD
ATOM     45  H61 UNL     1      11.116  20.968  12.713  1.00  0.00     0.277 HD
HETATM   46  C25 UNL     1      13.626  20.016  13.381  1.00  0.00     0.060 C 
ENDBRANCH  38  39
ENDBRANCH  36  38
ENDBRANCH  29  30
ENDBRANCH   4  29
TORSDOF 11
ENDMDL
MODEL 5
REMARK VINA RESULT: -9.164246653      2.387      4.387
REMARK  11 active torsions:
REMARK  status: ('A' for Active; 'I' for Inactive)
REMARK    1  A    between atoms: C2_2  and  N1_3 
REMARK    2  A    between atoms: N2_6  and  C5_7 
REMARK    3  A    between atoms: C5_7  and  C6_8 
REMARK    4  A    between atoms: C6_8  and  C7_9 
REMARK    5  A    between atoms: C7_9  and  N3_10 
REMARK       I    between atoms: N3_10  and  C8_12 
REMARK    6  A    between atoms: C8_12  and  C9_14 
REMARK    7  A    between atoms: C11_16  and  C12_17 
REMARK    8  A    between atoms: N4_20  and  C15_21 
REMARK    9  A    between atoms: C15_21  and  C16_22 
REMARK   10  A    between atoms: C20_28  and  O2_29 
REMARK   11  A    between atoms: O2_29  and  C21_30 
ROOT
HETATM    1  C12 UNL     1      19.709  24.119  18.548  1.00  0.00     0.040 C 
HETATM    2  C13 UNL     1      18.814  23.629  17.456  1.00  0.00     0.030 C 
HETATM    3  C14 UNL     1      17.837  22.665  18.101  1.00  0.00     0.118 C 
HETATM    4  N4  UNL     1      16.939  23.445  18.884  1.00  0.00    -0.408 N 
HETATM    5  C27 UNL     1      17.566  24.238  19.889  1.00  0.00     0.118 C 
HETATM    6  C28 UNL     1      19.050  24.284  19.872  1.00  0.00     0.030 C 
ENDROOT
BRANCH   1   7
HETATM    7  C11 UNL     1      20.244  25.463  18.132  1.00  0.00     0.032 A 
HETATM    8  C10 UNL     1      20.415  25.963  16.875  1.00  0.00     0.063 A 
HETATM    9  C9  UNL     1      20.946  27.236  16.992  1.00  0.00     0.117 A 
HETATM   10  N8  UNL     1      21.086  27.488  18.290  1.00  0.00    -0.295 N 
HETATM   11  N7  UNL     1      20.667  26.427  18.969  1.00  0.00    -0.304 N 
ATOM     12  H8  UNL     1      21.454  28.349  18.695  1.00  0.00     0.187 HD
ATOM     13  H7  UNL     1      20.665  26.353  19.987  1.00  0.00     0.186 HD
BRANCH   9  14
HETATM   14  C8  UNL     1      21.296  28.154  15.921  1.00  0.00     0.269 C 
HETATM   15  N3  UNL     1      22.661  28.459  15.709  1.00  0.00    -0.356 N 
ATOM     16  H3  UNL     1      23.371  28.032  16.304  1.00  0.00     0.162 HD
HETATM   17  O1  UNL     1      20.407  28.666  15.197  1.00  0.00    -0.266 OA
BRANCH  15  18
HETATM   18  C7  UNL     1      23.061  29.369  14.661  1.00  0.00     0.125 C 
BRANCH  18  19
HETATM   19  C6  UNL     1      24.553  29.665  14.707  1.00  0.00     0.050 C 
BRANCH  19  20
HETATM   20  C5  UNL     1      25.101  29.297  16.073  1.00  0.00     0.274 C 
BRANCH  20  21
HETATM   21  N2  UNL     1      26.287  28.513  15.952  1.00  0.00     0.091 N 
HETATM   22  C4  UNL     1      27.077  28.662  17.154  1.00  0.00     0.291 C 
HETATM   23  C3  UNL     1      26.337  28.042  18.300  1.00  0.00     0.147 C 
HETATM   24  N1  UNL     1      25.924  26.695  18.088  1.00  0.00    -0.409 N 
HETATM   25  C30 UNL     1      25.397  26.392  16.797  1.00  0.00     0.147 C 
HETATM   26  C29 UNL     1      26.107  27.127  15.683  1.00  0.00     0.291 C 
BRANCH  24  27
HETATM   27  C2  UNL     1      26.827  25.718  18.629  1.00  0.00     0.112 C 
HETATM   28  C1  UNL     1      26.339  24.341  18.228  1.00  0.00     0.026 C 
ENDBRANCH  24  27
ENDBRANCH  20  21
ENDBRANCH  19  20
ENDBRANCH  18  19
ENDBRANCH  15  18
ENDBRANCH   9  14
ENDBRANCH   1   7
BRANCH   4  29
HETATM   29  C15 UNL     1      15.873  24.087  18.195  1.00  0.00     0.157 C 
BRANCH  29  30
HETATM   30  C16 UNL     1      14.960  23.073  17.612  1.00  0.00    -0.023 A 
HETATM   31  C17 UNL     1      14.547  23.085  16.292  1.00  0.00     0.097 A 
HETATM   32  N5  UNL     1      13.716  22.149  15.805  1.00  0.00    -0.367 N 
HETATM   33  C18 UNL     1      13.235  21.148  16.554  1.00  0.00     0.038 A 
ATOM     34  H5  UNL     1      13.439  22.203  14.825  1.00  0.00     0.165 HD
HETATM   35  C19 UNL     1      12.311  20.115  15.996  1.00  0.00     0.071 C 
HETATM   36  C20 UNL     1      13.629  21.099  17.898  1.00  0.00     0.092 A 
HETATM   37  C26 UNL     1      14.478  22.043  18.426  1.00  0.00     0.049 A 
BRANCH  36  38
HETATM   38  O2  UNL     1      13.116  20.061  18.633  1.00  0.00    -0.344 OA
BRANCH  38  39
HETATM   39  C21 UNL     1      13.783  19.072  19.334  1.00  0.00     0.132 C 
HETATM   40  C22 UNL     1      13.674  17.719  18.631  1.00  0.00     0.060 C 
HETATM   41  C23 UNL     1      12.233  17.311  18.655  1.00  0.00     0.235 C 
HETATM   42  N6  UNL     1      11.834  17.058  20.011  1.00  0.00    -0.075 N 
HETATM   43  C24 UNL     1      11.910  18.279  20.793  1.00  0.00     0.235 C 
ATOM     44  H62 UNL     1      10.910  16.630  20.062  1.00  0.00     0.277 HD
ATOM     45  H61 UNL     1      12.374  16.302  20.432  1.00  0.00     0.277 HD
HETATM   46  C25 UNL     1      13.273  18.899  20.752  1.00  0.00     0.060 C 
ENDBRANCH  38  39
ENDBRANCH  36  38
ENDBRANCH  29  30
ENDBRANCH   4  29
TORSDOF 11
ENDMDL
