MODEL 1
REMARK VINA RESULT: -4.955484451      0.000      0.000
REMARK  13 active torsions:
REMARK  status: ('A' for Active; 'I' for Inactive)
REMARK    1  A    between atoms: C2_2  and  C3_3 
REMARK    2  A    between atoms: C3_3  and  N1_6 
REMARK    3  A    between atoms: N1_6  and  C6_9 
REMARK    4  A    between atoms: C6_9  and  C7_10 
REMARK    5  A    between atoms: C11_17  and  O2_18 
REMARK    6  A    between atoms: C14_22  and  C15_23 
REMARK    7  A    between atoms: C15_23  and  O4_25 
REMARK    8  A    between atoms: C18_31  and  C19_32 
REMARK    9  A    between atoms: C18_31  and  C23_36 
REMARK   10  A    between atoms: C19_32  and  C20_33 
REMARK   11  A    between atoms: C20_33  and  C21_34 
REMARK   12  A    between atoms: C23_36  and  C24_37 
REMARK   13  A    between atoms: C24_37  and  S1_38 
ROOT
HETATM    1  C7  UNL     1       9.424  16.027  15.352  1.00  0.00     0.115 C 
HETATM    2  C8  UNL     1       8.850  14.724  15.744  1.00  0.00     0.159 C 
HETATM    3  O1  UNL     1       9.599  13.952  16.321  1.00  0.00    -0.295 OA
HETATM    4  C9  UNL     1       7.438  14.292  15.489  1.00  0.00     0.149 C 
HETATM    5  C10 UNL     1       6.481  15.418  15.316  1.00  0.00     0.040 C 
HETATM    6  N2  UNL     1       7.323  13.213  14.535  1.00  0.00    -0.363 N 
ATOM      7  H2  UNL     1       7.954  12.438  14.738  1.00  0.00     0.162 HD
HETATM    8  C11 UNL     1       6.553  12.995  13.415  1.00  0.00     0.118 C 
HETATM    9  C12 UNL     1       6.543  13.597  12.061  1.00  0.00     0.088 C 
HETATM   10  C13 UNL     1       5.447  14.608  11.849  1.00  0.00     0.021 C 
HETATM   11  C14 UNL     1       7.883  14.058  11.534  1.00  0.00     0.195 C 
HETATM   12  N3  UNL     1       7.915  15.482  11.279  1.00  0.00    -0.345 N 
ATOM     13  H3  UNL     1       7.265  15.767  10.547  1.00  0.00     0.163 HD
HETATM   14  C17 UNL     1       8.619  16.527  11.797  1.00  0.00     0.234 C 
HETATM   15  O5  UNL     1       7.914  17.469  12.345  1.00  0.00    -0.272 OA
HETATM   16  C18 UNL     1      10.071  16.860  11.882  1.00  0.00     0.106 C 
HETATM   17  C26 UNL     1      10.423  16.931  13.305  1.00  0.00     0.170 C 
HETATM   18  O6  UNL     1      10.648  18.105  13.740  1.00  0.00    -0.292 OA
HETATM   19  C27 UNL     1      10.578  15.951  14.359  1.00  0.00    -0.024 C 
HETATM   20  C28 UNL     1      11.000  14.571  14.066  1.00  0.00     0.048 C 
ENDROOT
BRANCH   1  21
HETATM   21  C6  UNL     1       9.818  16.838  16.602  1.00  0.00     0.250 C 
BRANCH  21  22
HETATM   22  N1  UNL     1      11.222  16.810  16.826  1.00  0.00    -0.063 N 
ATOM     23  H12 UNL     1      11.738  16.978  15.962  1.00  0.00     0.278 HD
ATOM     24  H11 UNL     1      11.547  15.864  17.025  1.00  0.00     0.278 HD
BRANCH  22  25
HETATM   25  C3  UNL     1      11.616  17.719  17.850  1.00  0.00     0.135 C 
HETATM   26  C4  UNL     1      11.828  19.133  17.321  1.00  0.00     0.050 C 
HETATM   27  C5  UNL     1      10.657  17.812  18.995  1.00  0.00     0.050 C 
BRANCH  25  28
HETATM   28  C2  UNL     1      12.943  17.276  18.385  1.00  0.00     0.001 C 
HETATM   29  C1  UNL     1      13.669  18.023  19.178  1.00  0.00     0.009 C 
ENDBRANCH  25  28
ENDBRANCH  22  25
ENDBRANCH  21  22
ENDBRANCH   1  21
BRANCH  16  30
HETATM   30  C19 UNL     1      10.937  16.077  10.991  1.00  0.00     0.027 C 
BRANCH  30  31
HETATM   31  C20 UNL     1      12.388  16.303  11.249  1.00  0.00     0.001 C 
BRANCH  31  32
HETATM   32  C21 UNL     1      13.225  15.042  11.133  1.00  0.00    -0.005 C 
HETATM   33  C22 UNL     1      14.675  15.420  11.275  1.00  0.00     0.005 C 
ENDBRANCH  31  32
ENDBRANCH  30  31
ENDBRANCH  16  30
BRANCH  16  34
HETATM   34  C23 UNL     1      10.118  18.299  11.328  1.00  0.00     0.037 C 
BRANCH  34  35
HETATM   35  C24 UNL     1       9.772  18.400   9.882  1.00  0.00     0.075 C 
BRANCH  35  36
HETATM   36  S1  UNL     1       8.582  19.788   9.621  1.00  0.00    -0.173 SA
HETATM   37  C25 UNL     1       6.909  19.129   9.370  1.00  0.00     0.089 C 
ENDBRANCH  35  36
ENDBRANCH  34  35
ENDBRANCH  16  34
BRANCH   8  38
HETATM   38  O2  UNL     1       5.638  12.071  13.553  1.00  0.00    -0.349 OA
ATOM     39  H2  UNL     1       5.798  11.457  14.260  1.00  0.00     0.219 HD
ENDBRANCH   8  38
BRANCH  11  40
HETATM   40  C15 UNL     1       8.170  13.433  10.183  1.00  0.00     0.282 C 
HETATM   41  O3  UNL     1       8.257  12.197  10.002  1.00  0.00    -0.263 OA
BRANCH  40  42
HETATM   42  O4  UNL     1       8.356  14.221   9.058  1.00  0.00    -0.325 OA
HETATM   43  C16 UNL     1       9.233  13.868   8.001  1.00  0.00     0.213 C 
ENDBRANCH  40  42
ENDBRANCH  11  40
TORSDOF 13
ENDMDL
MODEL 2
REMARK VINA RESULT: -4.554959171      2.325      6.882
REMARK  13 active torsions:
REMARK  status: ('A' for Active; 'I' for Inactive)
REMARK    1  A    between atoms: C2_2  and  C3_3 
REMARK    2  A    between atoms: C3_3  and  N1_6 
REMARK    3  A    between atoms: N1_6  and  C6_9 
REMARK    4  A    between atoms: C6_9  and  C7_10 
REMARK    5  A    between atoms: C11_17  and  O2_18 
REMARK    6  A    between atoms: C14_22  and  C15_23 
REMARK    7  A    between atoms: C15_23  and  O4_25 
REMARK    8  A    between atoms: C18_31  and  C19_32 
REMARK    9  A    between atoms: C18_31  and  C23_36 
REMARK   10  A    between atoms: C19_32  and  C20_33 
REMARK   11  A    between atoms: C20_33  and  C21_34 
REMARK   12  A    between atoms: C23_36  and  C24_37 
REMARK   13  A    between atoms: C24_37  and  S1_38 
ROOT
HETATM    1  C7  UNL     1       7.719  13.998  12.938  1.00  0.00     0.115 C 
HETATM    2  C8  UNL     1       6.789  14.277  14.050  1.00  0.00     0.159 C 
HETATM    3  O1  UNL     1       5.705  14.751  13.746  1.00  0.00    -0.295 OA
HETATM    4  C9  UNL     1       7.075  14.022  15.499  1.00  0.00     0.149 C 
HETATM    5  C10 UNL     1       8.107  12.978  15.739  1.00  0.00     0.040 C 
HETATM    6  N2  UNL     1       7.198  15.226  16.288  1.00  0.00    -0.363 N 
ATOM      7  H2  UNL     1       6.429  15.879  16.135  1.00  0.00     0.162 HD
HETATM    8  C11 UNL     1       8.118  15.690  17.201  1.00  0.00     0.118 C 
HETATM    9  C12 UNL     1       9.518  16.163  17.076  1.00  0.00     0.088 C 
HETATM   10  C13 UNL     1      10.546  15.147  17.498  1.00  0.00     0.021 C 
HETATM   11  C14 UNL     1       9.867  16.854  15.778  1.00  0.00     0.195 C 
HETATM   12  N3  UNL     1      10.896  16.155  15.040  1.00  0.00    -0.345 N 
ATOM     13  H3  UNL     1      11.787  16.125  15.536  1.00  0.00     0.163 HD
HETATM   14  C17 UNL     1      10.944  15.527  13.832  1.00  0.00     0.234 C 
HETATM   15  O5  UNL     1      11.252  14.267  13.859  1.00  0.00    -0.272 OA
HETATM   16  C18 UNL     1      10.720  15.969  12.424  1.00  0.00     0.106 C 
HETATM   17  C26 UNL     1       9.583  15.205  11.899  1.00  0.00     0.170 C 
HETATM   18  O6  UNL     1       9.887  14.320  11.037  1.00  0.00    -0.292 OA
HETATM   19  C27 UNL     1       8.155  15.222  12.140  1.00  0.00    -0.024 C 
HETATM   20  C28 UNL     1       7.461  16.456  12.546  1.00  0.00     0.048 C 
ENDROOT
BRANCH   1  21
HETATM   21  C6  UNL     1       7.142  12.909  12.015  1.00  0.00     0.250 C 
BRANCH  21  22
HETATM   22  N1  UNL     1       7.041  13.359  10.670  1.00  0.00    -0.063 N 
ATOM     23  H12 UNL     1       7.717  12.887  10.069  1.00  0.00     0.278 HD
ATOM     24  H11 UNL     1       7.380  14.315  10.572  1.00  0.00     0.278 HD
BRANCH  22  25
HETATM   25  C3  UNL     1       5.716  13.225  10.162  1.00  0.00     0.135 C 
HETATM   26  C4  UNL     1       5.663  12.387   8.890  1.00  0.00     0.050 C 
HETATM   27  C5  UNL     1       4.742  12.629  11.128  1.00  0.00     0.050 C 
BRANCH  25  28
HETATM   28  C2  UNL     1       5.222  14.587   9.779  1.00  0.00     0.001 C 
HETATM   29  C1  UNL     1       4.442  15.297  10.553  1.00  0.00     0.009 C 
ENDBRANCH  25  28
ENDBRANCH  22  25
ENDBRANCH  21  22
ENDBRANCH   1  21
BRANCH  16  30
HETATM   30  C19 UNL     1      10.731  17.424  12.225  1.00  0.00     0.027 C 
BRANCH  30  31
HETATM   31  C20 UNL     1      10.338  17.822  10.842  1.00  0.00     0.001 C 
BRANCH  31  32
HETATM   32  C21 UNL     1      10.148  19.318  10.675  1.00  0.00    -0.005 C 
HETATM   33  C22 UNL     1       8.895  19.551   9.875  1.00  0.00     0.005 C 
ENDBRANCH  31  32
ENDBRANCH  30  31
ENDBRANCH  16  30
BRANCH  16  34
HETATM   34  C23 UNL     1      11.985  15.455  11.706  1.00  0.00     0.037 C 
BRANCH  34  35
HETATM   35  C24 UNL     1      13.173  16.341  11.867  1.00  0.00     0.075 C 
BRANCH  35  36
HETATM   36  S1  UNL     1      14.659  15.532  11.126  1.00  0.00    -0.173 SA
HETATM   37  C25 UNL     1      14.350  15.155   9.377  1.00  0.00     0.089 C 
ENDBRANCH  35  36
ENDBRANCH  34  35
ENDBRANCH  16  34
BRANCH   8  38
HETATM   38  O2  UNL     1       7.691  15.731  18.435  1.00  0.00    -0.349 OA
ATOM     39  H2  UNL     1       8.233  16.239  19.027  1.00  0.00     0.219 HD
ENDBRANCH   8  38
BRANCH  11  40
HETATM   40  C15 UNL     1      10.465  18.221  16.045  1.00  0.00     0.282 C 
HETATM   41  O3  UNL     1      10.825  19.003  15.136  1.00  0.00    -0.263 OA
BRANCH  40  42
HETATM   42  O4  UNL     1      10.648  18.678  17.340  1.00  0.00    -0.325 OA
HETATM   43  C16 UNL     1      11.623  19.647  17.691  1.00  0.00     0.213 C 
ENDBRANCH  40  42
ENDBRANCH  11  40
TORSDOF 13
ENDMDL
MODEL 3
REMARK VINA RESULT: -4.551863426      0.963      1.169
REMARK  13 active torsions:
REMARK  status: ('A' for Active; 'I' for Inactive)
REMARK    1  A    between atoms: C2_2  and  C3_3 
REMARK    2  A    between atoms: C3_3  and  N1_6 
REMARK    3  A    between atoms: N1_6  and  C6_9 
REMARK    4  A    between atoms: C6_9  and  C7_10 
REMARK    5  A    between atoms: C11_17  and  O2_18 
REMARK    6  A    between atoms: C14_22  and  C15_23 
REMARK    7  A    between atoms: C15_23  and  O4_25 
REMARK    8  A    between atoms: C18_31  and  C19_32 
REMARK    9  A    between atoms: C18_31  and  C23_36 
REMARK   10  A    between atoms: C19_32  and  C20_33 
REMARK   11  A    between atoms: C20_33  and  C21_34 
REMARK   12  A    between atoms: C23_36  and  C24_37 
REMARK   13  A    between atoms: C24_37  and  S1_38 
ROOT
HETATM    1  C7  UNL     1       9.644  16.414  15.197  1.00  0.00     0.115 C 
HETATM    2  C8  UNL     1       9.226  15.115  15.761  1.00  0.00     0.159 C 
HETATM    3  O1  UNL     1      10.098  14.448  16.295  1.00  0.00    -0.295 OA
HETATM    4  C9  UNL     1       7.831  14.569  15.726  1.00  0.00     0.149 C 
HETATM    5  C10 UNL     1       6.775  15.609  15.591  1.00  0.00     0.040 C 
HETATM    6  N2  UNL     1       7.683  13.405  14.883  1.00  0.00    -0.363 N 
ATOM      7  H2  UNL     1       8.392  12.695  15.063  1.00  0.00     0.162 HD
HETATM    8  C11 UNL     1       6.799  13.038  13.893  1.00  0.00     0.118 C 
HETATM    9  C12 UNL     1       6.575  13.518  12.508  1.00  0.00     0.088 C 
HETATM   10  C13 UNL     1       5.387  14.430  12.362  1.00  0.00     0.021 C 
HETATM   11  C14 UNL     1       7.799  14.020  11.777  1.00  0.00     0.195 C 
HETATM   12  N3  UNL     1       7.690  15.414  11.410  1.00  0.00    -0.345 N 
ATOM     13  H3  UNL     1       6.934  15.591  10.748  1.00  0.00     0.163 HD
HETATM   14  C17 UNL     1       8.369  16.546  11.749  1.00  0.00     0.234 C 
HETATM   15  O5  UNL     1       7.667  17.483  12.308  1.00  0.00    -0.272 OA
HETATM   16  C18 UNL     1       9.791  16.981  11.618  1.00  0.00     0.106 C 
HETATM   17  C26 UNL     1      10.310  17.200  12.973  1.00  0.00     0.170 C 
HETATM   18  O6  UNL     1      10.495  18.420  13.282  1.00  0.00    -0.292 OA
HETATM   19  C27 UNL     1      10.669  16.328  14.072  1.00  0.00    -0.024 C 
HETATM   20  C28 UNL     1      11.157  14.960  13.835  1.00  0.00     0.048 C 
ENDROOT
BRANCH   1  21
HETATM   21  C6  UNL     1      10.126  17.356  16.317  1.00  0.00     0.250 C 
BRANCH  21  22
HETATM   22  N1  UNL     1      11.340  18.009  15.969  1.00  0.00    -0.063 N 
ATOM     23  H12 UNL     1      11.439  18.093  14.958  1.00  0.00     0.278 HD
ATOM     24  H11 UNL     1      12.148  17.416  16.161  1.00  0.00     0.278 HD
BRANCH  22  25
HETATM   25  C3  UNL     1      11.465  19.276  16.610  1.00  0.00     0.135 C 
HETATM   26  C4  UNL     1      12.598  20.112  16.025  1.00  0.00     0.050 C 
HETATM   27  C5  UNL     1      10.227  20.114  16.567  1.00  0.00     0.050 C 
BRANCH  25  28
HETATM   28  C2  UNL     1      11.824  19.042  18.045  1.00  0.00     0.001 C 
HETATM   29  C1  UNL     1      12.855  19.610  18.616  1.00  0.00     0.009 C 
ENDBRANCH  25  28
ENDBRANCH  22  25
ENDBRANCH  21  22
ENDBRANCH   1  21
BRANCH  16  30
HETATM   30  C19 UNL     1      10.597  16.183  10.686  1.00  0.00     0.027 C 
BRANCH  30  31
HETATM   31  C20 UNL     1      12.063  16.311  10.932  1.00  0.00     0.001 C 
BRANCH  31  32
HETATM   32  C21 UNL     1      12.847  15.062  10.574  1.00  0.00    -0.005 C 
HETATM   33  C22 UNL     1      14.197  15.143  11.232  1.00  0.00     0.005 C 
ENDBRANCH  31  32
ENDBRANCH  30  31
ENDBRANCH  16  30
BRANCH  16  34
HETATM   34  C23 UNL     1       9.657  18.366  10.951  1.00  0.00     0.037 C 
BRANCH  34  35
HETATM   35  C24 UNL     1       9.457  18.308   9.476  1.00  0.00     0.075 C 
BRANCH  35  36
HETATM   36  S1  UNL     1       7.876  19.152   9.027  1.00  0.00    -0.173 SA
HETATM   37  C25 UNL     1       8.011  20.932   9.357  1.00  0.00     0.089 C 
ENDBRANCH  35  36
ENDBRANCH  34  35
ENDBRANCH  16  34
BRANCH   8  38
HETATM   38  O2  UNL     1       5.983  12.072  14.220  1.00  0.00    -0.349 OA
ATOM     39  H2  UNL     1       5.411  11.781  13.519  1.00  0.00     0.219 HD
ENDBRANCH   8  38
BRANCH  11  40
HETATM   40  C15 UNL     1       7.965  13.299  10.454  1.00  0.00     0.282 C 
HETATM   41  O3  UNL     1       7.117  13.349   9.534  1.00  0.00    -0.263 OA
BRANCH  40  42
HETATM   42  O4  UNL     1       9.089  12.531  10.197  1.00  0.00    -0.325 OA
HETATM   43  C16 UNL     1       9.925  12.733   9.069  1.00  0.00     0.213 C 
ENDBRANCH  40  42
ENDBRANCH  11  40
TORSDOF 13
ENDMDL
MODEL 4
REMARK VINA RESULT: -4.441588578      2.233      3.871
REMARK  13 active torsions:
REMARK  status: ('A' for Active; 'I' for Inactive)
REMARK    1  A    between atoms: C2_2  and  C3_3 
REMARK    2  A    between atoms: C3_3  and  N1_6 
REMARK    3  A    between atoms: N1_6  and  C6_9 
REMARK    4  A    between atoms: C6_9  and  C7_10 
REMARK    5  A    between atoms: C11_17  and  O2_18 
REMARK    6  A    between atoms: C14_22  and  C15_23 
REMARK    7  A    between atoms: C15_23  and  O4_25 
REMARK    8  A    between atoms: C18_31  and  C19_32 
REMARK    9  A    between atoms: C18_31  and  C23_36 
REMARK   10  A    between atoms: C19_32  and  C20_33 
REMARK   11  A    between atoms: C20_33  and  C21_34 
REMARK   12  A    between atoms: C23_36  and  C24_37 
REMARK   13  A    between atoms: C24_37  and  S1_38 
ROOT
HETATM    1  C7  UNL     1       8.618  14.381  13.301  1.00  0.00     0.115 C 
HETATM    2  C8  UNL     1       7.750  13.641  12.364  1.00  0.00     0.159 C 
HETATM    3  O1  UNL     1       7.996  12.454  12.218  1.00  0.00    -0.295 OA
HETATM    4  C9  UNL     1       6.609  14.233  11.594  1.00  0.00     0.149 C 
HETATM    5  C10 UNL     1       6.033  15.458  12.210  1.00  0.00     0.040 C 
HETATM    6  N2  UNL     1       6.835  14.288  10.168  1.00  0.00    -0.363 N 
ATOM      7  H2  UNL     1       7.166  13.403   9.786  1.00  0.00     0.162 HD
HETATM    8  C11 UNL     1       6.704  15.268   9.209  1.00  0.00     0.118 C 
HETATM    9  C12 UNL     1       7.454  16.514   8.927  1.00  0.00     0.088 C 
HETATM   10  C13 UNL     1       6.763  17.765   9.401  1.00  0.00     0.021 C 
HETATM   11  C14 UNL     1       8.928  16.489   9.265  1.00  0.00     0.195 C 
HETATM   12  N3  UNL     1       9.281  17.468  10.269  1.00  0.00    -0.345 N 
ATOM     13  H3  UNL     1       9.130  18.427   9.956  1.00  0.00     0.163 HD
HETATM   14  C17 UNL     1       9.770  17.398  11.538  1.00  0.00     0.234 C 
HETATM   15  O5  UNL     1       9.025  17.921  12.463  1.00  0.00    -0.272 OA
HETATM   16  C18 UNL     1      11.018  16.841  12.140  1.00  0.00     0.106 C 
HETATM   17  C26 UNL     1      10.620  15.777  13.069  1.00  0.00     0.170 C 
HETATM   18  O6  UNL     1      10.759  16.065  14.301  1.00  0.00    -0.292 OA
HETATM   19  C27 UNL     1      10.090  14.438  12.908  1.00  0.00    -0.024 C 
HETATM   20  C28 UNL     1      10.405  13.628  11.720  1.00  0.00     0.048 C 
ENDROOT
BRANCH   1  21
HETATM   21  C6  UNL     1       8.446  13.841  14.733  1.00  0.00     0.250 C 
BRANCH  21  22
HETATM   22  N1  UNL     1       8.255  14.892  15.672  1.00  0.00    -0.063 N 
ATOM     23  H12 UNL     1       7.267  15.125  15.772  1.00  0.00     0.278 HD
ATOM     24  H11 UNL     1       8.594  15.782  15.307  1.00  0.00     0.278 HD
BRANCH  22  25
HETATM   25  C3  UNL     1       8.846  14.592  16.934  1.00  0.00     0.135 C 
HETATM   26  C4  UNL     1       7.840  14.013  17.923  1.00  0.00     0.050 C 
HETATM   27  C5  UNL     1       9.999  13.643  16.865  1.00  0.00     0.050 C 
BRANCH  25  28
HETATM   28  C2  UNL     1       9.329  15.873  17.541  1.00  0.00     0.001 C 
HETATM   29  C1  UNL     1      10.588  16.085  17.833  1.00  0.00     0.009 C 
ENDBRANCH  25  28
ENDBRANCH  22  25
ENDBRANCH  21  22
ENDBRANCH   1  21
BRANCH  16  30
HETATM   30  C19 UNL     1      12.093  16.559  11.181  1.00  0.00     0.027 C 
BRANCH  30  31
HETATM   31  C20 UNL     1      13.273  15.899  11.811  1.00  0.00     0.001 C 
BRANCH  31  32
HETATM   32  C21 UNL     1      14.003  14.949  10.880  1.00  0.00    -0.005 C 
HETATM   33  C22 UNL     1      15.370  14.683  11.449  1.00  0.00     0.005 C 
ENDBRANCH  31  32
ENDBRANCH  30  31
ENDBRANCH  16  30
BRANCH  16  34
HETATM   34  C23 UNL     1      11.535  18.019  12.991  1.00  0.00     0.037 C 
BRANCH  34  35
HETATM   35  C24 UNL     1      12.087  19.147  12.188  1.00  0.00     0.075 C 
BRANCH  35  36
HETATM   36  S1  UNL     1      13.610  19.803  12.999  1.00  0.00    -0.173 SA
HETATM   37  C25 UNL     1      13.177  20.608  14.568  1.00  0.00     0.089 C 
ENDBRANCH  35  36
ENDBRANCH  34  35
ENDBRANCH  16  34
BRANCH   8  38
HETATM   38  O2  UNL     1       5.724  15.078   8.366  1.00  0.00    -0.349 OA
ATOM     39  H2  UNL     1       5.755  15.629   7.592  1.00  0.00     0.219 HD
ENDBRANCH   8  38
BRANCH  11  40
HETATM   40  C15 UNL     1       9.759  16.878   8.058  1.00  0.00     0.282 C 
HETATM   41  O3  UNL     1       9.639  17.974   7.465  1.00  0.00    -0.263 OA
BRANCH  40  42
HETATM   42  O4  UNL     1      10.713  16.015   7.542  1.00  0.00    -0.325 OA
HETATM   43  C16 UNL     1      11.031  14.767   8.136  1.00  0.00     0.213 C 
ENDBRANCH  40  42
ENDBRANCH  11  40
TORSDOF 13
ENDMDL
MODEL 5
REMARK VINA RESULT: -4.259353216      8.754     13.239
REMARK  13 active torsions:
REMARK  status: ('A' for Active; 'I' for Inactive)
REMARK    1  A    between atoms: C2_2  and  C3_3 
REMARK    2  A    between atoms: C3_3  and  N1_6 
REMARK    3  A    between atoms: N1_6  and  C6_9 
REMARK    4  A    between atoms: C6_9  and  C7_10 
REMARK    5  A    between atoms: C11_17  and  O2_18 
REMARK    6  A    between atoms: C14_22  and  C15_23 
REMARK    7  A    between atoms: C15_23  and  O4_25 
REMARK    8  A    between atoms: C18_31  and  C19_32 
REMARK    9  A    between atoms: C18_31  and  C23_36 
REMARK   10  A    between atoms: C19_32  and  C20_33 
REMARK   11  A    between atoms: C20_33  and  C21_34 
REMARK   12  A    between atoms: C23_36  and  C24_37 
REMARK   13  A    between atoms: C24_37  and  S1_38 
ROOT
HETATM    1  C7  UNL     1      17.733  24.473  15.895  1.00  0.00     0.115 C 
HETATM    2  C8  UNL     1      16.405  24.667  15.278  1.00  0.00     0.159 C 
HETATM    3  O1  UNL     1      15.969  25.807  15.276  1.00  0.00    -0.295 OA
HETATM    4  C9  UNL     1      15.573  23.583  14.663  1.00  0.00     0.149 C 
HETATM    5  C10 UNL     1      16.355  22.404  14.204  1.00  0.00     0.040 C 
HETATM    6  N2  UNL     1      14.362  23.293  15.395  1.00  0.00    -0.363 N 
ATOM      7  H2  UNL     1      13.830  24.131  15.626  1.00  0.00     0.162 HD
HETATM    8  C11 UNL     1      13.765  22.139  15.851  1.00  0.00     0.118 C 
HETATM    9  C12 UNL     1      14.113  21.173  16.919  1.00  0.00     0.088 C 
HETATM   10  C13 UNL     1      14.742  19.902  16.414  1.00  0.00     0.021 C 
HETATM   11  C14 UNL     1      14.826  21.749  18.122  1.00  0.00     0.195 C 
HETATM   12  N3  UNL     1      16.144  21.182  18.305  1.00  0.00    -0.345 N 
ATOM     13  H3  UNL     1      16.120  20.182  18.504  1.00  0.00     0.163 HD
HETATM   14  C17 UNL     1      17.410  21.684  18.272  1.00  0.00     0.234 C 
HETATM   15  O5  UNL     1      18.204  21.163  17.387  1.00  0.00    -0.272 OA
HETATM   16  C18 UNL     1      18.132  22.733  19.052  1.00  0.00     0.106 C 
HETATM   17  C26 UNL     1      18.526  23.786  18.110  1.00  0.00     0.170 C 
HETATM   18  O6  UNL     1      19.772  23.837  17.858  1.00  0.00    -0.292 OA
HETATM   19  C27 UNL     1      17.809  24.811  17.379  1.00  0.00    -0.024 C 
HETATM   20  C28 UNL     1      16.566  25.398  17.905  1.00  0.00     0.048 C 
ENDROOT
BRANCH   1  21
HETATM   21  C6  UNL     1      18.812  25.228  15.096  1.00  0.00     0.250 C 
BRANCH  21  22
HETATM   22  N1  UNL     1      18.998  26.551  15.583  1.00  0.00    -0.063 N 
ATOM     23  H12 UNL     1      18.462  26.710  16.436  1.00  0.00     0.278 HD
ATOM     24  H11 UNL     1      18.544  27.236  14.979  1.00  0.00     0.278 HD
BRANCH  22  25
HETATM   25  C3  UNL     1      20.376  26.860  15.772  1.00  0.00     0.135 C 
HETATM   26  C4  UNL     1      20.719  27.117  17.235  1.00  0.00     0.050 C 
HETATM   27  C5  UNL     1      21.318  25.811  15.272  1.00  0.00     0.050 C 
BRANCH  25  28
HETATM   28  C2  UNL     1      20.673  28.138  15.049  1.00  0.00     0.001 C 
HETATM   29  C1  UNL     1      21.041  28.169  13.793  1.00  0.00     0.009 C 
ENDBRANCH  25  28
ENDBRANCH  22  25
ENDBRANCH  21  22
ENDBRANCH   1  21
BRANCH  16  30
HETATM   30  C19 UNL     1      17.476  23.131  20.304  1.00  0.00     0.027 C 
BRANCH  30  31
HETATM   31  C20 UNL     1      17.647  24.580  20.612  1.00  0.00     0.001 C 
BRANCH  31  32
HETATM   32  C21 UNL     1      18.821  24.869  21.529  1.00  0.00    -0.005 C 
HETATM   33  C22 UNL     1      19.820  25.702  20.772  1.00  0.00     0.005 C 
ENDBRANCH  31  32
ENDBRANCH  30  31
ENDBRANCH  16  30
BRANCH  16  34
HETATM   34  C23 UNL     1      19.420  22.002  19.485  1.00  0.00     0.037 C 
BRANCH  34  35
HETATM   35  C24 UNL     1      19.314  21.327  20.809  1.00  0.00     0.075 C 
BRANCH  35  36
HETATM   36  S1  UNL     1      20.390  22.189  22.037  1.00  0.00    -0.173 SA
HETATM   37  C25 UNL     1      21.740  23.049  21.179  1.00  0.00     0.089 C 
ENDBRANCH  35  36
ENDBRANCH  34  35
ENDBRANCH  16  34
BRANCH   8  38
HETATM   38  O2  UNL     1      12.664  21.811  15.226  1.00  0.00    -0.349 OA
ATOM     39  H2  UNL     1      12.161  21.122  15.645  1.00  0.00     0.219 HD
ENDBRANCH   8  38
BRANCH  11  40
HETATM   40  C15 UNL     1      14.089  21.396  19.399  1.00  0.00     0.282 C 
HETATM   41  O3  UNL     1      14.155  22.084  20.443  1.00  0.00    -0.263 OA
BRANCH  40  42
HETATM   42  O4  UNL     1      13.291  20.266  19.472  1.00  0.00    -0.325 OA
HETATM   43  C16 UNL     1      13.713  19.056  20.081  1.00  0.00     0.213 C 
ENDBRANCH  40  42
ENDBRANCH  11  40
TORSDOF 13
ENDMDL
