MODEL 1
REMARK VINA RESULT: -6.377877212      0.000      0.000
REMARK  3 active torsions:
REMARK  status: ('A' for Active; 'I' for Inactive)
REMARK    1  A    between atoms: O1_2  and  N1_3 
REMARK    2  A    between atoms: C2_6  and  N3_7 
REMARK    3  A    between atoms: C6_17  and  N6_18 
ROOT
HETATM    1  N1  UNL     1      27.255  65.660   9.161  1.00  0.00    -0.155 N 
HETATM    2  N2  UNL     1      27.436  65.155  10.363  1.00  0.00    -0.258 N 
ATOM      3  H2  UNL     1      26.681  64.874  10.989  1.00  0.00     0.191 HD
HETATM    4  C2  UNL     1      28.742  65.055  10.660  1.00  0.00     0.134 A 
HETATM    5  C3  UNL     1      29.424  65.531   9.570  1.00  0.00     0.113 A 
HETATM    6  C4  UNL     1      30.751  65.696   9.240  1.00  0.00     0.278 A 
HETATM    7  O2  UNL     1      31.616  65.353  10.093  1.00  0.00    -0.265 OA
HETATM    8  N4  UNL     1      31.142  66.205   8.060  1.00  0.00    -0.260 N 
HETATM    9  C5  UNL     1      32.577  66.349   7.788  1.00  0.00     0.181 C 
HETATM   10  N5  UNL     1      30.230  66.549   7.202  1.00  0.00    -0.279 N 
ATOM     11  H5  UNL     1      30.534  66.934   6.307  1.00  0.00     0.189 HD
HETATM   12  C6  UNL     1      28.889  66.428   7.426  1.00  0.00     0.146 A 
HETATM   13  C7  UNL     1      28.454  65.911   8.625  1.00  0.00     0.145 A 
ENDROOT
BRANCH   4  14
HETATM   14  N3  UNL     1      29.279  64.611  11.734  1.00  0.00    -0.383 N 
ATOM     15  H32 UNL     1      29.774  65.177  12.423  1.00  0.00     0.157 HD
ATOM     16  H31 UNL     1      29.307  63.651  12.077  1.00  0.00     0.157 HD
ENDBRANCH   4  14
BRANCH   1  17
HETATM   17  O1  UNL     1      26.029  65.898   8.540  1.00  0.00    -0.263 OA
HETATM   18  C1  UNL     1      25.358  64.741   8.021  1.00  0.00     0.240 C 
ENDBRANCH   1  17
BRANCH  12  19
HETATM   19  N6  UNL     1      28.050  66.785   6.541  1.00  0.00    -0.382 N 
ATOM     20  H62 UNL     1      28.370  67.215   5.673  1.00  0.00     0.157 HD
ATOM     21  H61 UNL     1      27.050  66.647   6.688  1.00  0.00     0.157 HD
ENDBRANCH  12  19
TORSDOF 3
ENDMDL
MODEL 2
REMARK VINA RESULT: -6.200941430      1.753      3.349
REMARK  3 active torsions:
REMARK  status: ('A' for Active; 'I' for Inactive)
REMARK    1  A    between atoms: O1_2  and  N1_3 
REMARK    2  A    between atoms: C2_6  and  N3_7 
REMARK    3  A    between atoms: C6_17  and  N6_18 
ROOT
HETATM    1  N1  UNL     1      28.888  65.008  10.654  1.00  0.00    -0.155 N 
HETATM    2  N2  UNL     1      27.649  65.249  10.279  1.00  0.00    -0.258 N 
ATOM      3  H2  UNL     1      26.827  65.035  10.843  1.00  0.00     0.191 HD
HETATM    4  C2  UNL     1      27.606  65.811   9.060  1.00  0.00     0.134 A 
HETATM    5  C3  UNL     1      28.908  65.931   8.644  1.00  0.00     0.113 A 
HETATM    6  C4  UNL     1      29.534  66.415   7.517  1.00  0.00     0.278 A 
HETATM    7  O2  UNL     1      28.809  66.878   6.595  1.00  0.00    -0.265 OA
HETATM    8  N4  UNL     1      30.871  66.405   7.376  1.00  0.00    -0.260 N 
HETATM    9  C5  UNL     1      31.460  66.940   6.143  1.00  0.00     0.181 C 
HETATM   10  N5  UNL     1      31.592  65.922   8.342  1.00  0.00    -0.279 N 
ATOM     11  H5  UNL     1      32.605  65.919   8.229  1.00  0.00     0.189 HD
HETATM   12  C6  UNL     1      31.073  65.418   9.501  1.00  0.00     0.146 A 
HETATM   13  C7  UNL     1      29.709  65.412   9.677  1.00  0.00     0.145 A 
ENDROOT
BRANCH   4  14
HETATM   14  N3  UNL     1      26.578  66.175   8.391  1.00  0.00    -0.383 N 
ATOM     15  H32 UNL     1      26.032  67.019   8.562  1.00  0.00     0.157 HD
ATOM     16  H31 UNL     1      26.141  65.706   7.599  1.00  0.00     0.157 HD
ENDBRANCH   4  14
BRANCH   1  17
HETATM   17  O1  UNL     1      29.291  64.433  11.858  1.00  0.00    -0.263 OA
HETATM   18  C1  UNL     1      28.236  63.998  12.726  1.00  0.00     0.240 C 
ENDBRANCH   1  17
BRANCH  12  19
HETATM   19  N6  UNL     1      31.837  64.959  10.406  1.00  0.00    -0.382 N 
ATOM     20  H62 UNL     1      31.451  64.662  11.302  1.00  0.00     0.157 HD
ATOM     21  H61 UNL     1      32.842  64.882  10.248  1.00  0.00     0.157 HD
ENDBRANCH  12  19
TORSDOF 3
ENDMDL
MODEL 3
REMARK VINA RESULT: -6.139918391      1.637      4.362
REMARK  3 active torsions:
REMARK  status: ('A' for Active; 'I' for Inactive)
REMARK    1  A    between atoms: O1_2  and  N1_3 
REMARK    2  A    between atoms: C2_6  and  N3_7 
REMARK    3  A    between atoms: C6_17  and  N6_18 
ROOT
HETATM    1  N1  UNL     1      29.800  66.642   7.686  1.00  0.00    -0.155 N 
HETATM    2  N2  UNL     1      28.622  66.673   7.100  1.00  0.00    -0.258 N 
ATOM      3  H2  UNL     1      28.453  67.053   6.169  1.00  0.00     0.191 HD
HETATM    4  C2  UNL     1      27.670  66.140   7.884  1.00  0.00     0.134 A 
HETATM    5  C3  UNL     1      28.297  65.748   9.040  1.00  0.00     0.113 A 
HETATM    6  C4  UNL     1      27.899  65.149  10.214  1.00  0.00     0.278 A 
HETATM    7  O2  UNL     1      26.678  64.856  10.340  1.00  0.00    -0.265 OA
HETATM    8  N4  UNL     1      28.758  64.875  11.210  1.00  0.00    -0.260 N 
HETATM    9  C5  UNL     1      28.253  64.235  12.430  1.00  0.00     0.181 C 
HETATM   10  N5  UNL     1      30.009  65.188  11.052  1.00  0.00    -0.279 N 
ATOM     11  H5  UNL     1      30.656  64.976  11.811  1.00  0.00     0.189 HD
HETATM   12  C6  UNL     1      30.509  65.783   9.930  1.00  0.00     0.146 A 
HETATM   13  C7  UNL     1      29.656  66.079   8.891  1.00  0.00     0.145 A 
ENDROOT
BRANCH   4  14
HETATM   14  N3  UNL     1      26.422  66.007   7.636  1.00  0.00    -0.383 N 
ATOM     15  H32 UNL     1      25.986  66.124   6.722  1.00  0.00     0.157 HD
ATOM     16  H31 UNL     1      25.671  65.769   8.284  1.00  0.00     0.157 HD
ENDBRANCH   4  14
BRANCH   1  17
HETATM   17  O1  UNL     1      31.001  67.111   7.156  1.00  0.00    -0.263 OA
HETATM   18  C1  UNL     1      31.824  66.128   6.511  1.00  0.00     0.240 C 
ENDBRANCH   1  17
BRANCH  12  19
HETATM   19  N6  UNL     1      31.745  66.063   9.842  1.00  0.00    -0.382 N 
ATOM     20  H62 UNL     1      32.304  66.193  10.685  1.00  0.00     0.157 HD
ATOM     21  H61 UNL     1      32.192  66.161   8.930  1.00  0.00     0.157 HD
ENDBRANCH  12  19
TORSDOF 3
ENDMDL
MODEL 4
REMARK VINA RESULT: -6.098562541      1.516      4.062
REMARK  3 active torsions:
REMARK  status: ('A' for Active; 'I' for Inactive)
REMARK    1  A    between atoms: O1_2  and  N1_3 
REMARK    2  A    between atoms: C2_6  and  N3_7 
REMARK    3  A    between atoms: C6_17  and  N6_18 
ROOT
HETATM    1  N1  UNL     1      30.070  66.196   8.845  1.00  0.00    -0.155 N 
HETATM    2  N2  UNL     1      30.389  65.815  10.064  1.00  0.00    -0.258 N 
ATOM      3  H2  UNL     1      31.328  65.874  10.457  1.00  0.00     0.191 HD
HETATM    4  C2  UNL     1      29.321  65.338  10.724  1.00  0.00     0.134 A 
HETATM    5  C3  UNL     1      28.260  65.428   9.859  1.00  0.00     0.113 A 
HETATM    6  C4  UNL     1      26.920  65.116   9.916  1.00  0.00     0.278 A 
HETATM    7  O2  UNL     1      26.478  64.622  10.990  1.00  0.00    -0.265 OA
HETATM    8  N4  UNL     1      26.088  65.318   8.881  1.00  0.00    -0.260 N 
HETATM    9  C5  UNL     1      24.673  64.957   9.024  1.00  0.00     0.181 C 
HETATM   10  N5  UNL     1      26.572  65.827   7.789  1.00  0.00    -0.279 N 
ATOM     11  H5  UNL     1      25.935  65.978   7.007  1.00  0.00     0.189 HD
HETATM   12  C6  UNL     1      27.882  66.172   7.625  1.00  0.00     0.146 A 
HETATM   13  C7  UNL     1      28.762  65.979   8.665  1.00  0.00     0.145 A 
ENDROOT
BRANCH   4  14
HETATM   14  N3  UNL     1      29.265  64.884  11.919  1.00  0.00    -0.383 N 
ATOM     15  H32 UNL     1      29.978  65.019  12.635  1.00  0.00     0.157 HD
ATOM     16  H31 UNL     1      28.526  64.329  12.350  1.00  0.00     0.157 HD
ENDBRANCH   4  14
BRANCH   1  17
HETATM   17  O1  UNL     1      30.934  66.736   7.894  1.00  0.00    -0.263 OA
HETATM   18  C1  UNL     1      32.318  66.386   8.038  1.00  0.00     0.240 C 
ENDBRANCH   1  17
BRANCH  12  19
HETATM   19  N6  UNL     1      28.289  66.666   6.527  1.00  0.00    -0.382 N 
ATOM     20  H62 UNL     1      27.657  66.738   5.730  1.00  0.00     0.157 HD
ATOM     21  H61 UNL     1      29.249  66.998   6.431  1.00  0.00     0.157 HD
ENDBRANCH  12  19
TORSDOF 3
ENDMDL
MODEL 5
REMARK VINA RESULT: -5.853086561      1.521      1.818
REMARK  3 active torsions:
REMARK  status: ('A' for Active; 'I' for Inactive)
REMARK    1  A    between atoms: O1_2  and  N1_3 
REMARK    2  A    between atoms: C2_6  and  N3_7 
REMARK    3  A    between atoms: C6_17  and  N6_18 
ROOT
HETATM    1  N1  UNL     1      26.359  64.866  10.713  1.00  0.00    -0.155 N 
HETATM    2  N2  UNL     1      26.985  64.418  11.781  1.00  0.00    -0.258 N 
ATOM      3  H2  UNL     1      26.518  64.028  12.599  1.00  0.00     0.191 HD
HETATM    4  C2  UNL     1      28.316  64.541  11.657  1.00  0.00     0.134 A 
HETATM    5  C3  UNL     1      28.539  65.104  10.426  1.00  0.00     0.113 A 
HETATM    6  C4  UNL     1      29.653  65.481   9.709  1.00  0.00     0.278 A 
HETATM    7  O2  UNL     1      30.783  65.301  10.241  1.00  0.00    -0.265 OA
HETATM    8  N4  UNL     1      29.570  66.027   8.484  1.00  0.00    -0.260 N 
HETATM    9  C5  UNL     1      30.806  66.402   7.788  1.00  0.00     0.181 C 
HETATM   10  N5  UNL     1      28.394  66.201   7.963  1.00  0.00    -0.279 N 
ATOM     11  H5  UNL     1      28.339  66.615   7.032  1.00  0.00     0.189 HD
HETATM   12  C6  UNL     1      27.227  65.864   8.585  1.00  0.00     0.146 A 
HETATM   13  C7  UNL     1      27.275  65.303   9.841  1.00  0.00     0.145 A 
ENDROOT
BRANCH   4  14
HETATM   14  N3  UNL     1      29.225  64.211  12.495  1.00  0.00    -0.383 N 
ATOM     15  H32 UNL     1      29.566  63.263  12.652  1.00  0.00     0.157 HD
ATOM     16  H31 UNL     1      29.747  64.813  13.131  1.00  0.00     0.157 HD
ENDBRANCH   4  14
BRANCH   1  17
HETATM   17  O1  UNL     1      24.980  64.887  10.509  1.00  0.00    -0.263 OA
HETATM   18  C1  UNL     1      24.378  63.626  10.184  1.00  0.00     0.240 C 
ENDBRANCH   1  17
BRANCH  12  19
HETATM   19  N6  UNL     1      26.109  66.062   8.017  1.00  0.00    -0.382 N 
ATOM     20  H62 UNL     1      25.804  65.455   7.256  1.00  0.00     0.157 HD
ATOM     21  H61 UNL     1      25.504  66.828   8.313  1.00  0.00     0.157 HD
ENDBRANCH  12  19
TORSDOF 3
ENDMDL
