MODEL 1
REMARK VINA RESULT: -8.325059900      0.000      0.000
REMARK  4 active torsions:
REMARK  status: ('A' for Active; 'I' for Inactive)
REMARK    1  A    between atoms: C2_2  and  N1_4 
REMARK    2  A    between atoms: N1_4  and  C4_6 
REMARK    3  A    between atoms: C7_14  and  N4_15 
REMARK    4  A    between atoms: N4_15  and  C8_17 
REMARK       I    between atoms: N5_20  and  C11_21 
REMARK       I    between atoms: C11_21  and  N6_22 
REMARK       I    between atoms: C11_21  and  N7_26 
ROOT
HETATM    1  C4  UNL     1      29.490  64.582   9.700  1.00  0.00     0.681 A 
HETATM    2  N2  UNL     1      29.719  64.321  11.012  1.00  0.00    -0.176 N 
ATOM      3  H2  UNL     1      30.642  64.033  11.338  1.00  0.00     0.186 HD
HETATM    4  C5  UNL     1      28.693  64.453  11.871  1.00  0.00     0.132 A 
HETATM    5  N3  UNL     1      28.856  64.218  13.119  1.00  0.00    -0.384 N 
ATOM      6  H31 UNL     1      28.077  64.318  13.770  1.00  0.00     0.157 HD
ATOM      7  H32 UNL     1      29.784  63.931  13.428  1.00  0.00     0.157 HD
HETATM    8  C6  UNL     1      27.431  64.843  11.452  1.00  0.00     0.096 A 
HETATM    9  C7  UNL     1      26.406  64.962  12.397  1.00  0.00     0.122 A 
HETATM   10  N8  UNL     1      25.211  65.345  11.918  1.00  0.00    -0.318 N 
ATOM     11  H8  UNL     1      24.426  65.449  12.561  1.00  0.00     0.170 HD
HETATM   12  C12 UNL     1      25.026  65.595  10.610  1.00  0.00     0.182 A 
HETATM   13 CL1  UNL     1      23.450  66.096  10.005  1.00  0.00    -0.045 Cl
HETATM   14  N9  UNL     1      26.023  65.477   9.707  1.00  0.00    -0.317 N 
ATOM     15  H9  UNL     1      25.851  65.674   8.721  1.00  0.00     0.170 HD
HETATM   16  C13 UNL     1      27.236  65.100  10.118  1.00  0.00     0.141 A 
HETATM   17  N10 UNL     1      28.282  64.963   9.256  1.00  0.00    -0.175 N 
ATOM     18  H10 UNL     1      28.146  65.152   8.263  1.00  0.00     0.186 HD
ENDROOT
BRANCH   9  19
HETATM   19  N4  UNL     1      26.656  64.708  13.614  1.00  0.00    -0.345 N 
ATOM     20  H4  UNL     1      27.418  64.062  13.820  1.00  0.00     0.163 HD
BRANCH  19  21
HETATM   21  C8  UNL     1      25.943  65.265  14.706  1.00  0.00     0.329 C 
HETATM   22  C9  UNL     1      26.692  66.272  15.549  1.00  0.00     0.088 C 
HETATM   23  C10 UNL     1      25.827  65.710  16.659  1.00  0.00     0.284 C 
HETATM   24  N5  UNL     1      25.712  64.493  15.874  1.00  0.00     0.169 N 
HETATM   25  C11 UNL     1      26.669  63.527  16.285  1.00  0.00     0.614 C 
HETATM   26  N6  UNL     1      26.909  62.481  15.302  1.00  0.00    -0.024 N 
HETATM   27  N7  UNL     1      26.117  62.826  17.451  1.00  0.00    -0.024 N 
ATOM     28  H63 UNL     1      26.033  62.028  15.038  1.00  0.00     0.279 HD
ATOM     29  H62 UNL     1      27.171  62.886  14.403  1.00  0.00     0.279 HD
ATOM     30  H61 UNL     1      27.597  61.788  15.597  1.00  0.00     0.279 HD
ATOM     31  H73 UNL     1      25.842  63.459  18.202  1.00  0.00     0.279 HD
ATOM     32  H72 UNL     1      25.196  62.423  17.274  1.00  0.00     0.279 HD
ATOM     33  H71 UNL     1      26.804  62.133  17.745  1.00  0.00     0.279 HD
ENDBRANCH  19  21
ENDBRANCH   9  19
BRANCH   1  34
HETATM   34  N1  UNL     1      30.496  64.444   8.916  1.00  0.00    -0.222 N 
ATOM     35  H1  UNL     1      30.937  63.532   8.796  1.00  0.00     0.178 HD
BRANCH  34  36
HETATM   36  C2  UNL     1      30.995  65.596   8.209  1.00  0.00     0.091 C 
HETATM   37  C1  UNL     1      30.596  65.482   6.741  1.00  0.00     0.032 C 
HETATM   38  C3  UNL     1      32.520  65.533   8.260  1.00  0.00     0.032 C 
ENDBRANCH  34  36
ENDBRANCH   1  34
TORSDOF 4
ENDMDL
MODEL 2
REMARK VINA RESULT: -8.320422114      2.232      6.933
REMARK  4 active torsions:
REMARK  status: ('A' for Active; 'I' for Inactive)
REMARK    1  A    between atoms: C2_2  and  N1_4 
REMARK    2  A    between atoms: N1_4  and  C4_6 
REMARK    3  A    between atoms: C7_14  and  N4_15 
REMARK    4  A    between atoms: N4_15  and  C8_17 
REMARK       I    between atoms: N5_20  and  C11_21 
REMARK       I    between atoms: C11_21  and  N6_22 
REMARK       I    between atoms: C11_21  and  N7_26 
ROOT
HETATM    1  C4  UNL     1      26.826  62.957  15.269  1.00  0.00     0.681 A 
HETATM    2  N2  UNL     1      27.938  63.609  14.843  1.00  0.00    -0.176 N 
ATOM      3  H2  UNL     1      28.581  64.041  15.507  1.00  0.00     0.186 HD
HETATM    4  C5  UNL     1      28.166  63.669  13.519  1.00  0.00     0.132 A 
HETATM    5  N3  UNL     1      29.200  64.273  13.065  1.00  0.00    -0.384 N 
ATOM      6  H31 UNL     1      29.373  64.318  12.061  1.00  0.00     0.157 HD
ATOM      7  H32 UNL     1      29.833  64.699  13.742  1.00  0.00     0.157 HD
HETATM    8  C6  UNL     1      27.307  63.090  12.599  1.00  0.00     0.096 A 
HETATM    9  C7  UNL     1      27.604  63.188  11.235  1.00  0.00     0.122 A 
HETATM   10  N8  UNL     1      26.727  62.601  10.403  1.00  0.00    -0.318 N 
ATOM     11  H8  UNL     1      26.891  62.640   9.397  1.00  0.00     0.170 HD
HETATM   12  C12 UNL     1      25.637  61.964  10.867  1.00  0.00     0.182 A 
HETATM   13 CL1  UNL     1      24.501  61.203   9.756  1.00  0.00    -0.045 Cl
HETATM   14  N9  UNL     1      25.361  61.875  12.186  1.00  0.00    -0.317 N 
ATOM     15  H9  UNL     1      24.526  61.385  12.506  1.00  0.00     0.170 HD
HETATM   16  C13 UNL     1      26.194  62.438  13.066  1.00  0.00     0.141 A 
HETATM   17  N10 UNL     1      25.971  62.382  14.409  1.00  0.00    -0.175 N 
ATOM     18  H10 UNL     1      25.146  61.899  14.764  1.00  0.00     0.186 HD
ENDROOT
BRANCH   9  19
HETATM   19  N4  UNL     1      28.649  63.806  10.873  1.00  0.00    -0.345 N 
ATOM     20  H4  UNL     1      29.547  63.472  11.222  1.00  0.00     0.163 HD
BRANCH  19  21
HETATM   21  C8  UNL     1      28.649  64.934  10.014  1.00  0.00     0.329 C 
HETATM   22  C9  UNL     1      28.201  64.691   8.591  1.00  0.00     0.088 C 
HETATM   23  C10 UNL     1      29.185  65.802   8.286  1.00  0.00     0.284 C 
HETATM   24  N5  UNL     1      29.873  65.450   9.515  1.00  0.00     0.169 N 
HETATM   25  C11 UNL     1      30.960  64.570   9.259  1.00  0.00     0.614 C 
HETATM   26  N6  UNL     1      31.420  63.846  10.434  1.00  0.00    -0.024 N 
HETATM   27  N7  UNL     1      32.107  65.392   8.853  1.00  0.00    -0.024 N 
ATOM     28  H63 UNL     1      31.653  64.494  11.187  1.00  0.00     0.279 HD
ATOM     29  H62 UNL     1      30.648  63.344  10.872  1.00  0.00     0.279 HD
ATOM     30  H61 UNL     1      32.200  63.214  10.251  1.00  0.00     0.279 HD
ATOM     31  H73 UNL     1      31.897  66.005   8.065  1.00  0.00     0.279 HD
ATOM     32  H72 UNL     1      32.336  66.119   9.530  1.00  0.00     0.279 HD
ATOM     33  H71 UNL     1      32.886  64.760   8.669  1.00  0.00     0.279 HD
ENDBRANCH  19  21
ENDBRANCH   9  19
BRANCH   1  34
HETATM   34  N1  UNL     1      26.648  62.923  16.539  1.00  0.00    -0.222 N 
ATOM     35  H1  UNL     1      26.918  62.100  17.078  1.00  0.00     0.178 HD
BRANCH  34  36
HETATM   36  C2  UNL     1      26.060  64.065  17.193  1.00  0.00     0.091 C 
HETATM   37  C1  UNL     1      26.852  64.365  18.462  1.00  0.00     0.032 C 
HETATM   38  C3  UNL     1      24.655  63.660  17.632  1.00  0.00     0.032 C 
ENDBRANCH  34  36
ENDBRANCH   1  34
TORSDOF 4
ENDMDL
MODEL 3
REMARK VINA RESULT: -7.924547657      1.254      1.296
REMARK  4 active torsions:
REMARK  status: ('A' for Active; 'I' for Inactive)
REMARK    1  A    between atoms: C2_2  and  N1_4 
REMARK    2  A    between atoms: N1_4  and  C4_6 
REMARK    3  A    between atoms: C7_14  and  N4_15 
REMARK    4  A    between atoms: N4_15  and  C8_17 
REMARK       I    between atoms: N5_20  and  C11_21 
REMARK       I    between atoms: C11_21  and  N6_22 
REMARK       I    between atoms: C11_21  and  N7_26 
ROOT
HETATM    1  C4  UNL     1      29.410  64.709   9.950  1.00  0.00     0.681 A 
HETATM    2  N2  UNL     1      29.657  64.033  11.102  1.00  0.00    -0.176 N 
ATOM      3  H2  UNL     1      30.436  63.378  11.170  1.00  0.00     0.186 HD
HETATM    4  C5  UNL     1      28.845  64.254  12.150  1.00  0.00     0.132 A 
HETATM    5  N3  UNL     1      29.034  63.643  13.259  1.00  0.00    -0.384 N 
ATOM      6  H31 UNL     1      28.418  63.811  14.054  1.00  0.00     0.157 HD
ATOM      7  H32 UNL     1      29.817  62.991  13.310  1.00  0.00     0.157 HD
HETATM    8  C6  UNL     1      27.782  65.141  12.081  1.00  0.00     0.096 A 
HETATM    9  C7  UNL     1      26.975  65.326  13.209  1.00  0.00     0.122 A 
HETATM   10  N8  UNL     1      25.965  66.200  13.068  1.00  0.00    -0.318 N 
ATOM     11  H8  UNL     1      25.344  66.376  13.857  1.00  0.00     0.170 HD
HETATM   12  C12 UNL     1      25.755  66.849  11.909  1.00  0.00     0.182 A 
HETATM   13 CL1  UNL     1      24.424  67.991  11.748  1.00  0.00    -0.045 Cl
HETATM   14  N9  UNL     1      26.541  66.663  10.827  1.00  0.00    -0.317 N 
ATOM     15  H9  UNL     1      26.355  67.171   9.962  1.00  0.00     0.170 HD
HETATM   16  C13 UNL     1      27.563  65.807  10.901  1.00  0.00     0.141 A 
HETATM   17  N10 UNL     1      28.391  65.576   9.845  1.00  0.00    -0.175 N 
ATOM     18  H10 UNL     1      28.236  66.067   8.964  1.00  0.00     0.186 HD
ENDROOT
BRANCH   9  19
HETATM   19  N4  UNL     1      27.234  64.676  14.266  1.00  0.00    -0.345 N 
ATOM     20  H4  UNL     1      27.500  63.696  14.172  1.00  0.00     0.163 HD
BRANCH  19  21
HETATM   21  C8  UNL     1      27.178  65.227  15.572  1.00  0.00     0.329 C 
HETATM   22  C9  UNL     1      28.272  64.801  16.525  1.00  0.00     0.088 C 
HETATM   23  C10 UNL     1      27.183  64.980  17.564  1.00  0.00     0.284 C 
HETATM   24  N5  UNL     1      26.216  64.756  16.503  1.00  0.00     0.169 N 
HETATM   25  C11 UNL     1      25.803  63.397  16.467  1.00  0.00     0.614 C 
HETATM   26  N6  UNL     1      25.189  63.001  15.208  1.00  0.00    -0.024 N 
HETATM   27  N7  UNL     1      24.741  63.231  17.468  1.00  0.00    -0.024 N 
ATOM     28  H63 UNL     1      24.410  63.619  14.978  1.00  0.00     0.279 HD
ATOM     29  H62 UNL     1      25.810  63.208  14.425  1.00  0.00     0.279 HD
ATOM     30  H61 UNL     1      24.893  62.026  15.181  1.00  0.00     0.279 HD
ATOM     31  H73 UNL     1      25.023  63.537  18.400  1.00  0.00     0.279 HD
ATOM     32  H72 UNL     1      23.969  63.885  17.342  1.00  0.00     0.279 HD
ATOM     33  H71 UNL     1      24.445  62.256  17.442  1.00  0.00     0.279 HD
ENDBRANCH  19  21
ENDBRANCH   9  19
BRANCH   1  34
HETATM   34  N1  UNL     1      30.210  64.468   8.976  1.00  0.00    -0.222 N 
ATOM     35  H1  UNL     1      30.484  63.511   8.756  1.00  0.00     0.178 HD
BRANCH  34  36
HETATM   36  C2  UNL     1      30.715  65.571   8.197  1.00  0.00     0.091 C 
HETATM   37  C1  UNL     1      30.256  65.401   6.752  1.00  0.00     0.032 C 
HETATM   38  C3  UNL     1      32.238  65.462   8.195  1.00  0.00     0.032 C 
ENDBRANCH  34  36
ENDBRANCH   1  34
TORSDOF 4
ENDMDL
MODEL 4
REMARK VINA RESULT: -7.834377892      2.701      7.051
REMARK  4 active torsions:
REMARK  status: ('A' for Active; 'I' for Inactive)
REMARK    1  A    between atoms: C2_2  and  N1_4 
REMARK    2  A    between atoms: N1_4  and  C4_6 
REMARK    3  A    between atoms: C7_14  and  N4_15 
REMARK    4  A    between atoms: N4_15  and  C8_17 
REMARK       I    between atoms: N5_20  and  C11_21 
REMARK       I    between atoms: C11_21  and  N6_22 
REMARK       I    between atoms: C11_21  and  N7_26 
ROOT
HETATM    1  C4  UNL     1      25.925  62.623  13.497  1.00  0.00     0.681 A 
HETATM    2  N2  UNL     1      26.401  62.256  12.280  1.00  0.00    -0.176 N 
ATOM      3  H2  UNL     1      26.049  61.423  11.808  1.00  0.00     0.186 HD
HETATM    4  C5  UNL     1      27.349  63.023  11.715  1.00  0.00     0.132 A 
HETATM    5  N3  UNL     1      27.831  62.721  10.568  1.00  0.00    -0.384 N 
ATOM      6  H31 UNL     1      28.551  63.304  10.139  1.00  0.00     0.157 HD
ATOM      7  H32 UNL     1      27.469  61.885  10.110  1.00  0.00     0.157 HD
HETATM    8  C6  UNL     1      27.841  64.160  12.337  1.00  0.00     0.096 A 
HETATM    9  C7  UNL     1      28.828  64.915  11.694  1.00  0.00     0.122 A 
HETATM   10  N8  UNL     1      29.255  66.003  12.357  1.00  0.00    -0.318 N 
ATOM     11  H8  UNL     1      29.974  66.592  11.936  1.00  0.00     0.170 HD
HETATM   12  C12 UNL     1      28.757  66.332  13.562  1.00  0.00     0.182 A 
HETATM   13 CL1  UNL     1      29.334  67.762  14.411  1.00  0.00    -0.045 Cl
HETATM   14  N9  UNL     1      27.805  65.595  14.173  1.00  0.00    -0.317 N 
ATOM     15  H9  UNL     1      27.447  65.872  15.087  1.00  0.00     0.170 HD
HETATM   16  C13 UNL     1      27.336  64.501  13.567  1.00  0.00     0.141 A 
HETATM   17  N10 UNL     1      26.376  63.717  14.131  1.00  0.00    -0.175 N 
ATOM     18  H10 UNL     1      25.995  63.964  15.045  1.00  0.00     0.186 HD
ENDROOT
BRANCH   9  19
HETATM   19  N4  UNL     1      29.250  64.541  10.559  1.00  0.00    -0.345 N 
ATOM     20  H4  UNL     1      29.546  63.571  10.455  1.00  0.00     0.163 HD
BRANCH  19  21
HETATM   21  C8  UNL     1      29.335  65.386   9.424  1.00  0.00     0.329 C 
HETATM   22  C9  UNL     1      28.929  64.775   8.102  1.00  0.00     0.088 C 
HETATM   23  C10 UNL     1      29.975  65.722   7.551  1.00  0.00     0.284 C 
HETATM   24  N5  UNL     1      30.600  65.700   8.862  1.00  0.00     0.169 N 
HETATM   25  C11 UNL     1      31.652  64.746   8.911  1.00  0.00     0.614 C 
HETATM   26  N6  UNL     1      32.034  64.359  10.261  1.00  0.00    -0.024 N 
HETATM   27  N7  UNL     1      32.851  65.382   8.351  1.00  0.00    -0.024 N 
ATOM     28  H63 UNL     1      32.269  65.182  10.818  1.00  0.00     0.279 HD
ATOM     29  H62 UNL     1      31.223  64.026  10.782  1.00  0.00     0.279 HD
ATOM     30  H61 UNL     1      32.789  63.674  10.297  1.00  0.00     0.279 HD
ATOM     31  H73 UNL     1      32.701  65.761   7.416  1.00  0.00     0.279 HD
ATOM     32  H72 UNL     1      33.089  66.260   8.813  1.00  0.00     0.279 HD
ATOM     33  H71 UNL     1      33.606  64.697   8.386  1.00  0.00     0.279 HD
ENDBRANCH  19  21
ENDBRANCH   9  19
BRANCH   1  34
HETATM   34  N1  UNL     1      25.021  61.863  13.999  1.00  0.00    -0.222 N 
ATOM     35  H1  UNL     1      25.239  61.249  14.784  1.00  0.00     0.178 HD
BRANCH  34  36
HETATM   36  C2  UNL     1      23.694  61.891  13.439  1.00  0.00     0.091 C 
HETATM   37  C1  UNL     1      23.475  63.239  12.760  1.00  0.00     0.032 C 
HETATM   38  C3  UNL     1      22.710  61.815  14.604  1.00  0.00     0.032 C 
ENDBRANCH  34  36
ENDBRANCH   1  34
TORSDOF 4
ENDMDL
MODEL 5
REMARK VINA RESULT: -7.746949854      1.051      1.158
REMARK  4 active torsions:
REMARK  status: ('A' for Active; 'I' for Inactive)
REMARK    1  A    between atoms: C2_2  and  N1_4 
REMARK    2  A    between atoms: N1_4  and  C4_6 
REMARK    3  A    between atoms: C7_14  and  N4_15 
REMARK    4  A    between atoms: N4_15  and  C8_17 
REMARK       I    between atoms: N5_20  and  C11_21 
REMARK       I    between atoms: C11_21  and  N6_22 
REMARK       I    between atoms: C11_21  and  N7_26 
ROOT
HETATM    1  C4  UNL     1      29.486  64.567   9.814  1.00  0.00     0.681 A 
HETATM    2  N2  UNL     1      29.737  64.009  11.026  1.00  0.00    -0.176 N 
ATOM      3  H2  UNL     1      30.612  63.515  11.206  1.00  0.00     0.186 HD
HETATM    4  C5  UNL     1      28.798  64.126  11.981  1.00  0.00     0.132 A 
HETATM    5  N3  UNL     1      28.985  63.617  13.141  1.00  0.00    -0.384 N 
ATOM      6  H31 UNL     1      28.273  63.706  13.866  1.00  0.00     0.157 HD
ATOM      7  H32 UNL     1      29.865  63.126  13.305  1.00  0.00     0.157 HD
HETATM    8  C6  UNL     1      27.603  64.792  11.759  1.00  0.00     0.096 A 
HETATM    9  C7  UNL     1      26.669  64.878  12.797  1.00  0.00     0.122 A 
HETATM   10  N8  UNL     1      25.536  65.540  12.509  1.00  0.00    -0.318 N 
ATOM     11  H8  UNL     1      24.818  65.635  13.227  1.00  0.00     0.170 HD
HETATM   12  C12 UNL     1      25.327  66.079  11.295  1.00  0.00     0.182 A 
HETATM   13 CL1  UNL     1      23.832  66.941  10.941  1.00  0.00    -0.045 Cl
HETATM   14  N9  UNL     1      26.236  65.990  10.301  1.00  0.00    -0.317 N 
ATOM     15  H9  UNL     1      26.048  66.410   9.391  1.00  0.00     0.170 HD
HETATM   16  C13 UNL     1      27.385  65.345  10.522  1.00  0.00     0.141 A 
HETATM   17  N10 UNL     1      28.342  65.221   9.561  1.00  0.00    -0.175 N 
ATOM     18  H10 UNL     1      28.187  65.630   8.639  1.00  0.00     0.186 HD
ENDROOT
BRANCH   9  19
HETATM   19  N4  UNL     1      26.937  64.343  13.915  1.00  0.00    -0.345 N 
ATOM     20  H4  UNL     1      27.911  64.328  14.216  1.00  0.00     0.163 HD
BRANCH  19  21
HETATM   21  C8  UNL     1      25.966  63.764  14.772  1.00  0.00     0.329 C 
HETATM   22  C9  UNL     1      24.802  64.648  15.157  1.00  0.00     0.088 C 
HETATM   23  C10 UNL     1      24.853  63.843  16.440  1.00  0.00     0.284 C 
HETATM   24  N5  UNL     1      26.252  63.581  16.150  1.00  0.00     0.169 N 
HETATM   25  C11 UNL     1      27.096  64.502  16.826  1.00  0.00     0.614 C 
HETATM   26  N6  UNL     1      28.439  64.587  16.272  1.00  0.00    -0.024 N 
HETATM   27  N7  UNL     1      27.287  64.004  18.194  1.00  0.00    -0.024 N 
ATOM     28  H63 UNL     1      28.872  63.664  16.236  1.00  0.00     0.279 HD
ATOM     29  H62 UNL     1      28.403  64.799  15.275  1.00  0.00     0.279 HD
ATOM     30  H61 UNL     1      29.045  65.249  16.757  1.00  0.00     0.279 HD
ATOM     31  H73 UNL     1      26.408  63.837  18.683  1.00  0.00     0.279 HD
ATOM     32  H72 UNL     1      27.639  63.047  18.224  1.00  0.00     0.279 HD
ATOM     33  H71 UNL     1      27.893  64.665  18.679  1.00  0.00     0.279 HD
ENDBRANCH  19  21
ENDBRANCH   9  19
BRANCH   1  34
HETATM   34  N1  UNL     1      30.408  64.433   8.932  1.00  0.00    -0.222 N 
ATOM     35  H1  UNL     1      30.792  63.511   8.722  1.00  0.00     0.178 HD
BRANCH  34  36
HETATM   36  C2  UNL     1      30.893  65.602   8.243  1.00  0.00     0.091 C 
HETATM   37  C1  UNL     1      30.492  65.507   6.774  1.00  0.00     0.032 C 
HETATM   38  C3  UNL     1      32.419  65.553   8.290  1.00  0.00     0.032 C 
ENDBRANCH  34  36
ENDBRANCH   1  34
TORSDOF 4
ENDMDL
