MODEL 1
REMARK VINA RESULT: -6.560685220      0.000      0.000
REMARK  6 active torsions:
REMARK  status: ('A' for Active; 'I' for Inactive)
REMARK    1  A    between atoms: N1_1  and  N2_4 
REMARK    2  A    between atoms: N3_6  and  C1_8 
REMARK    3  A    between atoms: C1_8  and  C2_9 
REMARK    4  A    between atoms: C2_9  and  N4_10 
REMARK    5  A    between atoms: C2_9  and  C7_17 
REMARK       I    between atoms: N4_10  and  C3_12 
REMARK    6  A    between atoms: C3_12  and  C4_14 
ROOT
HETATM    1  C2  UNL     1      12.748  23.425   5.222  1.00  0.00     0.107 C 
ENDROOT
BRANCH   1   2
HETATM    2  C1  UNL     1      12.166  22.065   5.289  1.00  0.00     0.166 C 
BRANCH   2   3
HETATM    3  N3  UNL     1      11.986  21.514   6.594  1.00  0.00    -0.321 N 
HETATM    4  N2  UNL     1      10.878  21.394   7.116  1.00  0.00    -0.254 N 
ATOM      5  H2  UNL     1      10.514  20.590   6.606  1.00  0.00     0.207 HD
ATOM      6  H3  UNL     1      12.809  21.207   7.114  1.00  0.00     0.181 HD
BRANCH   4   7
HETATM    7  N1  UNL     1       9.933  21.636   7.869  1.00  0.00    -0.331 N 
ATOM      8  H12 UNL     1       9.907  20.736   8.349  1.00  0.00     0.178 HD
ATOM      9  H11 UNL     1       9.175  22.163   8.302  1.00  0.00     0.178 HD
ENDBRANCH   4   7
ENDBRANCH   2   3
ENDBRANCH   1   2
BRANCH   1  10
HETATM   10  N4  UNL     1      11.610  24.330   4.939  1.00  0.00    -0.354 N 
HETATM   11  C3  UNL     1      10.778  24.819   5.951  1.00  0.00     0.222 C 
HETATM   12  O1  UNL     1      10.918  24.540   7.168  1.00  0.00    -0.273 OA
ATOM     13  H4  UNL     1      11.427  24.604   3.975  1.00  0.00     0.162 HD
BRANCH  11  14
HETATM   14  C4  UNL     1       9.660  25.720   5.592  1.00  0.00     0.078 A 
HETATM   15  C5  UNL     1       9.631  26.288   4.219  1.00  0.00     0.015 A 
HETATM   16  C6  UNL     1       9.945  27.178   5.435  1.00  0.00     0.015 A 
ENDBRANCH  11  14
ENDBRANCH   1  10
BRANCH   1  17
HETATM   17  C7  UNL     1      13.756  23.730   4.215  1.00  0.00     0.010 C 
HETATM   18  C8  UNL     1      13.712  22.970   2.903  1.00  0.00     0.007 C 
HETATM   19  C9  UNL     1      15.207  23.319   2.793  1.00  0.00     0.001 C 
HETATM   20  C10 UNL     1      15.176  23.352   4.335  1.00  0.00     0.007 C 
ENDBRANCH   1  17
TORSDOF 6
ENDMDL
MODEL 2
REMARK VINA RESULT: -6.447009402      1.518      4.637
REMARK  6 active torsions:
REMARK  status: ('A' for Active; 'I' for Inactive)
REMARK    1  A    between atoms: N1_1  and  N2_4 
REMARK    2  A    between atoms: N3_6  and  C1_8 
REMARK    3  A    between atoms: C1_8  and  C2_9 
REMARK    4  A    between atoms: C2_9  and  N4_10 
REMARK    5  A    between atoms: C2_9  and  C7_17 
REMARK       I    between atoms: N4_10  and  C3_12 
REMARK    6  A    between atoms: C3_12  and  C4_14 
ROOT
HETATM    1  C2  UNL     1      11.504  24.302   5.362  1.00  0.00     0.107 C 
ENDROOT
BRANCH   1   2
HETATM    2  C1  UNL     1      11.514  23.817   6.762  1.00  0.00     0.166 C 
BRANCH   2   3
HETATM    3  N3  UNL     1      10.911  22.544   6.998  1.00  0.00    -0.321 N 
HETATM    4  N2  UNL     1      11.561  21.500   7.033  1.00  0.00    -0.254 N 
ATOM      5  H2  UNL     1      12.005  21.583   7.947  1.00  0.00     0.207 HD
ATOM      6  H3  UNL     1       9.903  22.499   7.144  1.00  0.00     0.181 HD
BRANCH   4   7
HETATM    7  N1  UNL     1      12.012  20.417   6.657  1.00  0.00    -0.331 N 
ATOM      8  H12 UNL     1      12.595  20.221   7.471  1.00  0.00     0.178 HD
ATOM      9  H11 UNL     1      12.164  19.609   6.052  1.00  0.00     0.178 HD
ENDBRANCH   4   7
ENDBRANCH   2   3
ENDBRANCH   1   2
BRANCH   1  10
HETATM   10  N4  UNL     1      12.924  24.318   4.940  1.00  0.00    -0.354 N 
HETATM   11  C3  UNL     1      13.585  23.167   4.503  1.00  0.00     0.222 C 
HETATM   12  O1  UNL     1      13.044  22.034   4.432  1.00  0.00    -0.273 OA
ATOM     13  H4  UNL     1      13.436  25.199   4.969  1.00  0.00     0.162 HD
BRANCH  11  14
HETATM   14  C4  UNL     1      15.005  23.260   4.095  1.00  0.00     0.078 A 
HETATM   15  C5  UNL     1      15.306  23.661   2.696  1.00  0.00     0.015 A 
HETATM   16  C6  UNL     1      15.549  22.218   3.174  1.00  0.00     0.015 A 
ENDBRANCH  11  14
ENDBRANCH   1  10
BRANCH   1  17
HETATM   17  C7  UNL     1      10.986  25.630   5.062  1.00  0.00     0.010 C 
HETATM   18  C8  UNL     1      10.236  26.370   6.153  1.00  0.00     0.007 C 
HETATM   19  C9  UNL     1       9.581  27.152   4.999  1.00  0.00     0.001 C 
HETATM   20  C10 UNL     1       9.842  25.881   4.166  1.00  0.00     0.007 C 
ENDBRANCH   1  17
TORSDOF 6
ENDMDL
MODEL 3
REMARK VINA RESULT: -6.343807196      7.124      8.235
REMARK  6 active torsions:
REMARK  status: ('A' for Active; 'I' for Inactive)
REMARK    1  A    between atoms: N1_1  and  N2_4 
REMARK    2  A    between atoms: N3_6  and  C1_8 
REMARK    3  A    between atoms: C1_8  and  C2_9 
REMARK    4  A    between atoms: C2_9  and  N4_10 
REMARK    5  A    between atoms: C2_9  and  C7_17 
REMARK       I    between atoms: N4_10  and  C3_12 
REMARK    6  A    between atoms: C3_12  and  C4_14 
ROOT
HETATM    1  C2  UNL     1      10.911  16.735   3.694  1.00  0.00     0.107 C 
ENDROOT
BRANCH   1   2
HETATM    2  C1  UNL     1      12.282  16.492   4.200  1.00  0.00     0.166 C 
BRANCH   2   3
HETATM    3  N3  UNL     1      13.003  17.637   4.658  1.00  0.00    -0.321 N 
HETATM    4  N2  UNL     1      12.582  18.371   5.552  1.00  0.00    -0.254 N 
ATOM      5  H2  UNL     1      12.762  17.793   6.372  1.00  0.00     0.207 HD
ATOM      6  H3  UNL     1      13.901  17.856   4.226  1.00  0.00     0.181 HD
BRANCH   4   7
HETATM    7  N1  UNL     1      12.081  19.366   6.078  1.00  0.00    -0.331 N 
ATOM      8  H12 UNL     1      11.782  19.837   5.224  1.00  0.00     0.178 HD
ATOM      9  H11 UNL     1      11.785  20.000   6.821  1.00  0.00     0.178 HD
ENDBRANCH   4   7
ENDBRANCH   2   3
ENDBRANCH   1   2
BRANCH   1  10
HETATM   10  N4  UNL     1      10.034  15.843   4.486  1.00  0.00    -0.354 N 
HETATM   11  C3  UNL     1       9.417  16.262   5.668  1.00  0.00     0.222 C 
HETATM   12  O1  UNL     1       9.552  17.412   6.158  1.00  0.00    -0.273 OA
ATOM     13  H4  UNL     1       9.873  14.891   4.157  1.00  0.00     0.162 HD
BRANCH  11  14
HETATM   14  C4  UNL     1       8.552  15.314   6.407  1.00  0.00     0.078 A 
HETATM   15  C5  UNL     1       7.531  15.874   7.331  1.00  0.00     0.015 A 
HETATM   16  C6  UNL     1       8.773  15.146   7.874  1.00  0.00     0.015 A 
ENDBRANCH  11  14
ENDBRANCH   1  10
BRANCH   1  17
HETATM   17  C7  UNL     1      10.599  16.461   2.297  1.00  0.00     0.010 C 
HETATM   18  C8  UNL     1      10.292  15.030   1.899  1.00  0.00     0.007 C 
HETATM   19  C9  UNL     1      10.716  15.465   0.484  1.00  0.00     0.001 C 
HETATM   20  C10 UNL     1      11.594  16.504   1.210  1.00  0.00     0.007 C 
ENDBRANCH   1  17
TORSDOF 6
ENDMDL
MODEL 4
REMARK VINA RESULT: -6.248967584      0.781      1.211
REMARK  6 active torsions:
REMARK  status: ('A' for Active; 'I' for Inactive)
REMARK    1  A    between atoms: N1_1  and  N2_4 
REMARK    2  A    between atoms: N3_6  and  C1_8 
REMARK    3  A    between atoms: C1_8  and  C2_9 
REMARK    4  A    between atoms: C2_9  and  N4_10 
REMARK    5  A    between atoms: C2_9  and  C7_17 
REMARK       I    between atoms: N4_10  and  C3_12 
REMARK    6  A    between atoms: C3_12  and  C4_14 
ROOT
HETATM    1  C2  UNL     1      12.729  23.038   5.249  1.00  0.00     0.107 C 
ENDROOT
BRANCH   1   2
HETATM    2  C1  UNL     1      11.883  21.883   5.626  1.00  0.00     0.166 C 
BRANCH   2   3
HETATM    3  N3  UNL     1      11.396  21.863   6.968  1.00  0.00    -0.321 N 
HETATM    4  N2  UNL     1      10.251  22.207   7.263  1.00  0.00    -0.254 N 
ATOM      5  H2  UNL     1       9.721  21.397   6.941  1.00  0.00     0.207 HD
ATOM      6  H3  UNL     1      12.021  21.552   7.712  1.00  0.00     0.181 HD
BRANCH   4   7
HETATM    7  N1  UNL     1       9.344  22.914   7.703  1.00  0.00    -0.331 N 
ATOM      8  H12 UNL     1       8.777  22.953   6.856  1.00  0.00     0.178 HD
ATOM      9  H11 UNL     1       8.816  23.475   8.372  1.00  0.00     0.178 HD
ENDBRANCH   4   7
ENDBRANCH   2   3
ENDBRANCH   1   2
BRANCH   1  10
HETATM   10  N4  UNL     1      11.838  23.955   4.502  1.00  0.00    -0.354 N 
HETATM   11  C3  UNL     1      11.040  24.907   5.145  1.00  0.00     0.222 C 
HETATM   12  O1  UNL     1      11.008  25.066   6.391  1.00  0.00    -0.273 OA
ATOM     13  H4  UNL     1      11.804  23.890   3.485  1.00  0.00     0.162 HD
BRANCH  11  14
HETATM   14  C4  UNL     1      10.173  25.790   4.332  1.00  0.00     0.078 A 
HETATM   15  C5  UNL     1       9.699  27.059   4.944  1.00  0.00     0.015 A 
HETATM   16  C6  UNL     1       8.728  25.892   4.693  1.00  0.00     0.015 A 
ENDBRANCH  11  14
ENDBRANCH   1  10
BRANCH   1  17
HETATM   17  C7  UNL     1      13.892  22.833   4.395  1.00  0.00     0.010 C 
HETATM   18  C8  UNL     1      14.894  23.964   4.264  1.00  0.00     0.007 C 
HETATM   19  C9  UNL     1      15.279  23.301   2.929  1.00  0.00     0.001 C 
HETATM   20  C10 UNL     1      13.829  22.776   2.923  1.00  0.00     0.007 C 
ENDBRANCH   1  17
TORSDOF 6
ENDMDL
MODEL 5
REMARK VINA RESULT: -6.164778764      6.926      9.171
REMARK  6 active torsions:
REMARK  status: ('A' for Active; 'I' for Inactive)
REMARK    1  A    between atoms: N1_1  and  N2_4 
REMARK    2  A    between atoms: N3_6  and  C1_8 
REMARK    3  A    between atoms: C1_8  and  C2_9 
REMARK    4  A    between atoms: C2_9  and  N4_10 
REMARK    5  A    between atoms: C2_9  and  C7_17 
REMARK       I    between atoms: N4_10  and  C3_12 
REMARK    6  A    between atoms: C3_12  and  C4_14 
ROOT
HETATM    1  C2  UNL     1       9.671  16.438   5.553  1.00  0.00     0.107 C 
ENDROOT
BRANCH   1   2
HETATM    2  C1  UNL     1       9.421  17.864   5.241  1.00  0.00     0.166 C 
BRANCH   2   3
HETATM    3  N3  UNL     1      10.359  18.804   5.766  1.00  0.00    -0.321 N 
HETATM    4  N2  UNL     1      11.542  18.821   5.426  1.00  0.00    -0.254 N 
ATOM      5  H2  UNL     1      11.467  19.245   4.502  1.00  0.00     0.207 HD
ATOM      6  H3  UNL     1      10.037  19.488   6.451  1.00  0.00     0.181 HD
BRANCH   4   7
HETATM    7  N1  UNL     1      12.759  18.647   5.501  1.00  0.00    -0.331 N 
ATOM      8  H12 UNL     1      13.018  19.600   5.756  1.00  0.00     0.178 HD
ATOM      9  H11 UNL     1      13.652  18.155   5.467  1.00  0.00     0.178 HD
ENDBRANCH   4   7
ENDBRANCH   2   3
ENDBRANCH   1   2
BRANCH   1  10
HETATM   10  N4  UNL     1       9.851  15.771   4.243  1.00  0.00    -0.354 N 
HETATM   11  C3  UNL     1      11.105  15.645   3.638  1.00  0.00     0.222 C 
HETATM   12  O1  UNL     1      12.172  16.078   4.142  1.00  0.00    -0.273 OA
ATOM     13  H4  UNL     1       9.034  15.393   3.766  1.00  0.00     0.162 HD
BRANCH  11  14
HETATM   14  C4  UNL     1      11.209  14.965   2.327  1.00  0.00     0.078 A 
HETATM   15  C5  UNL     1      11.044  15.786   1.099  1.00  0.00     0.015 A 
HETATM   16  C6  UNL     1       9.963  14.777   1.525  1.00  0.00     0.015 A 
ENDBRANCH  11  14
ENDBRANCH   1  10
BRANCH   1  17
HETATM   17  C7  UNL     1       8.655  15.664   6.255  1.00  0.00     0.010 C 
HETATM   18  C8  UNL     1       7.562  16.416   6.990  1.00  0.00     0.007 C 
HETATM   19  C9  UNL     1       7.423  15.138   7.835  1.00  0.00     0.001 C 
HETATM   20  C10 UNL     1       8.910  14.910   7.496  1.00  0.00     0.007 C 
ENDBRANCH   1  17
TORSDOF 6
ENDMDL
