MODEL 1
REMARK VINA RESULT: -6.346433873      0.000      0.000
REMARK  5 active torsions:
REMARK  status: ('A' for Active; 'I' for Inactive)
REMARK    1  A    between atoms: C2_2  and  C3_3 
REMARK    2  A    between atoms: C2_2  and  C7_7 
REMARK    3  A    between atoms: C3_3  and  C4_4 
REMARK    4  A    between atoms: C7_7  and  C8_8 
REMARK    5  A    between atoms: C7_7  and  N2_11 
ROOT
HETATM    1  C7  UNL     1      10.640  17.196   4.289  1.00  0.00     0.314 C 
ENDROOT
BRANCH   1   2
HETATM    2  C2  UNL     1       9.305  16.857   4.860  1.00  0.00     0.024 C 
HETATM    3  C1  UNL     1       8.410  18.044   5.127  1.00  0.00     0.012 C 
BRANCH   2   4
HETATM    4  C3  UNL     1       9.275  15.778   5.859  1.00  0.00     0.011 C 
BRANCH   4   5
HETATM    5  C4  UNL     1       8.731  16.048   7.207  1.00  0.00    -0.014 A 
HETATM    6  C5  UNL     1       7.474  15.508   7.739  1.00  0.00     0.005 A 
HETATM    7  C6  UNL     1       8.734  14.782   8.115  1.00  0.00     0.005 A 
ENDBRANCH   4   5
ENDBRANCH   2   4
ENDBRANCH   1   2
BRANCH   1   8
HETATM    8  C8  UNL     1      11.119  18.538   4.625  1.00  0.00     0.265 C 
HETATM    9  N1  UNL     1      11.941  18.757   5.783  1.00  0.00    -0.060 NA
HETATM   10  O1  UNL     1      10.830  19.529   3.912  1.00  0.00    -0.274 OA
ENDBRANCH   1   8
BRANCH   1  11
HETATM   11  N2  UNL     1      10.589  17.104   2.822  1.00  0.00     0.102 N 
HETATM   12  C9  UNL     1      11.988  16.976   2.389  1.00  0.00     0.273 C 
HETATM   13  C10 UNL     1      11.842  16.474   0.946  1.00  0.00     0.032 C 
HETATM   14  C11 UNL     1      10.708  15.507   1.081  1.00  0.00     0.032 C 
HETATM   15  C12 UNL     1      10.027  15.813   2.398  1.00  0.00     0.273 C 
ENDBRANCH   1  11
TORSDOF 5
ENDMDL
MODEL 2
REMARK VINA RESULT: -6.160539782      5.543      7.678
REMARK  5 active torsions:
REMARK  status: ('A' for Active; 'I' for Inactive)
REMARK    1  A    between atoms: C2_2  and  C3_3 
REMARK    2  A    between atoms: C2_2  and  C7_7 
REMARK    3  A    between atoms: C3_3  and  C4_4 
REMARK    4  A    between atoms: C7_7  and  C8_8 
REMARK    5  A    between atoms: C7_7  and  N2_11 
ROOT
HETATM    1  C7  UNL     1      12.357  22.328   4.758  1.00  0.00     0.314 C 
ENDROOT
BRANCH   1   2
HETATM    2  C2  UNL     1      12.237  23.638   5.460  1.00  0.00     0.024 C 
HETATM    3  C1  UNL     1      12.070  23.539   6.959  1.00  0.00     0.012 C 
BRANCH   2   4
HETATM    4  C3  UNL     1      11.449  24.676   4.781  1.00  0.00     0.011 C 
BRANCH   4   5
HETATM    5  C4  UNL     1      10.329  25.326   5.495  1.00  0.00    -0.014 A 
HETATM    6  C5  UNL     1      10.242  26.754   5.819  1.00  0.00     0.005 A 
HETATM    7  C6  UNL     1       9.524  26.297   4.582  1.00  0.00     0.005 A 
ENDBRANCH   4   5
ENDBRANCH   2   4
ENDBRANCH   1   2
BRANCH   1   8
HETATM    8  C8  UNL     1      12.037  21.165   5.587  1.00  0.00     0.265 C 
HETATM    9  N1  UNL     1      13.062  20.241   5.987  1.00  0.00    -0.060 NA
HETATM   10  O1  UNL     1      10.863  20.943   5.971  1.00  0.00    -0.274 OA
ENDBRANCH   1   8
BRANCH   1  11
HETATM   11  N2  UNL     1      13.732  22.151   4.268  1.00  0.00     0.102 N 
HETATM   12  C9  UNL     1      13.601  21.813   2.844  1.00  0.00     0.273 C 
HETATM   13  C10 UNL     1      15.021  22.053   2.315  1.00  0.00     0.032 C 
HETATM   14  C11 UNL     1      15.406  23.298   3.051  1.00  0.00     0.032 C 
HETATM   15  C12 UNL     1      14.434  23.442   4.204  1.00  0.00     0.273 C 
ENDBRANCH   1  11
TORSDOF 5
ENDMDL
MODEL 3
REMARK VINA RESULT: -6.106381818      1.898      3.414
REMARK  5 active torsions:
REMARK  status: ('A' for Active; 'I' for Inactive)
REMARK    1  A    between atoms: C2_2  and  C3_3 
REMARK    2  A    between atoms: C2_2  and  C7_7 
REMARK    3  A    between atoms: C3_3  and  C4_4 
REMARK    4  A    between atoms: C7_7  and  C8_8 
REMARK    5  A    between atoms: C7_7  and  N2_11 
ROOT
HETATM    1  C7  UNL     1      10.327  16.622   3.246  1.00  0.00     0.314 C 
ENDROOT
BRANCH   1   2
HETATM    2  C2  UNL     1      10.510  15.616   4.330  1.00  0.00     0.024 C 
HETATM    3  C1  UNL     1      11.420  14.462   3.977  1.00  0.00     0.012 C 
BRANCH   2   4
HETATM    4  C3  UNL     1       9.320  15.289   5.128  1.00  0.00     0.011 C 
BRANCH   4   5
HETATM    5  C4  UNL     1       9.005  16.090   6.331  1.00  0.00    -0.014 A 
HETATM    6  C5  UNL     1       7.691  16.169   6.979  1.00  0.00     0.005 A 
HETATM    7  C6  UNL     1       8.677  15.203   7.569  1.00  0.00     0.005 A 
ENDBRANCH   4   5
ENDBRANCH   2   4
ENDBRANCH   1   2
BRANCH   1   8
HETATM    8  C8  UNL     1      10.634  16.128   1.903  1.00  0.00     0.265 C 
HETATM    9  N1  UNL     1      11.818  16.559   1.213  1.00  0.00    -0.060 NA
HETATM   10  O1  UNL     1       9.876  15.316   1.320  1.00  0.00    -0.274 OA
ENDBRANCH   1   8
BRANCH   1  11
HETATM   11  N2  UNL     1      11.196  17.782   3.494  1.00  0.00     0.102 N 
HETATM   12  C9  UNL     1      10.302  18.846   3.976  1.00  0.00     0.273 C 
HETATM   13  C10 UNL     1      11.285  19.847   4.597  1.00  0.00     0.032 C 
HETATM   14  C11 UNL     1      12.258  18.930   5.270  1.00  0.00     0.032 C 
HETATM   15  C12 UNL     1      12.049  17.555   4.671  1.00  0.00     0.273 C 
ENDBRANCH   1  11
TORSDOF 5
ENDMDL
MODEL 4
REMARK VINA RESULT: -6.069806872      2.402      3.767
REMARK  5 active torsions:
REMARK  status: ('A' for Active; 'I' for Inactive)
REMARK    1  A    between atoms: C2_2  and  C3_3 
REMARK    2  A    between atoms: C2_2  and  C7_7 
REMARK    3  A    between atoms: C3_3  and  C4_4 
REMARK    4  A    between atoms: C7_7  and  C8_8 
REMARK    5  A    between atoms: C7_7  and  N2_11 
ROOT
HETATM    1  C7  UNL     1      11.501  16.191   2.339  1.00  0.00     0.314 C 
ENDROOT
BRANCH   1   2
HETATM    2  C2  UNL     1      11.476  15.905   3.802  1.00  0.00     0.024 C 
HETATM    3  C1  UNL     1      11.348  14.442   4.159  1.00  0.00     0.012 C 
BRANCH   2   4
HETATM    4  C3  UNL     1      10.728  16.850   4.643  1.00  0.00     0.011 C 
BRANCH   4   5
HETATM    5  C4  UNL     1       9.379  16.487   5.126  1.00  0.00    -0.014 A 
HETATM    6  C5  UNL     1       8.940  16.521   6.526  1.00  0.00     0.005 A 
HETATM    7  C6  UNL     1       8.595  17.713   5.681  1.00  0.00     0.005 A 
ENDBRANCH   4   5
ENDBRANCH   2   4
ENDBRANCH   1   2
BRANCH   1   8
HETATM    8  C8  UNL     1      10.687  15.282   1.530  1.00  0.00     0.265 C 
HETATM    9  N1  UNL     1       9.253  15.352   1.562  1.00  0.00    -0.060 NA
HETATM   10  O1  UNL     1      11.218  14.422   0.788  1.00  0.00    -0.274 OA
ENDBRANCH   1   8
BRANCH   1  11
HETATM   11  N2  UNL     1      12.881  16.105   1.840  1.00  0.00     0.102 N 
HETATM   12  C9  UNL     1      13.058  17.280   0.974  1.00  0.00     0.273 C 
HETATM   13  C10 UNL     1      14.584  17.360   0.834  1.00  0.00     0.032 C 
HETATM   14  C11 UNL     1      15.029  17.021   2.223  1.00  0.00     0.032 C 
HETATM   15  C12 UNL     1      13.845  16.381   2.916  1.00  0.00     0.273 C 
ENDBRANCH   1  11
TORSDOF 5
ENDMDL
MODEL 5
REMARK VINA RESULT: -5.996793300      1.252      1.366
REMARK  5 active torsions:
REMARK  status: ('A' for Active; 'I' for Inactive)
REMARK    1  A    between atoms: C2_2  and  C3_3 
REMARK    2  A    between atoms: C2_2  and  C7_7 
REMARK    3  A    between atoms: C3_3  and  C4_4 
REMARK    4  A    between atoms: C7_7  and  C8_8 
REMARK    5  A    between atoms: C7_7  and  N2_11 
ROOT
HETATM    1  C7  UNL     1      10.852  17.000   4.668  1.00  0.00     0.314 C 
ENDROOT
BRANCH   1   2
HETATM    2  C2  UNL     1       9.432  17.167   5.092  1.00  0.00     0.024 C 
HETATM    3  C1  UNL     1       8.749  18.399   4.546  1.00  0.00     0.012 C 
BRANCH   2   4
HETATM    4  C3  UNL     1       9.116  16.806   6.481  1.00  0.00     0.011 C 
BRANCH   4   5
HETATM    5  C4  UNL     1       8.563  15.467   6.779  1.00  0.00    -0.014 A 
HETATM    6  C5  UNL     1       8.723  14.744   8.046  1.00  0.00     0.005 A 
HETATM    7  C6  UNL     1       7.445  15.512   7.863  1.00  0.00     0.005 A 
ENDBRANCH   4   5
ENDBRANCH   2   4
ENDBRANCH   1   2
BRANCH   1   8
HETATM    8  C8  UNL     1      11.656  18.220   4.749  1.00  0.00     0.265 C 
HETATM    9  N1  UNL     1      12.123  18.873   3.557  1.00  0.00    -0.060 NA
HETATM   10  O1  UNL     1      11.956  18.729   5.855  1.00  0.00    -0.274 OA
ENDBRANCH   1   8
BRANCH   1  11
HETATM   11  N2  UNL     1      10.902  16.534   3.275  1.00  0.00     0.102 N 
HETATM   12  C9  UNL     1      11.930  15.484   3.249  1.00  0.00     0.273 C 
HETATM   13  C10 UNL     1      11.644  14.773   1.919  1.00  0.00     0.032 C 
HETATM   14  C11 UNL     1      10.147  14.756   1.908  1.00  0.00     0.032 C 
HETATM   15  C12 UNL     1       9.691  15.772   2.934  1.00  0.00     0.273 C 
ENDBRANCH   1  11
TORSDOF 5
ENDMDL
