MODEL 1
REMARK VINA RESULT: -6.873684860      0.000      0.000
REMARK  5 active torsions:
REMARK  status: ('A' for Active; 'I' for Inactive)
REMARK    1  A    between atoms: C1_2  and  C2_4 
REMARK    2  A    between atoms: C6_8  and  C7_9 
REMARK    3  A    between atoms: C7_9  and  O3_10 
REMARK    4  A    between atoms: O3_10  and  C8_11 
REMARK    5  A    between atoms: C8_11  and  C9_12 
ROOT
HETATM    1  C2  UNL     1      12.682  16.678   2.047  1.00  0.00     0.096 A 
HETATM    2  C3  UNL     1      11.722  16.212   0.977  1.00  0.00     0.005 A 
HETATM    3  C4  UNL     1      10.982  14.919   1.134  1.00  0.00     0.006 C 
HETATM    4  C5  UNL     1       9.710  15.359   1.825  1.00  0.00     0.007 C 
HETATM    5  C6  UNL     1      10.246  16.280   2.899  1.00  0.00     0.015 C 
HETATM    6  C12 UNL     1      11.275  17.087   2.166  1.00  0.00     0.011 A 
ENDROOT
BRANCH   5   7
HETATM    7  C7  UNL     1      10.798  15.473   4.023  1.00  0.00     0.172 C 
BRANCH   7   8
HETATM    8  O3  UNL     1       9.800  14.984   4.820  1.00  0.00    -0.390 OA
BRANCH   8   9
HETATM    9  C8  UNL     1       9.237  15.855   5.712  1.00  0.00     0.172 C 
BRANCH   9  10
HETATM   10  C9  UNL     1       8.339  15.035   6.624  1.00  0.00     0.009 A 
HETATM   11  C10 UNL     1       8.664  14.932   8.065  1.00  0.00     0.007 A 
HETATM   12  C11 UNL     1       7.519  15.805   7.663  1.00  0.00     0.007 A 
ENDBRANCH   9  10
ENDBRANCH   8   9
ENDBRANCH   7   8
ENDBRANCH   5   7
BRANCH   1  13
HETATM   13  C1  UNL     1      13.614  17.729   1.571  1.00  0.00     0.177 C 
HETATM   14  O1  UNL     1      14.233  17.586   0.497  1.00  0.00    -0.648 OA
HETATM   15  O2  UNL     1      13.837  18.902   2.286  1.00  0.00    -0.648 OA
ENDBRANCH   1  13
TORSDOF 5
ENDMDL
MODEL 2
REMARK VINA RESULT: -6.695654097      5.332      8.239
REMARK  5 active torsions:
REMARK  status: ('A' for Active; 'I' for Inactive)
REMARK    1  A    between atoms: C1_2  and  C2_4 
REMARK    2  A    between atoms: C6_8  and  C7_9 
REMARK    3  A    between atoms: C7_9  and  O3_10 
REMARK    4  A    between atoms: O3_10  and  C8_11 
REMARK    5  A    between atoms: C8_11  and  C9_12 
ROOT
HETATM    1  C2  UNL     1      12.891  22.941   5.216  1.00  0.00     0.096 A 
HETATM    2  C3  UNL     1      13.882  23.929   4.646  1.00  0.00     0.005 A 
HETATM    3  C4  UNL     1      15.175  23.454   4.060  1.00  0.00     0.006 C 
HETATM    4  C5  UNL     1      14.816  23.254   2.604  1.00  0.00     0.007 C 
HETATM    5  C6  UNL     1      13.498  22.520   2.710  1.00  0.00     0.015 C 
HETATM    6  C12 UNL     1      12.779  23.275   3.788  1.00  0.00     0.011 A 
ENDROOT
BRANCH   5   7
HETATM    7  C7  UNL     1      13.746  21.088   3.038  1.00  0.00     0.172 C 
BRANCH   7   8
HETATM    8  O3  UNL     1      14.454  20.468   2.044  1.00  0.00    -0.390 OA
BRANCH   8   9
HETATM    9  C8  UNL     1      15.097  19.308   2.375  1.00  0.00     0.172 C 
BRANCH   9  10
HETATM   10  C9  UNL     1      14.829  18.319   1.252  1.00  0.00     0.009 A 
HETATM   11  C10 UNL     1      15.571  17.037   1.218  1.00  0.00     0.007 A 
HETATM   12  C11 UNL     1      14.135  17.008   1.635  1.00  0.00     0.007 A 
ENDBRANCH   9  10
ENDBRANCH   8   9
ENDBRANCH   7   8
ENDBRANCH   5   7
BRANCH   1  13
HETATM   13  C1  UNL     1      11.884  23.574   6.100  1.00  0.00     0.177 C 
HETATM   14  O1  UNL     1      10.907  24.179   5.614  1.00  0.00    -0.648 OA
HETATM   15  O2  UNL     1      11.977  23.522   7.488  1.00  0.00    -0.648 OA
ENDBRANCH   1  13
TORSDOF 5
ENDMDL
MODEL 3
REMARK VINA RESULT: -6.597802371      1.841      5.765
REMARK  5 active torsions:
REMARK  status: ('A' for Active; 'I' for Inactive)
REMARK    1  A    between atoms: C1_2  and  C2_4 
REMARK    2  A    between atoms: C6_8  and  C7_9 
REMARK    3  A    between atoms: C7_9  and  O3_10 
REMARK    4  A    between atoms: O3_10  and  C8_11 
REMARK    5  A    between atoms: C8_11  and  C9_12 
ROOT
HETATM    1  C2  UNL     1      10.036  16.426   3.677  1.00  0.00     0.096 A 
HETATM    2  C3  UNL     1       9.794  15.015   3.194  1.00  0.00     0.005 A 
HETATM    3  C4  UNL     1       9.608  14.735   1.734  1.00  0.00     0.006 C 
HETATM    4  C5  UNL     1      11.022  14.453   1.277  1.00  0.00     0.007 C 
HETATM    5  C6  UNL     1      11.789  15.579   1.935  1.00  0.00     0.015 C 
HETATM    6  C12 UNL     1      11.210  15.616   3.318  1.00  0.00     0.011 A 
ENDROOT
BRANCH   5   7
HETATM    7  C7  UNL     1      11.592  16.838   1.164  1.00  0.00     0.172 C 
BRANCH   7   8
HETATM    8  O3  UNL     1      12.729  17.188   0.488  1.00  0.00    -0.390 OA
BRANCH   8   9
HETATM    9  C8  UNL     1      13.910  17.091   1.171  1.00  0.00     0.172 C 
BRANCH   9  10
HETATM   10  C9  UNL     1      14.497  18.491   1.240  1.00  0.00     0.009 A 
HETATM   11  C10 UNL     1      14.125  19.383   2.363  1.00  0.00     0.007 A 
HETATM   12  C11 UNL     1      15.490  18.771   2.372  1.00  0.00     0.007 A 
ENDBRANCH   9  10
ENDBRANCH   8   9
ENDBRANCH   7   8
ENDBRANCH   5   7
BRANCH   1  13
HETATM   13  C1  UNL     1       9.795  16.591   5.130  1.00  0.00     0.177 C 
HETATM   14  O1  UNL     1      10.145  17.636   5.715  1.00  0.00    -0.648 OA
HETATM   15  O2  UNL     1       9.176  15.607   5.896  1.00  0.00    -0.648 OA
ENDBRANCH   1  13
TORSDOF 5
ENDMDL
MODEL 4
REMARK VINA RESULT: -6.577233884      6.631      8.323
REMARK  5 active torsions:
REMARK  status: ('A' for Active; 'I' for Inactive)
REMARK    1  A    between atoms: C1_2  and  C2_4 
REMARK    2  A    between atoms: C6_8  and  C7_9 
REMARK    3  A    between atoms: C7_9  and  O3_10 
REMARK    4  A    between atoms: O3_10  and  C8_11 
REMARK    5  A    between atoms: C8_11  and  C9_12 
ROOT
HETATM    1  C2  UNL     1      13.705  21.563   3.026  1.00  0.00     0.096 A 
HETATM    2  C3  UNL     1      14.956  22.364   3.305  1.00  0.00     0.005 A 
HETATM    3  C4  UNL     1      14.917  23.861   3.289  1.00  0.00     0.006 C 
HETATM    4  C5  UNL     1      14.605  24.191   4.731  1.00  0.00     0.007 C 
HETATM    5  C6  UNL     1      13.487  23.217   5.035  1.00  0.00     0.015 C 
HETATM    6  C12 UNL     1      13.978  21.941   4.421  1.00  0.00     0.011 A 
ENDROOT
BRANCH   5   7
HETATM    7  C7  UNL     1      12.212  23.718   4.451  1.00  0.00     0.172 C 
BRANCH   7   8
HETATM    8  O3  UNL     1      11.167  23.543   5.317  1.00  0.00    -0.390 OA
BRANCH   8   9
HETATM    9  C8  UNL     1      10.721  24.652   5.981  1.00  0.00     0.172 C 
BRANCH   9  10
HETATM   10  C9  UNL     1      10.724  25.797   4.981  1.00  0.00     0.009 A 
HETATM   11  C10 UNL     1       9.460  26.183   4.312  1.00  0.00     0.007 A 
HETATM   12  C11 UNL     1       9.987  27.076   5.390  1.00  0.00     0.007 A 
ENDBRANCH   9  10
ENDBRANCH   8   9
ENDBRANCH   7   8
ENDBRANCH   5   7
BRANCH   1  13
HETATM   13  C1  UNL     1      13.987  20.149   2.681  1.00  0.00     0.177 C 
HETATM   14  O1  UNL     1      13.494  19.223   3.357  1.00  0.00    -0.648 OA
HETATM   15  O2  UNL     1      14.798  19.794   1.607  1.00  0.00    -0.648 OA
ENDBRANCH   1  13
TORSDOF 5
ENDMDL
MODEL 5
REMARK VINA RESULT: -6.565787738      5.252      7.969
REMARK  5 active torsions:
REMARK  status: ('A' for Active; 'I' for Inactive)
REMARK    1  A    between atoms: C1_2  and  C2_4 
REMARK    2  A    between atoms: C6_8  and  C7_9 
REMARK    3  A    between atoms: C7_9  and  O3_10 
REMARK    4  A    between atoms: O3_10  and  C8_11 
REMARK    5  A    between atoms: C8_11  and  C9_12 
ROOT
HETATM    1  C2  UNL     1      13.048  22.009   4.824  1.00  0.00     0.096 A 
HETATM    2  C3  UNL     1      13.579  23.405   4.597  1.00  0.00     0.005 A 
HETATM    3  C4  UNL     1      15.033  23.626   4.314  1.00  0.00     0.006 C 
HETATM    4  C5  UNL     1      15.081  23.560   2.804  1.00  0.00     0.007 C 
HETATM    5  C6  UNL     1      14.237  22.337   2.522  1.00  0.00     0.015 C 
HETATM    6  C12 UNL     1      13.068  22.516   3.444  1.00  0.00     0.011 A 
ENDROOT
BRANCH   5   7
HETATM    7  C7  UNL     1      15.033  21.106   2.787  1.00  0.00     0.172 C 
BRANCH   7   8
HETATM    8  O3  UNL     1      15.088  20.303   1.680  1.00  0.00    -0.390 OA
BRANCH   8   9
HETATM    9  C8  UNL     1      14.423  19.110   1.747  1.00  0.00     0.172 C 
BRANCH   9  10
HETATM   10  C9  UNL     1      15.454  18.049   2.099  1.00  0.00     0.009 A 
HETATM   11  C10 UNL     1      15.009  16.662   2.366  1.00  0.00     0.007 A 
HETATM   12  C11 UNL     1      15.691  16.945   1.065  1.00  0.00     0.007 A 
ENDBRANCH   9  10
ENDBRANCH   8   9
ENDBRANCH   7   8
ENDBRANCH   5   7
BRANCH   1  13
HETATM   13  C1  UNL     1      11.718  21.994   5.479  1.00  0.00     0.177 C 
HETATM   14  O1  UNL     1      11.130  20.913   5.692  1.00  0.00    -0.648 OA
HETATM   15  O2  UNL     1      11.075  23.161   5.882  1.00  0.00    -0.648 OA
ENDBRANCH   1  13
TORSDOF 5
ENDMDL
