MODEL 1
REMARK VINA RESULT: -6.146199341      0.000      0.000
REMARK  8 active torsions:
REMARK  status: ('A' for Active; 'I' for Inactive)
REMARK    1  A    between atoms: C3_3  and  N1_4 
REMARK    2  A    between atoms: N1_4  and  C4_6 
REMARK    3  A    between atoms: C6_10  and  C7_11 
REMARK    4  A    between atoms: C8_12  and  C9_13 
REMARK    5  A    between atoms: C12_16  and  N3_17 
REMARK    6  A    between atoms: N3_17  and  C13_19 
REMARK    7  A    between atoms: C13_19  and  C14_20 
REMARK    8  A    between atoms: C14_20  and  N4_21 
ROOT
HETATM    1  C1  UNL     1      36.976   5.898  15.238  1.00  0.00     0.014 C 
HETATM    2  C2  UNL     1      37.656   4.940  14.964  1.00  0.00    -0.097 C 
HETATM    3  C3  UNL     1      38.503   3.788  14.633  1.00  0.00     0.231 C 
ENDROOT
BRANCH   3   4
HETATM    4  N1  UNL     1      38.289   3.392  13.256  1.00  0.00    -0.214 N 
ATOM      5  H1  UNL     1      38.440   4.048  12.489  1.00  0.00     0.178 HD
BRANCH   4   6
HETATM    6  C4  UNL     1      37.896   2.167  13.030  1.00  0.00     0.693 A 
HETATM    7  N2  UNL     1      38.733   1.238  12.552  1.00  0.00    -0.198 N 
HETATM    8  C5  UNL     1      38.325  -0.034  12.318  1.00  0.00     0.146 A 
ATOM      9  H2  UNL     1      39.702   1.492  12.359  1.00  0.00     0.183 HD
HETATM   10  C6  UNL     1      37.009  -0.356  12.584  1.00  0.00     0.118 A 
HETATM   11  N6  UNL     1      36.221   0.603  13.057  1.00  0.00    -0.277 N 
HETATM   12  N7  UNL     1      36.628   1.830  13.280  1.00  0.00    -0.131 N 
ATOM     13  H6  UNL     1      35.248   0.373  13.256  1.00  0.00     0.188 HD
ATOM     14  H7  UNL     1      35.977   2.525  13.644  1.00  0.00     0.205 HD
BRANCH  10  15
HETATM   15  C7  UNL     1      36.475  -1.671  12.371  1.00  0.00    -0.041 C 
HETATM   16  C8  UNL     1      36.002  -2.784  12.182  1.00  0.00    -0.059 C 
BRANCH  16  17
HETATM   17  C9  UNL     1      35.424  -4.076  11.960  1.00  0.00     0.033 A 
HETATM   18  C10 UNL     1      34.729  -4.716  12.964  1.00  0.00     0.026 A 
HETATM   19  C11 UNL     1      34.176  -5.975  12.722  1.00  0.00     0.050 A 
HETATM   20  C12 UNL     1      34.304  -6.604  11.500  1.00  0.00     0.100 A 
HETATM   21  N5  UNL     1      34.989  -5.952  10.543  1.00  0.00    -0.351 N 
HETATM   22  C15 UNL     1      35.535  -4.737  10.742  1.00  0.00     0.110 A 
ATOM     23  H5  UNL     1      35.100  -6.396   9.631  1.00  0.00     0.166 HD
BRANCH  20  24
HETATM   24  N3  UNL     1      33.805  -7.768  11.243  1.00  0.00    -0.375 N 
ATOM     25  H3  UNL     1      32.865  -7.812  10.850  1.00  0.00     0.161 HD
BRANCH  24  26
HETATM   26  C13 UNL     1      34.496  -8.999  11.477  1.00  0.00     0.148 C 
BRANCH  26  27
HETATM   27  C14 UNL     1      33.587  -9.967  12.231  1.00  0.00     0.249 C 
BRANCH  27  28
HETATM   28  N4  UNL     1      33.185  -9.449  13.503  1.00  0.00    -0.078 N 
ATOM     29  H43 UNL     1      33.890  -8.819  13.885  1.00  0.00     0.274 HD
ATOM     30  H42 UNL     1      32.413  -8.788  13.405  1.00  0.00     0.274 HD
ATOM     31  H41 UNL     1      32.955 -10.190  14.165  1.00  0.00     0.274 HD
ENDBRANCH  27  28
ENDBRANCH  26  27
ENDBRANCH  24  26
ENDBRANCH  20  24
ENDBRANCH  16  17
ENDBRANCH  10  15
ENDBRANCH   4   6
ENDBRANCH   3   4
TORSDOF 8
ENDMDL
MODEL 2
REMARK VINA RESULT: -6.075361545      1.451      2.107
REMARK  8 active torsions:
REMARK  status: ('A' for Active; 'I' for Inactive)
REMARK    1  A    between atoms: C3_3  and  N1_4 
REMARK    2  A    between atoms: N1_4  and  C4_6 
REMARK    3  A    between atoms: C6_10  and  C7_11 
REMARK    4  A    between atoms: C8_12  and  C9_13 
REMARK    5  A    between atoms: C12_16  and  N3_17 
REMARK    6  A    between atoms: N3_17  and  C13_19 
REMARK    7  A    between atoms: C13_19  and  C14_20 
REMARK    8  A    between atoms: C14_20  and  N4_21 
ROOT
HETATM    1  C1  UNL     1      37.195   4.991  14.818  1.00  0.00     0.014 C 
HETATM    2  C2  UNL     1      37.125   4.091  14.018  1.00  0.00    -0.097 C 
HETATM    3  C3  UNL     1      37.015   2.993  13.050  1.00  0.00     0.231 C 
ENDROOT
BRANCH   3   4
HETATM    4  N1  UNL     1      37.873   1.894  13.445  1.00  0.00    -0.214 N 
ATOM      5  H1  UNL     1      38.774   2.063  13.894  1.00  0.00     0.178 HD
BRANCH   4   6
HETATM    6  C4  UNL     1      37.454   0.680  13.208  1.00  0.00     0.693 A 
HETATM    7  N2  UNL     1      38.285  -0.369  13.242  1.00  0.00    -0.198 N 
HETATM    8  C5  UNL     1      37.850  -1.630  12.995  1.00  0.00     0.146 A 
ATOM      9  H2  UNL     1      39.270  -0.217  13.459  1.00  0.00     0.183 HD
HETATM   10  C6  UNL     1      36.513  -1.812  12.703  1.00  0.00     0.118 A 
HETATM   11  N6  UNL     1      35.732  -0.738  12.682  1.00  0.00    -0.277 N 
HETATM   12  N7  UNL     1      36.165   0.476  12.923  1.00  0.00    -0.131 N 
ATOM     13  H6  UNL     1      34.743  -0.864  12.466  1.00  0.00     0.188 HD
ATOM     14  H7  UNL     1      35.518   1.264  12.893  1.00  0.00     0.205 HD
BRANCH  10  15
HETATM   15  C7  UNL     1      35.950  -3.103  12.426  1.00  0.00    -0.041 C 
HETATM   16  C8  UNL     1      35.462  -4.204  12.210  1.00  0.00    -0.059 C 
BRANCH  16  17
HETATM   17  C9  UNL     1      34.893  -5.499  11.981  1.00  0.00     0.033 A 
HETATM   18  C10 UNL     1      35.515  -6.402  11.145  1.00  0.00     0.026 A 
HETATM   19  C11 UNL     1      34.939  -7.657  10.940  1.00  0.00     0.050 A 
HETATM   20  C12 UNL     1      33.759  -8.025  11.552  1.00  0.00     0.100 A 
HETATM   21  N5  UNL     1      33.177  -7.121  12.360  1.00  0.00    -0.351 N 
HETATM   22  C15 UNL     1      33.705  -5.902  12.581  1.00  0.00     0.110 A 
ATOM     23  H5  UNL     1      32.303  -7.368  12.823  1.00  0.00     0.166 HD
BRANCH  20  24
HETATM   24  N3  UNL     1      33.199  -9.179  11.383  1.00  0.00    -0.375 N 
ATOM     25  H3  UNL     1      32.200  -9.203  11.180  1.00  0.00     0.161 HD
BRANCH  24  26
HETATM   26  C13 UNL     1      33.900 -10.423  11.464  1.00  0.00     0.148 C 
BRANCH  26  27
HETATM   27  C14 UNL     1      33.505 -11.318  10.292  1.00  0.00     0.249 C 
BRANCH  27  28
HETATM   28  N4  UNL     1      33.921 -10.773   9.035  1.00  0.00    -0.078 N 
ATOM     29  H43 UNL     1      33.622  -9.803   8.936  1.00  0.00     0.274 HD
ATOM     30  H42 UNL     1      34.931 -10.636   9.008  1.00  0.00     0.274 HD
ATOM     31  H41 UNL     1      33.604 -11.340   8.248  1.00  0.00     0.274 HD
ENDBRANCH  27  28
ENDBRANCH  26  27
ENDBRANCH  24  26
ENDBRANCH  20  24
ENDBRANCH  16  17
ENDBRANCH  10  15
ENDBRANCH   4   6
ENDBRANCH   3   4
TORSDOF 8
ENDMDL
MODEL 3
REMARK VINA RESULT: -6.027945271      2.034     10.410
REMARK  8 active torsions:
REMARK  status: ('A' for Active; 'I' for Inactive)
REMARK    1  A    between atoms: C3_3  and  N1_4 
REMARK    2  A    between atoms: N1_4  and  C4_6 
REMARK    3  A    between atoms: C6_10  and  C7_11 
REMARK    4  A    between atoms: C8_12  and  C9_13 
REMARK    5  A    between atoms: C12_16  and  N3_17 
REMARK    6  A    between atoms: N3_17  and  C13_19 
REMARK    7  A    between atoms: C13_19  and  C14_20 
REMARK    8  A    between atoms: C14_20  and  N4_21 
ROOT
HETATM    1  C1  UNL     1      36.220  -7.325   8.081  1.00  0.00     0.014 C 
HETATM    2  C2  UNL     1      36.025  -7.209   9.266  1.00  0.00    -0.097 C 
HETATM    3  C3  UNL     1      35.780  -7.092  10.708  1.00  0.00     0.231 C 
ENDROOT
BRANCH   3   4
HETATM    4  N1  UNL     1      34.744  -6.109  10.959  1.00  0.00    -0.214 N 
ATOM      5  H1  UNL     1      33.758  -6.341  10.843  1.00  0.00     0.178 HD
BRANCH   4   6
HETATM    6  C4  UNL     1      35.118  -4.916  11.337  1.00  0.00     0.693 A 
HETATM    7  N2  UNL     1      35.140  -4.563  12.629  1.00  0.00    -0.198 N 
HETATM    8  C5  UNL     1      35.529  -3.325  13.021  1.00  0.00     0.146 A 
ATOM      9  H2  UNL     1      34.859  -5.243  13.335  1.00  0.00     0.183 HD
HETATM   10  C6  UNL     1      35.905  -2.420  12.049  1.00  0.00     0.118 A 
HETATM   11  N6  UNL     1      35.864  -2.821  10.782  1.00  0.00    -0.277 N 
HETATM   12  N7  UNL     1      35.487  -4.022  10.415  1.00  0.00    -0.131 N 
ATOM     13  H6  UNL     1      36.140  -2.159  10.058  1.00  0.00     0.188 HD
ATOM     14  H7  UNL     1      35.476  -4.274   9.427  1.00  0.00     0.205 HD
BRANCH  10  15
HETATM   15  C7  UNL     1      36.331  -1.085  12.355  1.00  0.00    -0.041 C 
HETATM   16  C8  UNL     1      36.689   0.051  12.636  1.00  0.00    -0.059 C 
BRANCH  16  17
HETATM   17  C9  UNL     1      37.092   1.381  12.985  1.00  0.00     0.033 A 
HETATM   18  C10 UNL     1      38.420   1.747  12.939  1.00  0.00     0.026 A 
HETATM   19  C11 UNL     1      38.786   3.049  13.285  1.00  0.00     0.050 A 
HETATM   20  C12 UNL     1      37.853   3.989  13.673  1.00  0.00     0.100 A 
HETATM   21  N5  UNL     1      36.566   3.599  13.708  1.00  0.00    -0.351 N 
HETATM   22  C15 UNL     1      36.178   2.351  13.382  1.00  0.00     0.110 A 
ATOM     23  H5  UNL     1      35.857   4.274  13.993  1.00  0.00     0.166 HD
BRANCH  20  24
HETATM   24  N3  UNL     1      38.158   5.202  14.000  1.00  0.00    -0.375 N 
ATOM     25  H3  UNL     1      38.923   5.656  13.501  1.00  0.00     0.161 HD
BRANCH  24  26
HETATM   26  C13 UNL     1      37.485   5.945  15.020  1.00  0.00     0.148 C 
BRANCH  26  27
HETATM   27  C14 UNL     1      37.062   7.308  14.476  1.00  0.00     0.249 C 
BRANCH  27  28
HETATM   28  N4  UNL     1      35.836   7.238  13.741  1.00  0.00    -0.078 N 
ATOM     29  H43 UNL     1      35.409   6.315  13.821  1.00  0.00     0.274 HD
ATOM     30  H42 UNL     1      35.106   7.793  14.187  1.00  0.00     0.274 HD
ATOM     31  H41 UNL     1      35.959   7.504  12.763  1.00  0.00     0.274 HD
ENDBRANCH  27  28
ENDBRANCH  26  27
ENDBRANCH  24  26
ENDBRANCH  20  24
ENDBRANCH  16  17
ENDBRANCH  10  15
ENDBRANCH   4   6
ENDBRANCH   3   4
TORSDOF 8
ENDMDL
MODEL 4
REMARK VINA RESULT: -6.009559589      2.246     10.937
REMARK  8 active torsions:
REMARK  status: ('A' for Active; 'I' for Inactive)
REMARK    1  A    between atoms: C3_3  and  N1_4 
REMARK    2  A    between atoms: N1_4  and  C4_6 
REMARK    3  A    between atoms: C6_10  and  C7_11 
REMARK    4  A    between atoms: C8_12  and  C9_13 
REMARK    5  A    between atoms: C12_16  and  N3_17 
REMARK    6  A    between atoms: N3_17  and  C13_19 
REMARK    7  A    between atoms: C13_19  and  C14_20 
REMARK    8  A    between atoms: C14_20  and  N4_21 
ROOT
HETATM    1  C1  UNL     1      33.977 -11.627   7.075  1.00  0.00     0.014 C 
HETATM    2  C2  UNL     1      33.304 -11.762   8.066  1.00  0.00    -0.097 C 
HETATM    3  C3  UNL     1      32.471 -11.906   9.267  1.00  0.00     0.231 C 
ENDROOT
BRANCH   3   4
HETATM    4  N1  UNL     1      33.270 -11.687  10.456  1.00  0.00    -0.214 N 
ATOM      5  H1  UNL     1      33.509 -12.458  11.080  1.00  0.00     0.178 HD
BRANCH   4   6
HETATM    6  C4  UNL     1      33.675 -10.470  10.701  1.00  0.00     0.693 A 
HETATM    7  N2  UNL     1      34.935 -10.087  10.463  1.00  0.00    -0.198 N 
HETATM    8  C5  UNL     1      35.355  -8.822  10.717  1.00  0.00     0.146 A 
ATOM      9  H2  UNL     1      35.597 -10.763  10.081  1.00  0.00     0.183 HD
HETATM   10  C6  UNL     1      34.443  -7.925  11.235  1.00  0.00     0.118 A 
HETATM   11  N6  UNL     1      33.205  -8.356  11.453  1.00  0.00    -0.277 N 
HETATM   12  N7  UNL     1      32.812  -9.582  11.202  1.00  0.00    -0.131 N 
ATOM     13  H6  UNL     1      32.526  -7.699  11.835  1.00  0.00     0.188 HD
ATOM     14  H7  UNL     1      31.847  -9.856  11.389  1.00  0.00     0.205 HD
BRANCH  10  15
HETATM   15  C7  UNL     1      34.782  -6.564  11.540  1.00  0.00    -0.041 C 
HETATM   16  C8  UNL     1      35.085  -5.404  11.785  1.00  0.00    -0.059 C 
BRANCH  16  17
HETATM   17  C9  UNL     1      35.462  -4.049  12.059  1.00  0.00     0.033 A 
HETATM   18  C10 UNL     1      35.417  -3.094  11.066  1.00  0.00     0.026 A 
HETATM   19  C11 UNL     1      35.790  -1.781  11.360  1.00  0.00     0.050 A 
HETATM   20  C12 UNL     1      36.204  -1.406  12.622  1.00  0.00     0.100 A 
HETATM   21  N5  UNL     1      36.237  -2.363  13.567  1.00  0.00    -0.351 N 
HETATM   22  C15 UNL     1      35.885  -3.639  13.319  1.00  0.00     0.110 A 
ATOM     23  H5  UNL     1      36.541  -2.113  14.508  1.00  0.00     0.166 HD
BRANCH  20  24
HETATM   24  N3  UNL     1      36.556  -0.200  12.927  1.00  0.00    -0.375 N 
ATOM     25  H3  UNL     1      35.934   0.345  13.525  1.00  0.00     0.161 HD
BRANCH  24  26
HETATM   26  C13 UNL     1      37.766   0.415  12.475  1.00  0.00     0.148 C 
BRANCH  26  27
HETATM   27  C14 UNL     1      37.890   1.815  13.072  1.00  0.00     0.249 C 
BRANCH  27  28
HETATM   28  N4  UNL     1      36.613   2.412  13.316  1.00  0.00    -0.078 N 
ATOM     29  H43 UNL     1      36.504   3.280  12.791  1.00  0.00     0.274 HD
ATOM     30  H42 UNL     1      35.863   1.869  12.887  1.00  0.00     0.274 HD
ATOM     31  H41 UNL     1      36.441   2.558  14.311  1.00  0.00     0.274 HD
ENDBRANCH  27  28
ENDBRANCH  26  27
ENDBRANCH  24  26
ENDBRANCH  20  24
ENDBRANCH  16  17
ENDBRANCH  10  15
ENDBRANCH   4   6
ENDBRANCH   3   4
TORSDOF 8
ENDMDL
MODEL 5
REMARK VINA RESULT: -6.005391115      1.172      1.421
REMARK  8 active torsions:
REMARK  status: ('A' for Active; 'I' for Inactive)
REMARK    1  A    between atoms: C3_3  and  N1_4 
REMARK    2  A    between atoms: N1_4  and  C4_6 
REMARK    3  A    between atoms: C6_10  and  C7_11 
REMARK    4  A    between atoms: C8_12  and  C9_13 
REMARK    5  A    between atoms: C12_16  and  N3_17 
REMARK    6  A    between atoms: N3_17  and  C13_19 
REMARK    7  A    between atoms: C13_19  and  C14_20 
REMARK    8  A    between atoms: C14_20  and  N4_21 
ROOT
HETATM    1  C1  UNL     1      40.015   5.278  11.080  1.00  0.00     0.014 C 
HETATM    2  C2  UNL     1      39.853   4.529  12.012  1.00  0.00    -0.097 C 
HETATM    3  C3  UNL     1      39.668   3.601  13.134  1.00  0.00     0.231 C 
ENDROOT
BRANCH   3   4
HETATM    4  N1  UNL     1      38.260   3.301  13.304  1.00  0.00    -0.214 N 
ATOM      5  H1  UNL     1      37.598   4.022  13.593  1.00  0.00     0.178 HD
BRANCH   4   6
HETATM    6  C4  UNL     1      37.868   2.076  13.076  1.00  0.00     0.693 A 
HETATM    7  N2  UNL     1      38.718   1.135  12.645  1.00  0.00    -0.198 N 
HETATM    8  C5  UNL     1      38.310  -0.136  12.408  1.00  0.00     0.146 A 
ATOM      9  H2  UNL     1      39.695   1.381  12.490  1.00  0.00     0.183 HD
HETATM   10  C6  UNL     1      36.982  -0.446  12.623  1.00  0.00     0.118 A 
HETATM   11  N6  UNL     1      36.182   0.524  13.050  1.00  0.00    -0.277 N 
HETATM   12  N7  UNL     1      36.588   1.751  13.276  1.00  0.00    -0.131 N 
ATOM     13  H6  UNL     1      35.199   0.304  13.211  1.00  0.00     0.188 HD
ATOM     14  H7  UNL     1      35.927   2.455  13.605  1.00  0.00     0.205 HD
BRANCH  10  15
HETATM   15  C7  UNL     1      36.447  -1.759  12.403  1.00  0.00    -0.041 C 
HETATM   16  C8  UNL     1      35.977  -2.871  12.203  1.00  0.00    -0.059 C 
BRANCH  16  17
HETATM   17  C9  UNL     1      35.403  -4.162  11.963  1.00  0.00     0.033 A 
HETATM   18  C10 UNL     1      34.696  -4.811  12.953  1.00  0.00     0.026 A 
HETATM   19  C11 UNL     1      34.147  -6.068  12.693  1.00  0.00     0.050 A 
HETATM   20  C12 UNL     1      34.291  -6.686  11.467  1.00  0.00     0.100 A 
HETATM   21  N5  UNL     1      34.987  -6.026  10.524  1.00  0.00    -0.351 N 
HETATM   22  C15 UNL     1      35.530  -4.813  10.740  1.00  0.00     0.110 A 
ATOM     23  H5  UNL     1      35.109  -6.462   9.610  1.00  0.00     0.166 HD
BRANCH  20  24
HETATM   24  N3  UNL     1      33.796  -7.849  11.194  1.00  0.00    -0.375 N 
ATOM     25  H3  UNL     1      32.860  -7.890  10.790  1.00  0.00     0.161 HD
BRANCH  24  26
HETATM   26  C13 UNL     1      34.485  -9.082  11.425  1.00  0.00     0.148 C 
BRANCH  26  27
HETATM   27  C14 UNL     1      33.576 -10.050  12.178  1.00  0.00     0.249 C 
BRANCH  27  28
HETATM   28  N4  UNL     1      33.178  -9.534  13.452  1.00  0.00    -0.078 N 
ATOM     29  H43 UNL     1      33.924  -9.632  14.140  1.00  0.00     0.274 HD
ATOM     30  H42 UNL     1      33.107  -8.517  13.433  1.00  0.00     0.274 HD
ATOM     31  H41 UNL     1      32.311  -9.959  13.784  1.00  0.00     0.274 HD
ENDBRANCH  27  28
ENDBRANCH  26  27
ENDBRANCH  24  26
ENDBRANCH  20  24
ENDBRANCH  16  17
ENDBRANCH  10  15
ENDBRANCH   4   6
ENDBRANCH   3   4
TORSDOF 8
ENDMDL
