MODEL 1
REMARK VINA RESULT: -5.857602421      0.000      0.000
REMARK  8 active torsions:
REMARK  status: ('A' for Active; 'I' for Inactive)
REMARK    1  A    between atoms: C3_3  and  C4_4 
REMARK    2  A    between atoms: C4_4  and  C5_5 
REMARK    3  A    between atoms: N2_12  and  O1_13 
REMARK    4  A    between atoms: C10_15  and  N3_16 
REMARK    5  A    between atoms: N3_16  and  C11_18 
REMARK    6  A    between atoms: C11_18  and  C12_19 
REMARK    7  A    between atoms: C14_23  and  N5_24 
REMARK    8  A    between atoms: N6_27  and  O2_28 
ROOT
HETATM    1  C1  UNL     1      38.948  -2.870  13.783  1.00  0.00     0.012 C 
HETATM    2  C2  UNL     1      38.349  -3.903  13.963  1.00  0.00    -0.114 C 
HETATM    3  C3  UNL     1      37.585  -5.174  14.175  1.00  0.00     0.121 C 
ENDROOT
BRANCH   3   4
HETATM    4  C4  UNL     1      36.245  -5.036  13.589  1.00  0.00     0.001 C 
BRANCH   4   5
HETATM    5  C5  UNL     1      35.982  -4.777  12.331  1.00  0.00     0.021 A 
HETATM    6  C6  UNL     1      35.669  -3.599  11.695  1.00  0.00     0.036 A 
HETATM    7  C7  UNL     1      35.544  -2.397  12.207  1.00  0.00     0.044 C 
HETATM    8  N1  UNL     1      35.496  -3.870  10.358  1.00  0.00    -0.338 N 
HETATM    9  C8  UNL     1      35.684  -5.159  10.130  1.00  0.00     0.183 A 
ATOM     10  H1  UNL     1      35.257  -3.179   9.646  1.00  0.00     0.167 HD
HETATM   11  C9  UNL     1      35.990  -5.775  11.337  1.00  0.00     0.140 A 
HETATM   12  N6  UNL     1      35.609  -5.762   8.908  1.00  0.00    -0.033 N 
HETATM   13  N2  UNL     1      36.221  -7.086  11.559  1.00  0.00    -0.048 N 
HETATM   14  C10 UNL     1      36.865  -7.916  10.709  1.00  0.00     0.719 C 
HETATM   15  N4  UNL     1      36.923  -7.775   9.370  1.00  0.00    -0.018 N 
HETATM   16  C14 UNL     1      36.229  -6.916   8.569  1.00  0.00     0.718 C 
ATOM     17  H4  UNL     1      37.574  -8.396   8.890  1.00  0.00     0.203 HD
BRANCH  13  18
HETATM   18  O1  UNL     1      35.727  -7.583  12.731  1.00  0.00    -0.269 OA
ATOM     19  H1  UNL     1      36.108  -7.223  13.524  1.00  0.00     0.245 HD
ENDBRANCH  13  18
BRANCH  14  20
HETATM   20  N3  UNL     1      37.444  -8.904  11.279  1.00  0.00    -0.223 N 
ATOM     21  H3  UNL     1      36.858  -9.654  11.648  1.00  0.00     0.177 HD
BRANCH  20  22
HETATM   22  C11 UNL     1      38.860  -9.022  11.431  1.00  0.00     0.138 C 
BRANCH  22  23
HETATM   23  C12 UNL     1      39.268  -8.281  12.694  1.00  0.00     0.016 C 
HETATM   24  C13 UNL     1      40.143  -7.123  12.241  1.00  0.00     0.006 C 
ENDBRANCH  22  23
ENDBRANCH  20  22
ENDBRANCH  14  20
BRANCH  16  25
HETATM   25  N5  UNL     1      36.143  -7.230   7.323  1.00  0.00    -0.232 N 
ATOM     26  H52 UNL     1      36.483  -8.164   7.092  1.00  0.00     0.174 HD
ATOM     27  H51 UNL     1      35.750  -6.525   6.699  1.00  0.00     0.174 HD
ENDBRANCH  16  25
BRANCH  12  28
HETATM   28  O2  UNL     1      34.840  -5.106   7.994  1.00  0.00    -0.268 OA
ATOM     29  H2  UNL     1      34.009  -4.789   8.328  1.00  0.00     0.246 HD
ENDBRANCH  12  28
ENDBRANCH   4   5
ENDBRANCH   3   4
TORSDOF 8
ENDMDL
MODEL 2
REMARK VINA RESULT: -5.652833095      1.523      1.866
REMARK  8 active torsions:
REMARK  status: ('A' for Active; 'I' for Inactive)
REMARK    1  A    between atoms: C3_3  and  C4_4 
REMARK    2  A    between atoms: C4_4  and  C5_5 
REMARK    3  A    between atoms: N2_12  and  O1_13 
REMARK    4  A    between atoms: C10_15  and  N3_16 
REMARK    5  A    between atoms: N3_16  and  C11_18 
REMARK    6  A    between atoms: C11_18  and  C12_19 
REMARK    7  A    between atoms: C14_23  and  N5_24 
REMARK    8  A    between atoms: N6_27  and  O2_28 
ROOT
HETATM    1  C1  UNL     1      38.240  -5.513  13.479  1.00  0.00     0.012 C 
HETATM    2  C2  UNL     1      37.111  -5.732  13.846  1.00  0.00    -0.114 C 
HETATM    3  C3  UNL     1      35.701  -5.992  14.279  1.00  0.00     0.121 C 
ENDROOT
BRANCH   3   4
HETATM    4  C4  UNL     1      34.778  -5.479  13.257  1.00  0.00     0.001 C 
BRANCH   4   5
HETATM    5  C5  UNL     1      35.084  -5.221  12.009  1.00  0.00     0.021 A 
HETATM    6  C6  UNL     1      35.412  -4.042  11.382  1.00  0.00     0.036 A 
HETATM    7  C7  UNL     1      35.497  -2.836  11.893  1.00  0.00     0.044 C 
HETATM    8  N1  UNL     1      35.659  -4.318  10.058  1.00  0.00    -0.338 N 
HETATM    9  C8  UNL     1      35.499  -5.610   9.828  1.00  0.00     0.183 A 
ATOM     10  H1  UNL     1      35.925  -3.627   9.356  1.00  0.00     0.167 HD
HETATM   11  C9  UNL     1      35.136  -6.223  11.021  1.00  0.00     0.140 A 
HETATM   12  N6  UNL     1      35.685  -6.225   8.624  1.00  0.00    -0.033 N 
HETATM   13  N2  UNL     1      34.845  -7.525  11.224  1.00  0.00    -0.048 N 
HETATM   14  C10 UNL     1      35.455  -8.563  10.611  1.00  0.00     0.719 C 
HETATM   15  N4  UNL     1      36.035  -8.523   9.394  1.00  0.00    -0.018 N 
HETATM   16  C14 UNL     1      35.988  -7.533   8.456  1.00  0.00     0.718 C 
ATOM     17  H4  UNL     1      36.584  -9.344   9.141  1.00  0.00     0.203 HD
BRANCH  13  18
HETATM   18  O1  UNL     1      33.830  -7.774  12.104  1.00  0.00    -0.269 OA
ATOM     19  H1  UNL     1      33.968  -7.460  12.990  1.00  0.00     0.245 HD
ENDBRANCH  13  18
BRANCH  14  20
HETATM   20  N3  UNL     1      35.445  -9.650  11.284  1.00  0.00    -0.223 N 
ATOM     21  H3  UNL     1      34.543 -10.092  11.464  1.00  0.00     0.177 HD
BRANCH  20  22
HETATM   22  C11 UNL     1      36.618 -10.283  11.799  1.00  0.00     0.138 C 
BRANCH  22  23
HETATM   23  C12 UNL     1      37.172  -9.421  12.921  1.00  0.00     0.016 C 
HETATM   24  C13 UNL     1      36.259  -9.643  14.116  1.00  0.00     0.006 C 
ENDBRANCH  22  23
ENDBRANCH  20  22
ENDBRANCH  14  20
BRANCH  16  25
HETATM   25  N5  UNL     1      36.264  -7.873   7.245  1.00  0.00    -0.232 N 
ATOM     26  H52 UNL     1      36.591  -8.833   7.133  1.00  0.00     0.174 HD
ATOM     27  H51 UNL     1      36.132  -7.159   6.528  1.00  0.00     0.174 HD
ENDBRANCH  16  25
BRANCH  12  28
HETATM   28  O2  UNL     1      35.549  -5.411   7.540  1.00  0.00    -0.268 OA
ATOM     29  H2  UNL     1      35.607  -5.852   6.701  1.00  0.00     0.246 HD
ENDBRANCH  12  28
ENDBRANCH   4   5
ENDBRANCH   3   4
TORSDOF 8
ENDMDL
MODEL 3
REMARK VINA RESULT: -5.647750108      1.956      4.416
REMARK  8 active torsions:
REMARK  status: ('A' for Active; 'I' for Inactive)
REMARK    1  A    between atoms: C3_3  and  C4_4 
REMARK    2  A    between atoms: C4_4  and  C5_5 
REMARK    3  A    between atoms: N2_12  and  O1_13 
REMARK    4  A    between atoms: C10_15  and  N3_16 
REMARK    5  A    between atoms: N3_16  and  C11_18 
REMARK    6  A    between atoms: C11_18  and  C12_19 
REMARK    7  A    between atoms: C14_23  and  N5_24 
REMARK    8  A    between atoms: N6_27  and  O2_28 
ROOT
HETATM    1  C1  UNL     1      41.142  -7.134  11.934  1.00  0.00     0.012 C 
HETATM    2  C2  UNL     1      40.021  -7.578  11.980  1.00  0.00    -0.114 C 
HETATM    3  C3  UNL     1      38.624  -8.114  12.058  1.00  0.00     0.121 C 
ENDROOT
BRANCH   3   4
HETATM    4  C4  UNL     1      37.921  -7.469  13.177  1.00  0.00     0.001 C 
BRANCH   4   5
HETATM    5  C5  UNL     1      37.787  -6.178  13.355  1.00  0.00     0.021 A 
HETATM    6  C6  UNL     1      38.452  -5.304  14.182  1.00  0.00     0.036 A 
HETATM    7  C7  UNL     1      39.417  -5.554  15.035  1.00  0.00     0.044 C 
HETATM    8  N1  UNL     1      37.934  -4.046  13.976  1.00  0.00    -0.338 N 
HETATM    9  C8  UNL     1      36.979  -4.094  13.064  1.00  0.00     0.183 A 
ATOM     10  H1  UNL     1      38.242  -3.201  14.457  1.00  0.00     0.167 HD
HETATM   11  C9  UNL     1      36.845  -5.411  12.642  1.00  0.00     0.140 A 
HETATM   12  N6  UNL     1      36.270  -3.020  12.608  1.00  0.00    -0.033 N 
HETATM   13  N2  UNL     1      35.964  -5.904  11.746  1.00  0.00    -0.048 N 
HETATM   14  C10 UNL     1      35.548  -5.264  10.631  1.00  0.00     0.719 C 
HETATM   15  N4  UNL     1      35.494  -3.927  10.471  1.00  0.00    -0.018 N 
HETATM   16  C14 UNL     1      35.658  -2.945  11.404  1.00  0.00     0.718 C 
ATOM     17  H4  UNL     1      35.304  -3.605   9.522  1.00  0.00     0.203 HD
BRANCH  13  18
HETATM   18  O1  UNL     1      35.455  -7.138  12.036  1.00  0.00    -0.269 OA
ATOM     19  H1  UNL     1      34.619  -7.343  11.635  1.00  0.00     0.245 HD
ENDBRANCH  13  18
BRANCH  14  20
HETATM   20  N3  UNL     1      35.180  -6.043   9.686  1.00  0.00    -0.223 N 
ATOM     21  H3  UNL     1      34.552  -6.813   9.918  1.00  0.00     0.177 HD
BRANCH  20  22
HETATM   22  C11 UNL     1      35.593  -5.899   8.325  1.00  0.00     0.138 C 
BRANCH  22  23
HETATM   23  C12 UNL     1      36.467  -7.089   7.964  1.00  0.00     0.016 C 
HETATM   24  C13 UNL     1      35.932  -8.265   8.766  1.00  0.00     0.006 C 
ENDBRANCH  22  23
ENDBRANCH  20  22
ENDBRANCH  14  20
BRANCH  16  25
HETATM   25  N5  UNL     1      35.170  -1.788  11.116  1.00  0.00    -0.232 N 
ATOM     26  H52 UNL     1      34.493  -1.787  10.353  1.00  0.00     0.174 HD
ATOM     27  H51 UNL     1      35.504  -1.000  11.671  1.00  0.00     0.174 HD
ENDBRANCH  16  25
BRANCH  12  28
HETATM   28  O2  UNL     1      36.211  -1.968  13.471  1.00  0.00    -0.268 OA
ATOM     29  H2  UNL     1      36.818  -1.262  13.281  1.00  0.00     0.246 HD
ENDBRANCH  12  28
ENDBRANCH   4   5
ENDBRANCH   3   4
TORSDOF 8
ENDMDL
MODEL 4
REMARK VINA RESULT: -5.640214902      1.624      2.111
REMARK  8 active torsions:
REMARK  status: ('A' for Active; 'I' for Inactive)
REMARK    1  A    between atoms: C3_3  and  C4_4 
REMARK    2  A    between atoms: C4_4  and  C5_5 
REMARK    3  A    between atoms: N2_12  and  O1_13 
REMARK    4  A    between atoms: C10_15  and  N3_16 
REMARK    5  A    between atoms: N3_16  and  C11_18 
REMARK    6  A    between atoms: C11_18  and  C12_19 
REMARK    7  A    between atoms: C14_23  and  N5_24 
REMARK    8  A    between atoms: N6_27  and  O2_28 
ROOT
HETATM    1  C1  UNL     1      39.047  -1.307  12.610  1.00  0.00     0.012 C 
HETATM    2  C2  UNL     1      38.393  -1.917  13.421  1.00  0.00    -0.114 C 
HETATM    3  C3  UNL     1      37.561  -2.673  14.411  1.00  0.00     0.121 C 
ENDROOT
BRANCH   3   4
HETATM    4  C4  UNL     1      36.239  -2.939  13.828  1.00  0.00     0.001 C 
BRANCH   4   5
HETATM    5  C5  UNL     1      36.011  -3.388  12.618  1.00  0.00     0.021 A 
HETATM    6  C6  UNL     1      35.640  -2.736  11.465  1.00  0.00     0.036 A 
HETATM    7  C7  UNL     1      35.407  -1.458  11.283  1.00  0.00     0.044 C 
HETATM    8  N1  UNL     1      35.545  -3.671  10.460  1.00  0.00    -0.338 N 
HETATM    9  C8  UNL     1      35.836  -4.871  10.930  1.00  0.00     0.183 A 
ATOM     10  H1  UNL     1      35.287  -3.467   9.494  1.00  0.00     0.167 HD
HETATM   11  C9  UNL     1      36.134  -4.750  12.281  1.00  0.00     0.140 A 
HETATM   12  N6  UNL     1      35.857  -6.021  10.195  1.00  0.00    -0.033 N 
HETATM   13  N2  UNL     1      36.451  -5.735  13.148  1.00  0.00    -0.048 N 
HETATM   14  C10 UNL     1      37.190  -6.826  12.849  1.00  0.00     0.719 C 
HETATM   15  N4  UNL     1      37.294  -7.390  11.629  1.00  0.00    -0.018 N 
HETATM   16  C14 UNL     1      36.574  -7.128  10.500  1.00  0.00     0.718 C 
ATOM     17  H4  UNL     1      38.008  -8.112  11.537  1.00  0.00     0.203 HD
BRANCH  13  18
HETATM   18  O1  UNL     1      35.946  -5.598  14.410  1.00  0.00    -0.269 OA
ATOM     19  H1  UNL     1      36.566  -5.320  15.074  1.00  0.00     0.245 HD
ENDBRANCH  13  18
BRANCH  14  20
HETATM   20  N3  UNL     1      37.814  -7.326  13.846  1.00  0.00    -0.223 N 
ATOM     21  H3  UNL     1      37.270  -7.831  14.547  1.00  0.00     0.177 HD
BRANCH  20  22
HETATM   22  C11 UNL     1      39.227  -7.223  14.039  1.00  0.00     0.138 C 
BRANCH  22  23
HETATM   23  C12 UNL     1      39.519  -5.904  14.733  1.00  0.00     0.016 C 
HETATM   24  C13 UNL     1      40.373  -5.097  13.768  1.00  0.00     0.006 C 
ENDBRANCH  22  23
ENDBRANCH  20  22
ENDBRANCH  14  20
BRANCH  16  25
HETATM   25  N5  UNL     1      36.564  -8.044   9.595  1.00  0.00    -0.232 N 
ATOM     26  H52 UNL     1      35.897  -8.799   9.757  1.00  0.00     0.174 HD
ATOM     27  H51 UNL     1      37.215  -7.928   8.818  1.00  0.00     0.174 HD
ENDBRANCH  16  25
BRANCH  12  28
HETATM   28  O2  UNL     1      35.082  -5.997   9.075  1.00  0.00    -0.268 OA
ATOM     29  H2  UNL     1      35.408  -6.522   8.354  1.00  0.00     0.246 HD
ENDBRANCH  12  28
ENDBRANCH   4   5
ENDBRANCH   3   4
TORSDOF 8
ENDMDL
MODEL 5
REMARK VINA RESULT: -5.490234566      2.133      6.179
REMARK  8 active torsions:
REMARK  status: ('A' for Active; 'I' for Inactive)
REMARK    1  A    between atoms: C3_3  and  C4_4 
REMARK    2  A    between atoms: C4_4  and  C5_5 
REMARK    3  A    between atoms: N2_12  and  O1_13 
REMARK    4  A    between atoms: C10_15  and  N3_16 
REMARK    5  A    between atoms: N3_16  and  C11_18 
REMARK    6  A    between atoms: C11_18  and  C12_19 
REMARK    7  A    between atoms: C14_23  and  N5_24 
REMARK    8  A    between atoms: N6_27  and  O2_28 
ROOT
HETATM    1  C1  UNL     1      35.871 -10.008   7.057  1.00  0.00     0.012 C 
HETATM    2  C2  UNL     1      36.164  -8.909   7.463  1.00  0.00    -0.114 C 
HETATM    3  C3  UNL     1      36.516  -7.552   7.989  1.00  0.00     0.121 C 
ENDROOT
BRANCH   3   4
HETATM    4  C4  UNL     1      36.033  -7.430   9.372  1.00  0.00     0.001 C 
BRANCH   4   5
HETATM    5  C5  UNL     1      36.782  -7.433  10.448  1.00  0.00     0.021 A 
HETATM    6  C6  UNL     1      37.846  -8.225  10.808  1.00  0.00     0.036 A 
HETATM    7  C7  UNL     1      38.395  -9.215  10.145  1.00  0.00     0.044 C 
HETATM    8  N1  UNL     1      38.290  -7.806  12.042  1.00  0.00    -0.338 N 
HETATM    9  C8  UNL     1      37.553  -6.795  12.467  1.00  0.00     0.183 A 
ATOM     10  H1  UNL     1      39.072  -8.216  12.552  1.00  0.00     0.167 HD
HETATM   11  C9  UNL     1      36.590  -6.521  11.504  1.00  0.00     0.140 A 
HETATM   12  N6  UNL     1      37.735  -6.128  13.644  1.00  0.00    -0.033 N 
HETATM   13  N2  UNL     1      35.615  -5.589  11.554  1.00  0.00    -0.048 N 
HETATM   14  C10 UNL     1      35.740  -4.362  12.106  1.00  0.00     0.719 C 
HETATM   15  N4  UNL     1      36.583  -4.036  13.106  1.00  0.00    -0.018 N 
HETATM   16  C14 UNL     1      37.341  -4.857  13.889  1.00  0.00     0.718 C 
ATOM     17  H4  UNL     1      36.666  -3.039  13.304  1.00  0.00     0.203 HD
BRANCH  13  18
HETATM   18  O1  UNL     1      34.414  -5.960  11.019  1.00  0.00    -0.269 OA
ATOM     19  H1  UNL     1      34.448  -6.318  10.139  1.00  0.00     0.245 HD
ENDBRANCH  13  18
BRANCH  14  20
HETATM   20  N3  UNL     1      34.963  -3.480  11.604  1.00  0.00    -0.223 N 
ATOM     21  H3  UNL     1      33.957  -3.639  11.661  1.00  0.00     0.177 HD
BRANCH  20  22
HETATM   22  C11 UNL     1      35.418  -2.283  10.968  1.00  0.00     0.138 C 
BRANCH  22  23
HETATM   23  C12 UNL     1      35.404  -1.162  11.994  1.00  0.00     0.016 C 
HETATM   24  C13 UNL     1      36.790  -0.537  11.957  1.00  0.00     0.006 C 
ENDBRANCH  22  23
ENDBRANCH  20  22
ENDBRANCH  14  20
BRANCH  16  25
HETATM   25  N5  UNL     1      37.742  -4.374  15.014  1.00  0.00    -0.232 N 
ATOM     26  H52 UNL     1      37.163  -3.621  15.386  1.00  0.00     0.174 HD
ATOM     27  H51 UNL     1      38.585  -4.785  15.414  1.00  0.00     0.174 HD
ENDBRANCH  16  25
BRANCH  12  28
HETATM   28  O2  UNL     1      38.373  -6.844  14.613  1.00  0.00    -0.268 OA
ATOM     29  H2  UNL     1      37.910  -6.893  15.441  1.00  0.00     0.246 HD
ENDBRANCH  12  28
ENDBRANCH   4   5
ENDBRANCH   3   4
TORSDOF 8
ENDMDL
