MODEL 1
REMARK VINA RESULT: -6.826507490      0.000      0.000
REMARK  4 active torsions:
REMARK  status: ('A' for Active; 'I' for Inactive)
REMARK    1  A    between atoms: O1_2  and  C2_3 
REMARK    2  A    between atoms: C2_3  and  C3_5 
REMARK    3  A    between atoms: C6_10  and  C7_11 
REMARK    4  A    between atoms: C7_11  and  O3_12 
ROOT
HETATM    1  C3  UNL     1      -5.052   2.659  13.751  1.00  0.00     0.201 C 
HETATM    2  C4  UNL     1      -5.339   2.019  12.442  1.00  0.00     0.086 C 
HETATM    3  N1  UNL     1      -5.547   1.510  11.425  1.00  0.00    -0.196 NA
HETATM    4  C5  UNL     1      -6.320   3.447  14.080  1.00  0.00     0.212 C 
HETATM    5  F1  UNL     1      -6.485   3.645  15.411  1.00  0.00    -0.246 F 
HETATM    6  C6  UNL     1      -6.090   4.689  13.282  1.00  0.00     0.056 C 
HETATM    7  C8  UNL     1      -4.685   5.059  13.594  1.00  0.00    -0.003 C 
HETATM    8  C9  UNL     1      -4.104   5.991  12.552  1.00  0.00     0.018 C 
HETATM    9  C10 UNL     1      -4.458   5.647  14.943  1.00  0.00     0.018 C 
HETATM   10  C11 UNL     1      -3.980   3.698  13.536  1.00  0.00     0.177 C 
HETATM   11  C12 UNL     1      -2.900   3.636  14.513  1.00  0.00     0.087 C 
HETATM   12  N2  UNL     1      -2.040   3.603  15.269  1.00  0.00    -0.195 NA
HETATM   13  C13 UNL     1      -3.429   3.571  12.175  1.00  0.00     0.087 C 
HETATM   14  N3  UNL     1      -2.992   3.459  11.109  1.00  0.00    -0.195 NA
ENDROOT
BRANCH   1  15
HETATM   15  C2  UNL     1      -4.733   1.673  14.771  1.00  0.00     0.287 C 
HETATM   16  O2  UNL     1      -4.128   0.621  14.464  1.00  0.00    -0.263 OA
BRANCH  15  17
HETATM   17  O1  UNL     1      -5.086   1.872  16.088  1.00  0.00    -0.325 OA
HETATM   18  C1  UNL     1      -5.479   0.753  16.864  1.00  0.00     0.213 C 
ENDBRANCH  15  17
ENDBRANCH   1  15
BRANCH   6  19
HETATM   19  C7  UNL     1      -7.097   5.766  13.538  1.00  0.00     0.172 C 
BRANCH  19  20
HETATM   20  O3  UNL     1      -7.411   6.349  12.303  1.00  0.00    -0.400 OA
ATOM     21  H3  UNL     1      -7.860   7.167  12.481  1.00  0.00     0.209 HD
ENDBRANCH  19  20
ENDBRANCH   6  19
TORSDOF 4
ENDMDL
MODEL 2
REMARK VINA RESULT: -6.444654551      1.704      4.488
REMARK  4 active torsions:
REMARK  status: ('A' for Active; 'I' for Inactive)
REMARK    1  A    between atoms: O1_2  and  C2_3 
REMARK    2  A    between atoms: C2_3  and  C3_5 
REMARK    3  A    between atoms: C6_10  and  C7_11 
REMARK    4  A    between atoms: C7_11  and  O3_12 
ROOT
HETATM    1  C3  UNL     1      -4.107   3.417  13.452  1.00  0.00     0.201 C 
HETATM    2  C4  UNL     1      -2.912   3.659  14.299  1.00  0.00     0.086 C 
HETATM    3  N1  UNL     1      -1.978   3.865  14.949  1.00  0.00    -0.196 NA
HETATM    4  C5  UNL     1      -4.810   2.230  14.110  1.00  0.00     0.212 C 
HETATM    5  F1  UNL     1      -6.140   2.194  13.846  1.00  0.00    -0.246 F 
HETATM    6  C6  UNL     1      -4.024   1.092  13.543  1.00  0.00     0.056 C 
HETATM    7  C8  UNL     1      -3.937   1.406  12.093  1.00  0.00    -0.003 C 
HETATM    8  C9  UNL     1      -2.808   0.655  11.421  1.00  0.00     0.018 C 
HETATM    9  C10 UNL     1      -5.187   1.191  11.312  1.00  0.00     0.018 C 
HETATM   10  C11 UNL     1      -3.634   2.910  12.113  1.00  0.00     0.177 C 
HETATM   11  C12 UNL     1      -4.262   3.576  10.979  1.00  0.00     0.087 C 
HETATM   12  N2  UNL     1      -4.741   4.089  10.074  1.00  0.00    -0.195 NA
HETATM   13  C13 UNL     1      -2.168   3.040  12.020  1.00  0.00     0.087 C 
HETATM   14  N3  UNL     1      -1.019   3.156  11.948  1.00  0.00    -0.195 NA
ENDROOT
BRANCH   1  15
HETATM   15  C2  UNL     1      -4.959   4.593  13.379  1.00  0.00     0.287 C 
HETATM   16  O2  UNL     1      -4.477   5.733  13.563  1.00  0.00    -0.263 OA
BRANCH  15  17
HETATM   17  O1  UNL     1      -6.305   4.481  13.106  1.00  0.00    -0.325 OA
HETATM   18  C1  UNL     1      -7.154   5.574  13.409  1.00  0.00     0.213 C 
ENDBRANCH  15  17
ENDBRANCH   1  15
BRANCH   6  19
HETATM   19  C7  UNL     1      -4.594  -0.254  13.863  1.00  0.00     0.172 C 
BRANCH  19  20
HETATM   20  O3  UNL     1      -4.945  -0.249  15.219  1.00  0.00    -0.400 OA
ATOM     21  H3  UNL     1      -5.413   0.560  15.389  1.00  0.00     0.209 HD
ENDBRANCH  19  20
ENDBRANCH   6  19
TORSDOF 4
ENDMDL
MODEL 3
REMARK VINA RESULT: -6.120436636      2.306      3.904
REMARK  4 active torsions:
REMARK  status: ('A' for Active; 'I' for Inactive)
REMARK    1  A    between atoms: O1_2  and  C2_3 
REMARK    2  A    between atoms: C2_3  and  C3_5 
REMARK    3  A    between atoms: C6_10  and  C7_11 
REMARK    4  A    between atoms: C7_11  and  O3_12 
ROOT
HETATM    1  C3  UNL     1      -4.676   2.577  14.122  1.00  0.00     0.201 C 
HETATM    2  C4  UNL     1      -4.005   1.903  15.261  1.00  0.00     0.086 C 
HETATM    3  N1  UNL     1      -3.488   1.392  16.161  1.00  0.00    -0.196 NA
HETATM    4  C5  UNL     1      -4.700   1.526  13.013  1.00  0.00     0.212 C 
HETATM    5  F1  UNL     1      -5.704   1.724  12.122  1.00  0.00    -0.246 F 
HETATM    6  C6  UNL     1      -3.323   1.679  12.454  1.00  0.00     0.056 C 
HETATM    7  C8  UNL     1      -3.159   3.149  12.308  1.00  0.00    -0.003 C 
HETATM    8  C9  UNL     1      -1.701   3.546  12.211  1.00  0.00     0.018 C 
HETATM    9  C10 UNL     1      -3.900   3.770  11.176  1.00  0.00     0.018 C 
HETATM   10  C11 UNL     1      -3.760   3.666  13.621  1.00  0.00     0.177 C 
HETATM   11  C12 UNL     1      -4.429   4.944  13.412  1.00  0.00     0.087 C 
HETATM   12  N2  UNL     1      -4.934   5.958  13.244  1.00  0.00    -0.195 NA
HETATM   13  C13 UNL     1      -2.633   3.839  14.555  1.00  0.00     0.087 C 
HETATM   14  N3  UNL     1      -1.758   3.979  15.299  1.00  0.00    -0.195 NA
ENDROOT
BRANCH   1  15
HETATM   15  C2  UNL     1      -6.009   3.035  14.479  1.00  0.00     0.287 C 
HETATM   16  O2  UNL     1      -6.881   3.187  13.594  1.00  0.00    -0.263 OA
BRANCH  15  17
HETATM   17  O1  UNL     1      -6.340   3.310  15.788  1.00  0.00    -0.325 OA
HETATM   18  C1  UNL     1      -7.013   2.316  16.542  1.00  0.00     0.213 C 
ENDBRANCH  15  17
ENDBRANCH   1  15
BRANCH   6  19
HETATM   19  C7  UNL     1      -3.087   0.892  11.204  1.00  0.00     0.172 C 
BRANCH  19  20
HETATM   20  O3  UNL     1      -1.860   0.232  11.348  1.00  0.00    -0.400 OA
ATOM     21  H3  UNL     1      -1.192   0.897  11.470  1.00  0.00     0.209 HD
ENDBRANCH  19  20
ENDBRANCH   6  19
TORSDOF 4
ENDMDL
MODEL 4
REMARK VINA RESULT: -6.022311795      1.755      2.699
REMARK  4 active torsions:
REMARK  status: ('A' for Active; 'I' for Inactive)
REMARK    1  A    between atoms: O1_2  and  C2_3 
REMARK    2  A    between atoms: C2_3  and  C3_5 
REMARK    3  A    between atoms: C6_10  and  C7_11 
REMARK    4  A    between atoms: C7_11  and  O3_12 
ROOT
HETATM    1  C3  UNL     1      -4.109   2.914  13.007  1.00  0.00     0.201 C 
HETATM    2  C4  UNL     1      -3.204   3.592  12.045  1.00  0.00     0.086 C 
HETATM    3  N1  UNL     1      -2.485   4.108  11.301  1.00  0.00    -0.196 NA
HETATM    4  C5  UNL     1      -5.504   3.420  12.644  1.00  0.00     0.212 C 
HETATM    5  F1  UNL     1      -6.487   2.558  13.006  1.00  0.00    -0.246 F 
HETATM    6  C6  UNL     1      -5.520   4.731  13.362  1.00  0.00     0.056 C 
HETATM    7  C8  UNL     1      -4.997   4.404  14.713  1.00  0.00    -0.003 C 
HETATM    8  C9  UNL     1      -4.490   5.635  15.434  1.00  0.00     0.018 C 
HETATM    9  C10 UNL     1      -5.937   3.677  15.611  1.00  0.00     0.018 C 
HETATM   10  C11 UNL     1      -3.827   3.469  14.381  1.00  0.00     0.177 C 
HETATM   11  C12 UNL     1      -3.680   2.444  15.408  1.00  0.00     0.087 C 
HETATM   12  N2  UNL     1      -3.558   1.655  16.229  1.00  0.00    -0.195 NA
HETATM   13  C13 UNL     1      -2.618   4.312  14.340  1.00  0.00     0.087 C 
HETATM   14  N3  UNL     1      -1.662   4.962  14.304  1.00  0.00    -0.195 NA
ENDROOT
BRANCH   1  15
HETATM   15  C2  UNL     1      -4.004   1.467  12.914  1.00  0.00     0.287 C 
HETATM   16  O2  UNL     1      -4.933   0.739  13.330  1.00  0.00    -0.263 OA
BRANCH  15  17
HETATM   17  O1  UNL     1      -2.889   0.868  12.370  1.00  0.00    -0.325 OA
HETATM   18  C1  UNL     1      -3.065  -0.091  11.341  1.00  0.00     0.213 C 
ENDBRANCH  15  17
ENDBRANCH   1  15
BRANCH   6  19
HETATM   19  C7  UNL     1      -6.854   5.409  13.350  1.00  0.00     0.172 C 
BRANCH  19  20
HETATM   20  O3  UNL     1      -6.959   6.107  12.140  1.00  0.00    -0.400 OA
ATOM     21  H3  UNL     1      -6.088   6.408  11.909  1.00  0.00     0.209 HD
ENDBRANCH  19  20
ENDBRANCH   6  19
TORSDOF 4
ENDMDL
MODEL 5
REMARK VINA RESULT: -5.904629118      2.806      4.214
REMARK  4 active torsions:
REMARK  status: ('A' for Active; 'I' for Inactive)
REMARK    1  A    between atoms: O1_2  and  C2_3 
REMARK    2  A    between atoms: C2_3  and  C3_5 
REMARK    3  A    between atoms: C6_10  and  C7_11 
REMARK    4  A    between atoms: C7_11  and  O3_12 
ROOT
HETATM    1  C3  UNL     1      -4.658   3.113  12.636  1.00  0.00     0.201 C 
HETATM    2  C4  UNL     1      -5.648   2.990  13.736  1.00  0.00     0.086 C 
HETATM    3  N1  UNL     1      -6.433   2.892  14.579  1.00  0.00    -0.196 NA
HETATM    4  C5  UNL     1      -3.300   3.014  13.329  1.00  0.00     0.212 C 
HETATM    5  F1  UNL     1      -2.320   2.567  12.504  1.00  0.00    -0.246 F 
HETATM    6  C6  UNL     1      -3.129   4.420  13.807  1.00  0.00     0.056 C 
HETATM    7  C8  UNL     1      -3.486   5.245  12.624  1.00  0.00    -0.003 C 
HETATM    8  C9  UNL     1      -3.836   6.665  13.013  1.00  0.00     0.018 C 
HETATM    9  C10 UNL     1      -2.472   5.283  11.534  1.00  0.00     0.018 C 
HETATM   10  C11 UNL     1      -4.732   4.520  12.098  1.00  0.00     0.177 C 
HETATM   11  C12 UNL     1      -4.792   4.589  10.643  1.00  0.00     0.087 C 
HETATM   12  N2  UNL     1      -4.842   4.665   9.502  1.00  0.00    -0.195 NA
HETATM   13  C13 UNL     1      -5.895   5.215  12.679  1.00  0.00     0.087 C 
HETATM   14  N3  UNL     1      -6.816   5.752  13.129  1.00  0.00    -0.195 NA
ENDROOT
BRANCH   1  15
HETATM   15  C2  UNL     1      -4.842   2.079  11.631  1.00  0.00     0.287 C 
HETATM   16  O2  UNL     1      -5.991   1.659  11.362  1.00  0.00    -0.263 OA
BRANCH  15  17
HETATM   17  O1  UNL     1      -3.768   1.541  10.957  1.00  0.00    -0.325 OA
HETATM   18  C1  UNL     1      -3.777   0.157  10.654  1.00  0.00     0.213 C 
ENDBRANCH  15  17
ENDBRANCH   1  15
BRANCH   6  19
HETATM   19  C7  UNL     1      -1.777   4.701  14.385  1.00  0.00     0.172 C 
BRANCH  19  20
HETATM   20  O3  UNL     1      -1.502   3.691  15.317  1.00  0.00    -0.400 OA
ATOM     21  H3  UNL     1      -2.332   3.408  15.683  1.00  0.00     0.209 HD
ENDBRANCH  19  20
ENDBRANCH   6  19
TORSDOF 4
ENDMDL
