MODEL 1
REMARK VINA RESULT: -7.041037819      0.000      0.000
REMARK  4 active torsions:
REMARK  status: ('A' for Active; 'I' for Inactive)
REMARK    1  A    between atoms: O1_2  and  C2_3 
REMARK       I    between atoms: C2_3  and  N1_5 
REMARK    2  A    between atoms: C5_8  and  N2_10 
REMARK       I    between atoms: N2_10  and  C7_12 
REMARK    3  A    between atoms: C7_12  and  O4_14 
REMARK    4  A    between atoms: O4_14  and  C8_15 
ROOT
HETATM    1  C2  UNL     1      -4.714   0.229  15.627  1.00  0.00     0.362 C 
HETATM    2  O2  UNL     1      -4.614  -0.904  15.091  1.00  0.00    -0.238 OA
HETATM    3  N1  UNL     1      -4.702   1.368  14.791  1.00  0.00    -0.328 N 
HETATM    4  C3  UNL     1      -4.580   1.273  13.363  1.00  0.00     0.130 C 
HETATM    5  C4  UNL     1      -4.235   2.540  12.676  1.00  0.00     0.050 C 
HETATM    6  C5  UNL     1      -3.395   3.498  13.456  1.00  0.00     0.034 C 
HETATM    7  C6  UNL     1      -3.722   4.942  13.060  1.00  0.00     0.039 C 
HETATM    8  C10 UNL     1      -3.522   3.399  14.931  1.00  0.00     0.050 C 
HETATM    9  C11 UNL     1      -4.814   2.719  15.340  1.00  0.00     0.130 C 
ENDROOT
BRANCH   6  10
HETATM   10  N2  UNL     1      -2.004   3.284  13.102  1.00  0.00    -0.328 N 
HETATM   11  C7  UNL     1      -1.607   3.151  11.741  1.00  0.00     0.366 C 
HETATM   12  O3  UNL     1      -2.483   3.221  10.844  1.00  0.00    -0.238 OA
ATOM     13  H2  UNL     1      -1.300   3.229  13.838  1.00  0.00     0.165 HD
BRANCH  11  14
HETATM   14  O4  UNL     1      -0.312   2.949  11.363  1.00  0.00    -0.233 OA
BRANCH  14  15
HETATM   15  C8  UNL     1       0.579   3.943  10.917  1.00  0.00     0.358 C 
HETATM   16  C9  UNL     1       0.757   3.734   9.413  1.00  0.00     0.126 C 
HETATM   17  F1  UNL     1       1.804   3.877  11.563  1.00  0.00    -0.176 F 
HETATM   18  F2  UNL     1       0.093   5.216  11.086  1.00  0.00    -0.176 F 
ENDBRANCH  14  15
ENDBRANCH  11  14
ENDBRANCH   6  10
BRANCH   1  19
HETATM   19  O1  UNL     1      -4.828   0.276  16.997  1.00  0.00    -0.309 OA
HETATM   20  C1  UNL     1      -6.073   0.203  17.685  1.00  0.00     0.215 C 
ENDBRANCH   1  19
TORSDOF 4
ENDMDL
MODEL 2
REMARK VINA RESULT: -6.677261506      3.428      3.828
REMARK  4 active torsions:
REMARK  status: ('A' for Active; 'I' for Inactive)
REMARK    1  A    between atoms: O1_2  and  C2_3 
REMARK       I    between atoms: C2_3  and  N1_5 
REMARK    2  A    between atoms: C5_8  and  N2_10 
REMARK       I    between atoms: N2_10  and  C7_12 
REMARK    3  A    between atoms: C7_12  and  O4_14 
REMARK    4  A    between atoms: O4_14  and  C8_15 
ROOT
HETATM    1  C2  UNL     1      -4.595   1.401  16.364  1.00  0.00     0.362 C 
HETATM    2  O2  UNL     1      -3.455   0.920  16.138  1.00  0.00    -0.238 OA
HETATM    3  N1  UNL     1      -5.168   2.250  15.391  1.00  0.00    -0.328 N 
HETATM    4  C3  UNL     1      -4.496   2.578  14.164  1.00  0.00     0.130 C 
HETATM    5  C4  UNL     1      -5.062   3.732  13.427  1.00  0.00     0.050 C 
HETATM    6  C5  UNL     1      -5.693   4.796  14.265  1.00  0.00     0.034 C 
HETATM    7  C6  UNL     1      -6.838   5.471  13.501  1.00  0.00     0.039 C 
HETATM    8  C10 UNL     1      -6.232   4.340  15.570  1.00  0.00     0.050 C 
HETATM    9  C11 UNL     1      -6.490   2.847  15.582  1.00  0.00     0.130 C 
ENDROOT
BRANCH   6  10
HETATM   10  N2  UNL     1      -4.706   5.831  14.515  1.00  0.00    -0.328 N 
HETATM   11  C7  UNL     1      -4.020   6.463  13.438  1.00  0.00     0.366 C 
HETATM   12  O3  UNL     1      -4.282   6.111  12.262  1.00  0.00    -0.238 OA
ATOM     13  H2  UNL     1      -4.501   6.109  15.474  1.00  0.00     0.165 HD
BRANCH  11  14
HETATM   14  O4  UNL     1      -3.086   7.439  13.628  1.00  0.00    -0.233 OA
BRANCH  14  15
HETATM   15  C8  UNL     1      -2.172   7.507  14.696  1.00  0.00     0.358 C 
HETATM   16  C9  UNL     1      -1.071   8.480  14.276  1.00  0.00     0.126 C 
HETATM   17  F1  UNL     1      -1.632   6.268  15.002  1.00  0.00    -0.176 F 
HETATM   18  F2  UNL     1      -2.727   8.009  15.848  1.00  0.00    -0.176 F 
ENDBRANCH  14  15
ENDBRANCH  11  14
ENDBRANCH   6  10
BRANCH   1  19
HETATM   19  O1  UNL     1      -5.203   1.062  17.551  1.00  0.00    -0.309 OA
HETATM   20  C1  UNL     1      -6.116  -0.023  17.685  1.00  0.00     0.215 C 
ENDBRANCH   1  19
TORSDOF 4
ENDMDL
MODEL 3
REMARK VINA RESULT: -6.602111531      4.026      7.012
REMARK  4 active torsions:
REMARK  status: ('A' for Active; 'I' for Inactive)
REMARK    1  A    between atoms: O1_2  and  C2_3 
REMARK       I    between atoms: C2_3  and  N1_5 
REMARK    2  A    between atoms: C5_8  and  N2_10 
REMARK       I    between atoms: N2_10  and  C7_12 
REMARK    3  A    between atoms: C7_12  and  O4_14 
REMARK    4  A    between atoms: O4_14  and  C8_15 
ROOT
HETATM    1  C2  UNL     1      -4.840   4.435  10.349  1.00  0.00     0.362 C 
HETATM    2  O2  UNL     1      -4.933   3.536   9.474  1.00  0.00    -0.238 OA
HETATM    3  N1  UNL     1      -4.131   4.143  11.535  1.00  0.00    -0.328 N 
HETATM    4  C3  UNL     1      -3.520   2.865  11.771  1.00  0.00     0.130 C 
HETATM    5  C4  UNL     1      -3.127   2.605  13.176  1.00  0.00     0.050 C 
HETATM    6  C5  UNL     1      -3.973   3.256  14.221  1.00  0.00     0.034 C 
HETATM    7  C6  UNL     1      -3.136   3.582  15.463  1.00  0.00     0.039 C 
HETATM    8  C10 UNL     1      -4.654   4.505  13.800  1.00  0.00     0.050 C 
HETATM    9  C11 UNL     1      -3.980   5.136  12.598  1.00  0.00     0.130 C 
ENDROOT
BRANCH   6  10
HETATM   10  N2  UNL     1      -4.985   2.307  14.650  1.00  0.00    -0.328 N 
HETATM   11  C7  UNL     1      -4.670   1.271  15.576  1.00  0.00     0.366 C 
HETATM   12  O3  UNL     1      -3.498   1.189  16.019  1.00  0.00    -0.238 OA
ATOM     13  H2  UNL     1      -5.933   2.383  14.284  1.00  0.00     0.165 HD
BRANCH  11  14
HETATM   14  O4  UNL     1      -5.589   0.359  16.006  1.00  0.00    -0.233 OA
BRANCH  14  15
HETATM   15  C8  UNL     1      -6.195   0.338  17.276  1.00  0.00     0.358 C 
HETATM   16  C9  UNL     1      -7.667   0.697  17.070  1.00  0.00     0.126 C 
HETATM   17  F1  UNL     1      -5.598   1.228  18.155  1.00  0.00    -0.176 F 
HETATM   18  F2  UNL     1      -6.168  -0.902  17.865  1.00  0.00    -0.176 F 
ENDBRANCH  14  15
ENDBRANCH  11  14
ENDBRANCH   6  10
BRANCH   1  19
HETATM   19  O1  UNL     1      -5.440   5.644  10.083  1.00  0.00    -0.309 OA
HETATM   20  C1  UNL     1      -5.865   6.043   8.783  1.00  0.00     0.215 C 
ENDBRANCH   1  19
TORSDOF 4
ENDMDL
MODEL 4
REMARK VINA RESULT: -6.600577734      4.254      7.066
REMARK  4 active torsions:
REMARK  status: ('A' for Active; 'I' for Inactive)
REMARK    1  A    between atoms: O1_2  and  C2_3 
REMARK       I    between atoms: C2_3  and  N1_5 
REMARK    2  A    between atoms: C5_8  and  N2_10 
REMARK       I    between atoms: N2_10  and  C7_12 
REMARK    3  A    between atoms: C7_12  and  O4_14 
REMARK    4  A    between atoms: O4_14  and  C8_15 
ROOT
HETATM    1  C2  UNL     1      -4.200   3.770  10.653  1.00  0.00     0.362 C 
HETATM    2  O2  UNL     1      -3.378   2.870  10.344  1.00  0.00    -0.238 OA
HETATM    3  N1  UNL     1      -4.273   4.172  12.005  1.00  0.00    -0.328 N 
HETATM    4  C3  UNL     1      -3.447   3.592  13.027  1.00  0.00     0.130 C 
HETATM    5  C4  UNL     1      -3.882   3.864  14.417  1.00  0.00     0.050 C 
HETATM    6  C5  UNL     1      -5.352   4.028  14.621  1.00  0.00     0.034 C 
HETATM    7  C6  UNL     1      -5.629   4.998  15.776  1.00  0.00     0.039 C 
HETATM    8  C10 UNL     1      -6.107   4.513  13.439  1.00  0.00     0.050 C 
HETATM    9  C11 UNL     1      -5.204   5.213  12.442  1.00  0.00     0.130 C 
ENDROOT
BRANCH   6  10
HETATM   10  N2  UNL     1      -5.907   2.749  15.023  1.00  0.00    -0.328 N 
HETATM   11  C7  UNL     1      -5.155   1.845  15.827  1.00  0.00     0.366 C 
HETATM   12  O3  UNL     1      -3.996   2.172  16.185  1.00  0.00    -0.238 OA
ATOM     13  H2  UNL     1      -6.849   2.493  14.727  1.00  0.00     0.165 HD
BRANCH  11  14
HETATM   14  O4  UNL     1      -5.637   0.633  16.227  1.00  0.00    -0.233 OA
BRANCH  14  15
HETATM   15  C8  UNL     1      -6.526   0.414  17.296  1.00  0.00     0.358 C 
HETATM   16  C9  UNL     1      -6.352   1.585  18.263  1.00  0.00     0.126 C 
HETATM   17  F1  UNL     1      -6.282  -0.788  17.941  1.00  0.00    -0.176 F 
HETATM   18  F2  UNL     1      -7.843   0.413  16.908  1.00  0.00    -0.176 F 
ENDBRANCH  14  15
ENDBRANCH  11  14
ENDBRANCH   6  10
BRANCH   1  19
HETATM   19  O1  UNL     1      -4.972   4.298   9.645  1.00  0.00    -0.309 OA
HETATM   20  C1  UNL     1      -4.448   5.103   8.593  1.00  0.00     0.215 C 
ENDBRANCH   1  19
TORSDOF 4
ENDMDL
MODEL 5
REMARK VINA RESULT: -6.559644074      3.882      7.017
REMARK  4 active torsions:
REMARK  status: ('A' for Active; 'I' for Inactive)
REMARK    1  A    between atoms: O1_2  and  C2_3 
REMARK       I    between atoms: C2_3  and  N1_5 
REMARK    2  A    between atoms: C5_8  and  N2_10 
REMARK       I    between atoms: N2_10  and  C7_12 
REMARK    3  A    between atoms: C7_12  and  O4_14 
REMARK    4  A    between atoms: O4_14  and  C8_15 
ROOT
HETATM    1  C2  UNL     1      -1.873   3.536  11.262  1.00  0.00     0.362 C 
HETATM    2  O2  UNL     1      -0.690   3.141  11.424  1.00  0.00    -0.238 OA
HETATM    3  N1  UNL     1      -2.538   4.123  12.361  1.00  0.00    -0.328 N 
HETATM    4  C3  UNL     1      -1.913   4.280  13.644  1.00  0.00     0.130 C 
HETATM    5  C4  UNL     1      -2.839   4.582  14.761  1.00  0.00     0.050 C 
HETATM    6  C5  UNL     1      -4.214   4.011  14.642  1.00  0.00     0.034 C 
HETATM    7  C6  UNL     1      -5.236   4.924  15.330  1.00  0.00     0.039 C 
HETATM    8  C10 UNL     1      -4.686   3.776  13.255  1.00  0.00     0.050 C 
HETATM    9  C11 UNL     1      -3.914   4.607  12.250  1.00  0.00     0.130 C 
ENDROOT
BRANCH   6  10
HETATM   10  N2  UNL     1      -4.252   2.748  15.357  1.00  0.00    -0.328 N 
HETATM   11  C7  UNL     1      -5.482   2.058  15.560  1.00  0.00     0.366 C 
HETATM   12  O3  UNL     1      -6.540   2.560  15.109  1.00  0.00    -0.238 OA
ATOM     13  H2  UNL     1      -3.386   2.349  15.719  1.00  0.00     0.165 HD
BRANCH  11  14
HETATM   14  O4  UNL     1      -5.563   0.870  16.225  1.00  0.00    -0.233 OA
BRANCH  14  15
HETATM   15  C8  UNL     1      -6.478   0.562  17.248  1.00  0.00     0.358 C 
HETATM   16  C9  UNL     1      -6.347   1.658  18.305  1.00  0.00     0.126 C 
HETATM   17  F1  UNL     1      -6.237  -0.683  17.809  1.00  0.00    -0.176 F 
HETATM   18  F2  UNL     1      -7.784   0.575  16.823  1.00  0.00    -0.176 F 
ENDBRANCH  14  15
ENDBRANCH  11  14
ENDBRANCH   6  10
BRANCH   1  19
HETATM   19  O1  UNL     1      -2.434   3.366  10.017  1.00  0.00    -0.309 OA
HETATM   20  C1  UNL     1      -2.276   4.296   8.950  1.00  0.00     0.215 C 
ENDBRANCH   1  19
TORSDOF 4
ENDMDL
