MODEL 1
REMARK VINA RESULT: -7.541072639      0.000      0.000
REMARK  9 active torsions:
REMARK  status: ('A' for Active; 'I' for Inactive)
REMARK    1  A    between atoms: C2_2  and  C4_4 
REMARK    2  A    between atoms: C4_4  and  C5_5 
REMARK    3  A    between atoms: N1_7  and  C7_8 
REMARK       I    between atoms: N2_11  and  C10_12 
REMARK    4  A    between atoms: C10_12  and  C11_14 
REMARK    5  A    between atoms: C11_14  and  N3_15 
REMARK    6  A    between atoms: C11_14  and  C15_24 
REMARK       I    between atoms: N3_15  and  C12_17 
REMARK    7  A    between atoms: C12_17  and  C13_19 
REMARK    8  A    between atoms: C13_19  and  O3_20 
REMARK    9  A    between atoms: C13_19  and  C14_22 
ROOT
HETATM    1  C7  UNL     1     -45.189  14.641 -21.624  1.00  0.00     0.112 C 
HETATM    2  C8  UNL     1     -44.299  15.859 -21.622  1.00  0.00     0.047 C 
HETATM    3  C9  UNL     1     -42.839  15.445 -21.568  1.00  0.00     0.128 C 
HETATM    4  N2  UNL     1     -42.599  14.461 -20.547  1.00  0.00    -0.350 N 
HETATM    5  C10 UNL     1     -41.398  14.480 -19.818  1.00  0.00     0.243 C 
HETATM    6  O1  UNL     1     -41.314  13.584 -18.896  1.00  0.00    -0.271 OA
HETATM    7  C18 UNL     1     -43.591  13.446 -20.265  1.00  0.00     0.128 C 
HETATM    8  C19 UNL     1     -45.011  13.990 -20.268  1.00  0.00     0.047 C 
ENDROOT
BRANCH   5   9
HETATM    9  C11 UNL     1     -40.250  15.372 -19.965  1.00  0.00     0.180 C 
BRANCH   9  10
HETATM   10  N3  UNL     1     -39.373  15.275 -18.758  1.00  0.00    -0.345 N 
HETATM   11  C12 UNL     1     -39.299  16.350 -17.850  1.00  0.00     0.247 C 
HETATM   12  O2  UNL     1     -39.968  17.380 -18.070  1.00  0.00    -0.271 OA
ATOM     13  H3  UNL     1     -38.827  14.429 -18.592  1.00  0.00     0.163 HD
BRANCH  11  14
HETATM   14  C13 UNL     1     -38.464  16.331 -16.637  1.00  0.00     0.220 C 
BRANCH  14  15
HETATM   15  O3  UNL     1     -37.265  17.016 -16.790  1.00  0.00    -0.385 OA
ATOM     16  H3  UNL     1     -36.844  17.221 -15.963  1.00  0.00     0.210 HD
ENDBRANCH  14  15
BRANCH  14  17
HETATM   17  C14 UNL     1     -38.177  14.870 -16.344  1.00  0.00     0.127 C 
HETATM   18  S1  UNL     1     -39.610  13.961 -15.781  1.00  0.00    -0.095 SA
ENDBRANCH  14  17
ENDBRANCH  11  14
ENDBRANCH   9  10
BRANCH   9  19
HETATM   19  C15 UNL     1     -39.283  14.933 -21.076  1.00  0.00     0.009 C 
HETATM   20  C16 UNL     1     -39.228  15.838 -22.246  1.00  0.00     0.012 C 
HETATM   21  C17 UNL     1     -39.503  13.520 -21.506  1.00  0.00     0.012 C 
ENDBRANCH   9  19
ENDBRANCH   5   9
BRANCH   1  22
HETATM   22  N1  UNL     1     -46.539  14.944 -21.961  1.00  0.00    -0.282 N 
HETATM   23  C6  UNL     1     -47.659  14.576 -21.314  1.00  0.00     0.138 A 
HETATM   24  C5  UNL     1     -48.707  15.108 -22.011  1.00  0.00     0.044 A 
HETATM   25  N5  UNL     1     -48.172  15.786 -23.065  1.00  0.00    -0.289 N 
HETATM   26  N4  UNL     1     -46.877  15.681 -23.024  1.00  0.00    -0.240 N 
ATOM     27  H5  UNL     1     -48.703  16.295 -23.772  1.00  0.00     0.188 HD
ATOM     28  H4  UNL     1     -46.227  16.091 -23.693  1.00  0.00     0.208 HD
BRANCH  24  29
HETATM   29  C4  UNL     1     -50.165  15.061 -21.804  1.00  0.00     0.064 C 
BRANCH  29  30
HETATM   30  C2  UNL     1     -50.699  13.696 -21.527  1.00  0.00    -0.017 C 
HETATM   31  C1  UNL     1     -50.997  13.511 -20.076  1.00  0.00     0.010 C 
HETATM   32  C3  UNL     1     -51.994  13.552 -22.338  1.00  0.00     0.010 C 
ENDBRANCH  29  30
ENDBRANCH  24  29
ENDBRANCH   1  22
TORSDOF 9
ENDMDL
MODEL 2
REMARK VINA RESULT: -7.462000227      1.605      2.000
REMARK  9 active torsions:
REMARK  status: ('A' for Active; 'I' for Inactive)
REMARK    1  A    between atoms: C2_2  and  C4_4 
REMARK    2  A    between atoms: C4_4  and  C5_5 
REMARK    3  A    between atoms: N1_7  and  C7_8 
REMARK       I    between atoms: N2_11  and  C10_12 
REMARK    4  A    between atoms: C10_12  and  C11_14 
REMARK    5  A    between atoms: C11_14  and  N3_15 
REMARK    6  A    between atoms: C11_14  and  C15_24 
REMARK       I    between atoms: N3_15  and  C12_17 
REMARK    7  A    between atoms: C12_17  and  C13_19 
REMARK    8  A    between atoms: C13_19  and  O3_20 
REMARK    9  A    between atoms: C13_19  and  C14_22 
ROOT
HETATM    1  C7  UNL     1     -46.506  15.110 -22.375  1.00  0.00     0.112 C 
HETATM    2  C8  UNL     1     -45.885  16.101 -21.422  1.00  0.00     0.047 C 
HETATM    3  C9  UNL     1     -44.399  16.238 -21.697  1.00  0.00     0.128 C 
HETATM    4  N2  UNL     1     -43.756  14.957 -21.815  1.00  0.00    -0.350 N 
HETATM    5  C10 UNL     1     -42.449  14.777 -21.331  1.00  0.00     0.243 C 
HETATM    6  O1  UNL     1     -41.994  13.576 -21.444  1.00  0.00    -0.271 OA
HETATM    7  C18 UNL     1     -44.449  13.847 -22.433  1.00  0.00     0.128 C 
HETATM    8  C19 UNL     1     -45.912  13.762 -22.024  1.00  0.00     0.047 C 
ENDROOT
BRANCH   5   9
HETATM    9  C11 UNL     1     -41.553  15.757 -20.723  1.00  0.00     0.180 C 
BRANCH   9  10
HETATM   10  N3  UNL     1     -40.442  15.056 -20.008  1.00  0.00    -0.345 N 
HETATM   11  C12 UNL     1     -40.023  15.507 -18.740  1.00  0.00     0.247 C 
HETATM   12  O2  UNL     1     -40.586  16.496 -18.229  1.00  0.00    -0.271 OA
ATOM     13  H3  UNL     1     -39.987  14.252 -20.440  1.00  0.00     0.163 HD
BRANCH  11  14
HETATM   14  C13 UNL     1     -38.942  14.869 -17.970  1.00  0.00     0.220 C 
BRANCH  14  15
HETATM   15  O3  UNL     1     -38.555  13.639 -18.490  1.00  0.00    -0.385 OA
ATOM     16  H3  UNL     1     -39.286  13.127 -18.816  1.00  0.00     0.210 HD
ENDBRANCH  14  15
BRANCH  14  17
HETATM   17  C14 UNL     1     -39.481  14.676 -16.564  1.00  0.00     0.127 C 
HETATM   18  S1  UNL     1     -38.516  15.508 -15.311  1.00  0.00    -0.095 SA
ENDBRANCH  14  17
ENDBRANCH  11  14
ENDBRANCH   9  10
BRANCH   9  19
HETATM   19  C15 UNL     1     -40.772  16.584 -21.757  1.00  0.00     0.009 C 
HETATM   20  C16 UNL     1     -39.429  16.058 -22.088  1.00  0.00     0.012 C 
HETATM   21  C17 UNL     1     -40.703  18.034 -21.403  1.00  0.00     0.012 C 
ENDBRANCH   9  19
ENDBRANCH   5   9
BRANCH   1  22
HETATM   22  N1  UNL     1     -47.929  15.149 -22.362  1.00  0.00    -0.282 N 
HETATM   23  C6  UNL     1     -48.775  14.365 -21.671  1.00  0.00     0.138 A 
HETATM   24  C5  UNL     1     -50.039  14.783 -21.980  1.00  0.00     0.044 A 
HETATM   25  N5  UNL     1     -49.905  15.817 -22.856  1.00  0.00    -0.289 N 
HETATM   26  N4  UNL     1     -48.641  16.026 -23.077  1.00  0.00    -0.240 N 
ATOM     27  H5  UNL     1     -50.674  16.344 -23.273  1.00  0.00     0.188 HD
ATOM     28  H4  UNL     1     -48.256  16.741 -23.694  1.00  0.00     0.208 HD
BRANCH  24  29
HETATM   29  C4  UNL     1     -51.372  14.329 -21.544  1.00  0.00     0.064 C 
BRANCH  29  30
HETATM   30  C2  UNL     1     -51.371  13.003 -20.860  1.00  0.00    -0.017 C 
HETATM   31  C1  UNL     1     -51.252  13.153 -19.380  1.00  0.00     0.010 C 
HETATM   32  C3  UNL     1     -52.707  12.328 -21.201  1.00  0.00     0.010 C 
ENDBRANCH  29  30
ENDBRANCH  24  29
ENDBRANCH   1  22
TORSDOF 9
ENDMDL
MODEL 3
REMARK VINA RESULT: -7.258657697      1.996      2.772
REMARK  9 active torsions:
REMARK  status: ('A' for Active; 'I' for Inactive)
REMARK    1  A    between atoms: C2_2  and  C4_4 
REMARK    2  A    between atoms: C4_4  and  C5_5 
REMARK    3  A    between atoms: N1_7  and  C7_8 
REMARK       I    between atoms: N2_11  and  C10_12 
REMARK    4  A    between atoms: C10_12  and  C11_14 
REMARK    5  A    between atoms: C11_14  and  N3_15 
REMARK    6  A    between atoms: C11_14  and  C15_24 
REMARK       I    between atoms: N3_15  and  C12_17 
REMARK    7  A    between atoms: C12_17  and  C13_19 
REMARK    8  A    between atoms: C13_19  and  O3_20 
REMARK    9  A    between atoms: C13_19  and  C14_22 
ROOT
HETATM    1  C7  UNL     1     -43.694  15.841 -21.441  1.00  0.00     0.112 C 
HETATM    2  C8  UNL     1     -43.554  14.851 -20.311  1.00  0.00     0.047 C 
HETATM    3  C9  UNL     1     -42.284  15.122 -19.526  1.00  0.00     0.128 C 
HETATM    4  N2  UNL     1     -41.146  15.291 -20.389  1.00  0.00    -0.350 N 
HETATM    5  C10 UNL     1     -39.885  14.815 -19.992  1.00  0.00     0.243 C 
HETATM    6  O1  UNL     1     -38.951  14.975 -20.866  1.00  0.00    -0.271 OA
HETATM    7  C18 UNL     1     -41.292  15.950 -21.668  1.00  0.00     0.128 C 
HETATM    8  C19 UNL     1     -42.562  15.543 -22.402  1.00  0.00     0.047 C 
ENDROOT
BRANCH   5   9
HETATM    9  C11 UNL     1     -39.500  14.170 -18.739  1.00  0.00     0.180 C 
BRANCH   9  10
HETATM   10  N3  UNL     1     -39.569  15.156 -17.617  1.00  0.00    -0.345 N 
HETATM   11  C12 UNL     1     -38.515  15.240 -16.685  1.00  0.00     0.247 C 
HETATM   12  O2  UNL     1     -37.532  14.481 -16.807  1.00  0.00    -0.271 OA
ATOM     13  H3  UNL     1     -40.381  15.767 -17.526  1.00  0.00     0.163 HD
BRANCH  11  14
HETATM   14  C13 UNL     1     -38.505  16.186 -15.557  1.00  0.00     0.220 C 
BRANCH  14  15
HETATM   15  O3  UNL     1     -38.883  15.602 -14.353  1.00  0.00    -0.385 OA
ATOM     16  H3  UNL     1     -39.812  15.689 -14.172  1.00  0.00     0.210 HD
ENDBRANCH  14  15
BRANCH  14  17
HETATM   17  C14 UNL     1     -39.490  17.284 -15.916  1.00  0.00     0.127 C 
HETATM   18  S1  UNL     1     -38.729  18.686 -16.722  1.00  0.00    -0.095 SA
ENDBRANCH  14  17
ENDBRANCH  11  14
ENDBRANCH   9  10
BRANCH   9  19
HETATM   19  C15 UNL     1     -40.509  13.109 -18.272  1.00  0.00     0.009 C 
HETATM   20  C16 UNL     1     -40.231  12.531 -16.939  1.00  0.00     0.012 C 
HETATM   21  C17 UNL     1     -40.724  12.033 -19.285  1.00  0.00     0.012 C 
ENDBRANCH   9  19
ENDBRANCH   5   9
BRANCH   1  22
HETATM   22  N1  UNL     1     -44.989  15.826 -22.032  1.00  0.00    -0.282 N 
HETATM   23  C6  UNL     1     -46.180  15.986 -21.427  1.00  0.00     0.138 A 
HETATM   24  C5  UNL     1     -47.131  15.895 -22.404  1.00  0.00     0.044 A 
HETATM   25  N5  UNL     1     -46.469  15.682 -23.576  1.00  0.00    -0.289 N 
HETATM   26  N4  UNL     1     -45.192  15.642 -23.340  1.00  0.00    -0.240 N 
ATOM     27  H5  UNL     1     -46.907  15.571 -24.491  1.00  0.00     0.188 HD
ATOM     28  H4  UNL     1     -44.463  15.494 -24.039  1.00  0.00     0.208 HD
BRANCH  24  29
HETATM   29  C4  UNL     1     -48.601  15.991 -22.373  1.00  0.00     0.064 C 
BRANCH  29  30
HETATM   30  C2  UNL     1     -49.299  14.672 -22.373  1.00  0.00    -0.017 C 
HETATM   31  C1  UNL     1     -49.437  14.127 -20.990  1.00  0.00     0.010 C 
HETATM   32  C3  UNL     1     -50.692  14.907 -22.973  1.00  0.00     0.010 C 
ENDBRANCH  29  30
ENDBRANCH  24  29
ENDBRANCH   1  22
TORSDOF 9
ENDMDL
MODEL 4
REMARK VINA RESULT: -7.188910400      1.437      1.816
REMARK  9 active torsions:
REMARK  status: ('A' for Active; 'I' for Inactive)
REMARK    1  A    between atoms: C2_2  and  C4_4 
REMARK    2  A    between atoms: C4_4  and  C5_5 
REMARK    3  A    between atoms: N1_7  and  C7_8 
REMARK       I    between atoms: N2_11  and  C10_12 
REMARK    4  A    between atoms: C10_12  and  C11_14 
REMARK    5  A    between atoms: C11_14  and  N3_15 
REMARK    6  A    between atoms: C11_14  and  C15_24 
REMARK       I    between atoms: N3_15  and  C12_17 
REMARK    7  A    between atoms: C12_17  and  C13_19 
REMARK    8  A    between atoms: C13_19  and  O3_20 
REMARK    9  A    between atoms: C13_19  and  C14_22 
ROOT
HETATM    1  C7  UNL     1     -45.337  13.881 -20.397  1.00  0.00     0.112 C 
HETATM    2  C8  UNL     1     -44.977  15.295 -20.012  1.00  0.00     0.047 C 
HETATM    3  C9  UNL     1     -43.516  15.570 -20.317  1.00  0.00     0.128 C 
HETATM    4  N2  UNL     1     -42.661  14.523 -19.824  1.00  0.00    -0.350 N 
HETATM    5  C10 UNL     1     -41.391  14.835 -19.309  1.00  0.00     0.243 C 
HETATM    6  O1  UNL     1     -40.734  13.826 -18.851  1.00  0.00    -0.271 OA
HETATM    7  C18 UNL     1     -43.101  13.145 -19.856  1.00  0.00     0.128 C 
HETATM    8  C19 UNL     1     -44.560  12.981 -19.458  1.00  0.00     0.047 C 
ENDROOT
BRANCH   5   9
HETATM    9  C11 UNL     1     -40.729  16.135 -19.225  1.00  0.00     0.180 C 
BRANCH   9  10
HETATM   10  N3  UNL     1     -39.499  16.025 -18.382  1.00  0.00    -0.345 N 
HETATM   11  C12 UNL     1     -39.443  16.665 -17.127  1.00  0.00     0.247 C 
HETATM   12  O2  UNL     1     -40.428  17.325 -16.736  1.00  0.00    -0.271 OA
ATOM     13  H3  UNL     1     -38.700  15.487 -18.715  1.00  0.00     0.163 HD
BRANCH  11  14
HETATM   14  C13 UNL     1     -38.273  16.601 -16.236  1.00  0.00     0.220 C 
BRANCH  14  15
HETATM   15  O3  UNL     1     -37.162  17.262 -16.748  1.00  0.00    -0.385 OA
ATOM     16  H3  UNL     1     -36.377  16.728 -16.744  1.00  0.00     0.210 HD
ENDBRANCH  14  15
BRANCH  14  17
HETATM   17  C14 UNL     1     -37.950  15.128 -16.066  1.00  0.00     0.127 C 
HETATM   18  S1  UNL     1     -39.379  14.126 -15.681  1.00  0.00    -0.095 SA
ENDBRANCH  14  17
ENDBRANCH  11  14
ENDBRANCH   9  10
BRANCH   9  19
HETATM   19  C15 UNL     1     -40.136  16.598 -20.565  1.00  0.00     0.009 C 
HETATM   20  C16 UNL     1     -40.907  17.655 -21.255  1.00  0.00     0.012 C 
HETATM   21  C17 UNL     1     -39.844  15.462 -21.489  1.00  0.00     0.012 C 
ENDBRANCH   9  19
ENDBRANCH   5   9
BRANCH   1  22
HETATM   22  N1  UNL     1     -46.742  13.651 -20.407  1.00  0.00    -0.282 N 
HETATM   23  C6  UNL     1     -47.557  13.534 -21.470  1.00  0.00     0.138 A 
HETATM   24  C5  UNL     1     -48.813  13.318 -20.979  1.00  0.00     0.044 A 
HETATM   25  N5  UNL     1     -48.707  13.313 -19.621  1.00  0.00    -0.289 N 
HETATM   26  N4  UNL     1     -47.466  13.513 -19.291  1.00  0.00    -0.240 N 
ATOM     27  H5  UNL     1     -49.478  13.173 -18.967  1.00  0.00     0.188 HD
ATOM     28  H4  UNL     1     -47.104  13.558 -18.339  1.00  0.00     0.208 HD
BRANCH  24  29
HETATM   29  C4  UNL     1     -50.116  13.108 -21.636  1.00  0.00     0.064 C 
BRANCH  29  30
HETATM   30  C2  UNL     1     -51.022  14.293 -21.587  1.00  0.00    -0.017 C 
HETATM   31  C1  UNL     1     -50.572  15.362 -22.527  1.00  0.00     0.010 C 
HETATM   32  C3  UNL     1     -52.416  13.802 -22.000  1.00  0.00     0.010 C 
ENDBRANCH  29  30
ENDBRANCH  24  29
ENDBRANCH   1  22
TORSDOF 9
ENDMDL
MODEL 5
REMARK VINA RESULT: -7.168157051      2.089      2.919
REMARK  9 active torsions:
REMARK  status: ('A' for Active; 'I' for Inactive)
REMARK    1  A    between atoms: C2_2  and  C4_4 
REMARK    2  A    between atoms: C4_4  and  C5_5 
REMARK    3  A    between atoms: N1_7  and  C7_8 
REMARK       I    between atoms: N2_11  and  C10_12 
REMARK    4  A    between atoms: C10_12  and  C11_14 
REMARK    5  A    between atoms: C11_14  and  N3_15 
REMARK    6  A    between atoms: C11_14  and  C15_24 
REMARK       I    between atoms: N3_15  and  C12_17 
REMARK    7  A    between atoms: C12_17  and  C13_19 
REMARK    8  A    between atoms: C13_19  and  O3_20 
REMARK    9  A    between atoms: C13_19  and  C14_22 
ROOT
HETATM    1  C7  UNL     1     -44.931  14.553 -19.865  1.00  0.00     0.112 C 
HETATM    2  C8  UNL     1     -44.053  13.328 -19.932  1.00  0.00     0.047 C 
HETATM    3  C9  UNL     1     -42.590  13.721 -19.853  1.00  0.00     0.128 C 
HETATM    4  N2  UNL     1     -42.275  14.797 -20.753  1.00  0.00    -0.350 N 
HETATM    5  C10 UNL     1     -41.030  14.831 -21.403  1.00  0.00     0.243 C 
HETATM    6  O1  UNL     1     -40.878  15.812 -22.225  1.00  0.00    -0.271 OA
HETATM    7  C18 UNL     1     -43.237  15.851 -20.996  1.00  0.00     0.128 C 
HETATM    8  C19 UNL     1     -44.660  15.331 -21.136  1.00  0.00     0.047 C 
ENDROOT
BRANCH   5   9
HETATM    9  C11 UNL     1     -39.902  13.911 -21.274  1.00  0.00     0.180 C 
BRANCH   9  10
HETATM   10  N3  UNL     1     -40.002  13.162 -19.983  1.00  0.00    -0.345 N 
HETATM   11  C12 UNL     1     -39.241  13.571 -18.869  1.00  0.00     0.247 C 
HETATM   12  O2  UNL     1     -38.484  14.558 -18.978  1.00  0.00    -0.271 OA
ATOM     13  H3  UNL     1     -40.621  12.356 -19.909  1.00  0.00     0.163 HD
BRANCH  11  14
HETATM   14  C13 UNL     1     -39.286  12.893 -17.563  1.00  0.00     0.220 C 
BRANCH  14  15
HETATM   15  O3  UNL     1     -39.879  11.637 -17.623  1.00  0.00    -0.385 OA
ATOM     16  H3  UNL     1     -39.247  10.928 -17.667  1.00  0.00     0.210 HD
ENDBRANCH  14  15
BRANCH  14  17
HETATM   17  C14 UNL     1     -40.098  13.791 -16.647  1.00  0.00     0.127 C 
HETATM   18  S1  UNL     1     -39.093  14.855 -15.622  1.00  0.00    -0.095 SA
ENDBRANCH  14  17
ENDBRANCH  11  14
ENDBRANCH   9  10
BRANCH   9  19
HETATM   19  C15 UNL     1     -39.941  12.761 -22.292  1.00  0.00     0.009 C 
HETATM   20  C16 UNL     1     -40.477  11.485 -21.770  1.00  0.00     0.012 C 
HETATM   21  C17 UNL     1     -38.628  12.548 -22.972  1.00  0.00     0.012 C 
ENDBRANCH   9  19
ENDBRANCH   5   9
BRANCH   1  22
HETATM   22  N1  UNL     1     -46.302  14.239 -19.647  1.00  0.00    -0.282 N 
HETATM   23  C6  UNL     1     -47.346  14.461 -20.465  1.00  0.00     0.138 A 
HETATM   24  C5  UNL     1     -48.455  13.986 -19.824  1.00  0.00     0.044 A 
HETATM   25  N5  UNL     1     -48.033  13.489 -18.628  1.00  0.00    -0.289 N 
HETATM   26  N4  UNL     1     -46.746  13.646 -18.534  1.00  0.00    -0.240 N 
ATOM     27  H5  UNL     1     -48.631  13.062 -17.920  1.00  0.00     0.188 HD
ATOM     28  H4  UNL     1     -46.170  13.364 -17.741  1.00  0.00     0.208 HD
BRANCH  24  29
HETATM   29  C4  UNL     1     -49.878  13.937 -20.204  1.00  0.00     0.064 C 
BRANCH  29  30
HETATM   30  C2  UNL     1     -50.114  13.746 -21.665  1.00  0.00    -0.017 C 
HETATM   31  C1  UNL     1     -51.086  12.643 -21.921  1.00  0.00     0.010 C 
HETATM   32  C3  UNL     1     -50.686  15.067 -22.198  1.00  0.00     0.010 C 
ENDBRANCH  29  30
ENDBRANCH  24  29
ENDBRANCH   1  22
TORSDOF 9
ENDMDL
