MODEL 1
REMARK VINA RESULT: -6.268663918      0.000      0.000
REMARK  5 active torsions:
REMARK  status: ('A' for Active; 'I' for Inactive)
REMARK    1  A    between atoms: C2_2  and  C3_3 
REMARK    2  A    between atoms: C3_3  and  C4_4 
REMARK    3  A    between atoms: C4_4  and  O1_5 
REMARK    4  A    between atoms: C8_11  and  O3_13 
REMARK    5  A    between atoms: C13_18  and  O4_19 
ROOT
HETATM    1  C3  UNL     1     -14.028  -2.662  30.473  1.00  0.00     0.108 C 
HETATM    2  O2  UNL     1     -13.753  -3.555  29.467  1.00  0.00    -0.369 OA
HETATM    3  C5  UNL     1     -14.868  -4.368  29.293  1.00  0.00     0.140 C 
HETATM    4  C6  UNL     1     -15.299  -4.633  30.719  1.00  0.00     0.050 C 
HETATM    5  C7  UNL     1     -14.369  -5.725  31.144  1.00  0.00     0.048 C 
HETATM    6  C8  UNL     1     -14.423  -6.666  29.946  1.00  0.00     0.064 C 
HETATM    7  C9  UNL     1     -13.238  -7.590  29.908  1.00  0.00     0.046 C 
HETATM    8  C10 UNL     1     -14.504  -5.743  28.784  1.00  0.00     0.010 C 
HETATM    9  C11 UNL     1     -15.654  -6.225  27.889  1.00  0.00     0.020 C 
HETATM   10  C12 UNL     1     -13.279  -5.699  27.932  1.00  0.00     0.020 C 
HETATM   11  C13 UNL     1     -15.046  -3.316  31.383  1.00  0.00     0.161 C 
ENDROOT
BRANCH   1  12
HETATM   12  C2  UNL     1     -12.818  -2.344  31.318  1.00  0.00     0.038 C 
HETATM   13  C1  UNL     1     -11.587  -3.065  30.855  1.00  0.00     0.008 C 
ENDBRANCH   1  12
BRANCH   1  14
HETATM   14  C4  UNL     1     -14.579  -1.344  29.955  1.00  0.00     0.204 C 
BRANCH  14  15
HETATM   15  O1  UNL     1     -15.604  -0.846  30.744  1.00  0.00    -0.398 OA
ATOM     16  H1  UNL     1     -16.001  -1.513  31.292  1.00  0.00     0.209 HD
ENDBRANCH  14  15
ENDBRANCH   1  14
BRANCH  11  17
HETATM   17  O4  UNL     1     -14.640  -3.401  32.689  1.00  0.00    -0.392 OA
ATOM     18  H4  UNL     1     -15.286  -3.086  33.309  1.00  0.00     0.210 HD
ENDBRANCH  11  17
BRANCH   6  19
HETATM   19  O3  UNL     1     -15.576  -7.429  30.096  1.00  0.00    -0.389 OA
ATOM     20  H3  UNL     1     -16.152  -7.190  29.380  1.00  0.00     0.210 HD
ENDBRANCH   6  19
TORSDOF 5
ENDMDL
MODEL 2
REMARK VINA RESULT: -6.127516325      2.539      3.716
REMARK  5 active torsions:
REMARK  status: ('A' for Active; 'I' for Inactive)
REMARK    1  A    between atoms: C2_2  and  C3_3 
REMARK    2  A    between atoms: C3_3  and  C4_4 
REMARK    3  A    between atoms: C4_4  and  O1_5 
REMARK    4  A    between atoms: C8_11  and  O3_13 
REMARK    5  A    between atoms: C13_18  and  O4_19 
ROOT
HETATM    1  C3  UNL     1     -17.515  -3.157  29.123  1.00  0.00     0.108 C 
HETATM    2  O2  UNL     1     -16.745  -4.222  28.724  1.00  0.00    -0.369 OA
HETATM    3  C5  UNL     1     -16.161  -4.780  29.855  1.00  0.00     0.140 C 
HETATM    4  C6  UNL     1     -15.765  -3.555  30.651  1.00  0.00     0.050 C 
HETATM    5  C7  UNL     1     -14.484  -3.140  29.996  1.00  0.00     0.048 C 
HETATM    6  C8  UNL     1     -13.751  -4.470  29.873  1.00  0.00     0.064 C 
HETATM    7  C9  UNL     1     -12.661  -4.413  28.840  1.00  0.00     0.046 C 
HETATM    8  C10 UNL     1     -14.833  -5.436  29.553  1.00  0.00     0.010 C 
HETATM    9  C11 UNL     1     -14.682  -6.633  30.502  1.00  0.00     0.020 C 
HETATM   10  C12 UNL     1     -14.800  -5.976  28.162  1.00  0.00     0.020 C 
HETATM   11  C13 UNL     1     -16.911  -2.625  30.405  1.00  0.00     0.161 C 
ENDROOT
BRANCH   1  12
HETATM   12  C2  UNL     1     -17.505  -2.023  28.125  1.00  0.00     0.038 C 
HETATM   13  C1  UNL     1     -18.246  -2.360  26.864  1.00  0.00     0.008 C 
ENDBRANCH   1  12
BRANCH   1  14
HETATM   14  C4  UNL     1     -18.967  -3.537  29.362  1.00  0.00     0.204 C 
BRANCH  14  15
HETATM   15  O1  UNL     1     -19.312  -3.512  30.704  1.00  0.00    -0.398 OA
ATOM     16  H1  UNL     1     -19.780  -2.722  30.947  1.00  0.00     0.209 HD
ENDBRANCH  14  15
ENDBRANCH   1  14
BRANCH  11  17
HETATM   17  O4  UNL     1     -16.571  -1.299  30.343  1.00  0.00    -0.392 OA
ATOM     18  H4  UNL     1     -15.656  -1.151  30.136  1.00  0.00     0.210 HD
ENDBRANCH  11  17
BRANCH   6  19
HETATM   19  O3  UNL     1     -13.172  -4.716  31.114  1.00  0.00    -0.389 OA
ATOM     20  H3  UNL     1     -12.325  -5.110  30.943  1.00  0.00     0.210 HD
ENDBRANCH   6  19
TORSDOF 5
ENDMDL
MODEL 3
REMARK VINA RESULT: -6.049240276      1.312      4.705
REMARK  5 active torsions:
REMARK  status: ('A' for Active; 'I' for Inactive)
REMARK    1  A    between atoms: C2_2  and  C3_3 
REMARK    2  A    between atoms: C3_3  and  C4_4 
REMARK    3  A    between atoms: C4_4  and  O1_5 
REMARK    4  A    between atoms: C8_11  and  O3_13 
REMARK    5  A    between atoms: C13_18  and  O4_19 
ROOT
HETATM    1  C3  UNL     1     -13.825  -6.194  29.802  1.00  0.00     0.108 C 
HETATM    2  O2  UNL     1     -13.256  -5.049  30.303  1.00  0.00    -0.369 OA
HETATM    3  C5  UNL     1     -14.109  -4.533  31.273  1.00  0.00     0.140 C 
HETATM    4  C6  UNL     1     -15.470  -4.731  30.644  1.00  0.00     0.050 C 
HETATM    5  C7  UNL     1     -15.570  -3.569  29.706  1.00  0.00     0.048 C 
HETATM    6  C8  UNL     1     -15.088  -2.419  30.583  1.00  0.00     0.064 C 
HETATM    7  C9  UNL     1     -14.645  -1.240  29.763  1.00  0.00     0.046 C 
HETATM    8  C10 UNL     1     -14.001  -3.030  31.392  1.00  0.00     0.010 C 
HETATM    9  C11 UNL     1     -14.255  -2.663  32.861  1.00  0.00     0.020 C 
HETATM   10  C12 UNL     1     -12.626  -2.557  31.056  1.00  0.00     0.020 C 
HETATM   11  C13 UNL     1     -15.324  -6.057  29.966  1.00  0.00     0.161 C 
ENDROOT
BRANCH   1  12
HETATM   12  C2  UNL     1     -13.556  -6.382  28.327  1.00  0.00     0.038 C 
HETATM   13  C1  UNL     1     -12.916  -5.177  27.702  1.00  0.00     0.008 C 
ENDBRANCH   1  12
BRANCH   1  14
HETATM   14  C4  UNL     1     -13.346  -7.449  30.513  1.00  0.00     0.204 C 
BRANCH  14  15
HETATM   15  O1  UNL     1     -12.828  -8.393  29.641  1.00  0.00    -0.398 OA
ATOM     16  H1  UNL     1     -13.503  -8.881  29.186  1.00  0.00     0.209 HD
ENDBRANCH  14  15
ENDBRANCH   1  14
BRANCH  11  17
HETATM   17  O4  UNL     1     -16.018  -6.181  28.791  1.00  0.00    -0.392 OA
ATOM     18  H4  UNL     1     -16.825  -6.673  28.877  1.00  0.00     0.210 HD
ENDBRANCH  11  17
BRANCH   6  19
HETATM   19  O3  UNL     1     -16.174  -2.034  31.361  1.00  0.00    -0.389 OA
ATOM     20  H3  UNL     1     -15.819  -1.729  32.187  1.00  0.00     0.210 HD
ENDBRANCH   6  19
TORSDOF 5
ENDMDL
MODEL 4
REMARK VINA RESULT: -6.038281025      2.364      4.033
REMARK  5 active torsions:
REMARK  status: ('A' for Active; 'I' for Inactive)
REMARK    1  A    between atoms: C2_2  and  C3_3 
REMARK    2  A    between atoms: C3_3  and  C4_4 
REMARK    3  A    between atoms: C4_4  and  O1_5 
REMARK    4  A    between atoms: C8_11  and  O3_13 
REMARK    5  A    between atoms: C13_18  and  O4_19 
ROOT
HETATM    1  C3  UNL     1     -17.205  -2.664  29.805  1.00  0.00     0.108 C 
HETATM    2  O2  UNL     1     -16.611  -3.827  30.231  1.00  0.00    -0.369 OA
HETATM    3  C5  UNL     1     -15.740  -3.513  31.267  1.00  0.00     0.140 C 
HETATM    4  C6  UNL     1     -15.099  -2.234  30.773  1.00  0.00     0.050 C 
HETATM    5  C7  UNL     1     -14.052  -2.736  29.829  1.00  0.00     0.048 C 
HETATM    6  C8  UNL     1     -13.419  -3.864  30.635  1.00  0.00     0.064 C 
HETATM    7  C9  UNL     1     -12.673  -4.828  29.756  1.00  0.00     0.046 C 
HETATM    8  C10 UNL     1     -14.573  -4.471  31.349  1.00  0.00     0.010 C 
HETATM    9  C11 UNL     1     -14.185  -4.603  32.828  1.00  0.00     0.020 C 
HETATM   10  C12 UNL     1     -14.957  -5.833  30.876  1.00  0.00     0.020 C 
HETATM   11  C13 UNL     1     -16.243  -1.535  30.108  1.00  0.00     0.161 C 
ENDROOT
BRANCH   1  12
HETATM   12  C2  UNL     1     -17.454  -2.647  28.316  1.00  0.00     0.038 C 
HETATM   13  C1  UNL     1     -17.348  -4.011  27.699  1.00  0.00     0.008 C 
ENDBRANCH   1  12
BRANCH   1  14
HETATM   14  C4  UNL     1     -18.535  -2.399  30.490  1.00  0.00     0.204 C 
BRANCH  14  15
HETATM   15  O1  UNL     1     -19.222  -3.564  30.794  1.00  0.00    -0.398 OA
ATOM     16  H1  UNL     1     -18.715  -4.346  30.609  1.00  0.00     0.209 HD
ENDBRANCH  14  15
ENDBRANCH   1  14
BRANCH  11  17
HETATM   17  O4  UNL     1     -15.901  -0.795  29.007  1.00  0.00    -0.392 OA
ATOM     18  H4  UNL     1     -15.750   0.123  29.198  1.00  0.00     0.210 HD
ENDBRANCH  11  17
BRANCH   6  19
HETATM   19  O3  UNL     1     -12.514  -3.266  31.506  1.00  0.00    -0.389 OA
ATOM     20  H3  UNL     1     -12.789  -3.503  32.384  1.00  0.00     0.210 HD
ENDBRANCH   6  19
TORSDOF 5
ENDMDL
MODEL 5
REMARK VINA RESULT: -5.850683905      2.004      3.435
REMARK  5 active torsions:
REMARK  status: ('A' for Active; 'I' for Inactive)
REMARK    1  A    between atoms: C2_2  and  C3_3 
REMARK    2  A    between atoms: C3_3  and  C4_4 
REMARK    3  A    between atoms: C4_4  and  O1_5 
REMARK    4  A    between atoms: C8_11  and  O3_13 
REMARK    5  A    between atoms: C13_18  and  O4_19 
ROOT
HETATM    1  C3  UNL     1     -16.336  -3.201  30.126  1.00  0.00     0.108 C 
HETATM    2  O2  UNL     1     -15.399  -3.535  31.072  1.00  0.00    -0.369 OA
HETATM    3  C5  UNL     1     -14.258  -3.979  30.412  1.00  0.00     0.140 C 
HETATM    4  C6  UNL     1     -14.838  -4.822  29.297  1.00  0.00     0.050 C 
HETATM    5  C7  UNL     1     -15.139  -6.116  29.987  1.00  0.00     0.048 C 
HETATM    6  C8  UNL     1     -13.862  -6.348  30.785  1.00  0.00     0.064 C 
HETATM    7  C9  UNL     1     -14.078  -7.314  31.916  1.00  0.00     0.046 C 
HETATM    8  C10 UNL     1     -13.475  -4.982  31.227  1.00  0.00     0.010 C 
HETATM    9  C11 UNL     1     -11.989  -4.791  30.894  1.00  0.00     0.020 C 
HETATM   10  C12 UNL     1     -13.629  -4.729  32.690  1.00  0.00     0.020 C 
HETATM   11  C13 UNL     1     -16.051  -4.041  28.899  1.00  0.00     0.161 C 
ENDROOT
BRANCH   1  12
HETATM   12  C2  UNL     1     -17.746  -3.519  30.563  1.00  0.00     0.038 C 
HETATM   13  C1  UNL     1     -18.712  -2.419  30.236  1.00  0.00     0.008 C 
ENDBRANCH   1  12
BRANCH   1  14
HETATM   14  C4  UNL     1     -16.298  -1.727  29.755  1.00  0.00     0.204 C 
BRANCH  14  15
HETATM   15  O1  UNL     1     -15.725  -0.943  30.744  1.00  0.00    -0.398 OA
ATOM     16  H1  UNL     1     -15.369  -1.457  31.459  1.00  0.00     0.209 HD
ENDBRANCH  14  15
ENDBRANCH   1  14
BRANCH  11  17
HETATM   17  O4  UNL     1     -17.117  -4.802  28.495  1.00  0.00    -0.392 OA
ATOM     18  H4  UNL     1     -17.133  -4.967  27.560  1.00  0.00     0.210 HD
ENDBRANCH  11  17
BRANCH   6  19
HETATM   19  O3  UNL     1     -12.939  -6.898  29.902  1.00  0.00    -0.389 OA
ATOM     20  H3  UNL     1     -12.114  -6.946  30.370  1.00  0.00     0.210 HD
ENDBRANCH   6  19
TORSDOF 5
ENDMDL
