MODEL 1
REMARK VINA RESULT: -6.637010173      0.000      0.000
REMARK  12 active torsions:
REMARK  status: ('A' for Active; 'I' for Inactive)
REMARK       I    between atoms: C2_2  and  N1_4 
REMARK    1  A    between atoms: N1_4  and  C3_5 
REMARK    2  A    between atoms: N1_4  and  C15_38 
REMARK    3  A    between atoms: C3_5  and  C4_6 
REMARK    4  A    between atoms: C5_9  and  N3_10 
REMARK    5  A    between atoms: N3_10  and  N4_12 
REMARK    6  A    between atoms: N4_12  and  C6_14 
REMARK    7  A    between atoms: C11_20  and  O3_21 
REMARK       I    between atoms: N6_26  and  C13_27 
REMARK    8  A    between atoms: C13_27  and  C14_29 
REMARK    9  A    between atoms: C14_29  and  N7_30 
REMARK   10  A    between atoms: C14_29  and  N8_34 
REMARK   11  A    between atoms: C15_38  and  N9_39 
REMARK   12  A    between atoms: C15_38  and  O5_43 
ROOT
HETATM    1  C4  UNL     1      32.418  37.972  12.457  1.00  0.00     0.141 A 
HETATM    2  N2  UNL     1      31.763  38.377  11.329  1.00  0.00    -0.174 N 
ATOM      3  H2  UNL     1      30.956  39.000  11.308  1.00  0.00     0.185 HD
HETATM    4  C5  UNL     1      32.346  37.826  10.254  1.00  0.00     0.713 A 
HETATM    5  N5  UNL     1      33.356  37.088  10.733  1.00  0.00    -0.120 N 
ATOM      6  H5  UNL     1      33.997  36.540  10.159  1.00  0.00     0.206 HD
HETATM    7  N6  UNL     1      33.409  37.169  12.070  1.00  0.00    -0.191 N 
HETATM    8  C13 UNL     1      34.393  36.488  12.819  1.00  0.00     0.302 C 
HETATM    9  O4  UNL     1      34.401  36.617  14.068  1.00  0.00    -0.267 OA
ENDROOT
BRANCH   4  10
HETATM   10  N3  UNL     1      31.934  38.020   8.900  1.00  0.00    -0.130 N 
ATOM     11  H3  UNL     1      32.461  37.581   8.146  1.00  0.00     0.205 HD
BRANCH  10  12
HETATM   12  N4  UNL     1      30.835  38.793   8.603  1.00  0.00    -0.286 N 
ATOM     13  H4  UNL     1      30.174  39.016   9.349  1.00  0.00     0.187 HD
BRANCH  12  14
HETATM   14  C6  UNL     1      30.589  39.286   7.314  1.00  0.00     0.051 C 
HETATM   15  C7  UNL     1      29.812  38.510   6.470  1.00  0.00     0.031 C 
HETATM   16  C8  UNL     1      29.080  38.878   5.351  1.00  0.00     0.006 C 
HETATM   17  C9  UNL     1      29.154  40.034   4.604  1.00  0.00     0.058 C 
HETATM   18  C10 UNL     1      29.978  41.114   4.842  1.00  0.00     0.204 C 
HETATM   19  O2  UNL     1      30.071  41.965   3.936  1.00  0.00    -0.285 OA
HETATM   20  C11 UNL     1      30.734  41.379   5.989  1.00  0.00     0.118 C 
HETATM   21  C12 UNL     1      31.133  40.504   6.973  1.00  0.00     0.071 C 
BRANCH  20  22
HETATM   22  O3  UNL     1      31.115  42.704   6.127  1.00  0.00    -0.357 OA
ATOM     23  H3  UNL     1      31.103  43.023   7.022  1.00  0.00     0.218 HD
ENDBRANCH  20  22
ENDBRANCH  12  14
ENDBRANCH  10  12
ENDBRANCH   4  10
BRANCH   1  24
HETATM   24  C3  UNL     1      32.020  38.407  13.792  1.00  0.00     0.209 C 
BRANCH  24  25
HETATM   25  N1  UNL     1      30.642  38.060  14.113  1.00  0.00    -0.296 N 
HETATM   26  C2  UNL     1      30.254  36.753  14.483  1.00  0.00     0.219 C 
HETATM   27  C1  UNL     1      28.883  36.364  14.813  1.00  0.00     0.117 C 
HETATM   28  O1  UNL     1      31.163  35.866  14.529  1.00  0.00    -0.274 OA
BRANCH  25  29
HETATM   29  C15 UNL     1      29.655  39.100  14.045  1.00  0.00     0.428 C 
BRANCH  29  30
HETATM   30  N9  UNL     1      30.047  40.135  14.987  1.00  0.00    -0.035 N 
ATOM     31  H93 UNL     1      30.968  39.975  15.393  1.00  0.00     0.279 HD
ATOM     32  H92 UNL     1      30.252  41.026  14.536  1.00  0.00     0.279 HD
ATOM     33  H91 UNL     1      29.310  40.205  15.689  1.00  0.00     0.279 HD
ENDBRANCH  29  30
BRANCH  29  34
HETATM   34  O5  UNL     1      29.490  39.614  12.764  1.00  0.00    -0.354 OA
ATOM     35  H5  UNL     1      28.762  39.222  12.295  1.00  0.00     0.213 HD
ENDBRANCH  29  34
ENDBRANCH  25  29
ENDBRANCH  24  25
ENDBRANCH   1  24
BRANCH   8  36
HETATM   36  C14 UNL     1      35.428  35.623  12.230  1.00  0.00     0.470 C 
BRANCH  36  37
HETATM   37  N7  UNL     1      34.965  34.313  11.888  1.00  0.00    -0.041 N 
ATOM     38  H73 UNL     1      34.395  33.927  12.640  1.00  0.00     0.277 HD
ATOM     39  H72 UNL     1      34.265  34.363  11.148  1.00  0.00     0.277 HD
ATOM     40  H71 UNL     1      35.710  33.664  11.633  1.00  0.00     0.277 HD
ENDBRANCH  36  37
BRANCH  36  41
HETATM   41  N8  UNL     1      36.599  35.517  13.120  1.00  0.00    -0.041 N 
ATOM     42  H83 UNL     1      36.337  35.185  14.048  1.00  0.00     0.277 HD
ATOM     43  H82 UNL     1      37.210  34.748  12.846  1.00  0.00     0.277 HD
ATOM     44  H81 UNL     1      37.105  36.402  13.167  1.00  0.00     0.277 HD
ENDBRANCH  36  41
ENDBRANCH   8  36
TORSDOF 12
ENDMDL
MODEL 2
REMARK VINA RESULT: -6.516025727      1.558      4.460
REMARK  12 active torsions:
REMARK  status: ('A' for Active; 'I' for Inactive)
REMARK       I    between atoms: C2_2  and  N1_4 
REMARK    1  A    between atoms: N1_4  and  C3_5 
REMARK    2  A    between atoms: N1_4  and  C15_38 
REMARK    3  A    between atoms: C3_5  and  C4_6 
REMARK    4  A    between atoms: C5_9  and  N3_10 
REMARK    5  A    between atoms: N3_10  and  N4_12 
REMARK    6  A    between atoms: N4_12  and  C6_14 
REMARK    7  A    between atoms: C11_20  and  O3_21 
REMARK       I    between atoms: N6_26  and  C13_27 
REMARK    8  A    between atoms: C13_27  and  C14_29 
REMARK    9  A    between atoms: C14_29  and  N7_30 
REMARK   10  A    between atoms: C14_29  and  N8_34 
REMARK   11  A    between atoms: C15_38  and  N9_39 
REMARK   12  A    between atoms: C15_38  and  O5_43 
ROOT
HETATM    1  C4  UNL     1      32.597  37.230  12.799  1.00  0.00     0.141 A 
HETATM    2  N2  UNL     1      32.824  38.093  11.765  1.00  0.00    -0.174 N 
ATOM      3  H2  UNL     1      33.686  38.148  11.222  1.00  0.00     0.185 HD
HETATM    4  C5  UNL     1      31.739  38.857  11.577  1.00  0.00     0.713 A 
HETATM    5  N5  UNL     1      30.852  38.454  12.497  1.00  0.00    -0.120 N 
ATOM      6  H5  UNL     1      29.917  38.846  12.613  1.00  0.00     0.206 HD
HETATM    7  N6  UNL     1      31.363  37.466  13.245  1.00  0.00    -0.191 N 
HETATM    8  C13 UNL     1      30.623  36.859  14.283  1.00  0.00     0.302 C 
HETATM    9  O4  UNL     1      31.151  35.926  14.938  1.00  0.00    -0.267 OA
ENDROOT
BRANCH   4  10
HETATM   10  N3  UNL     1      31.607  39.876  10.584  1.00  0.00    -0.130 N 
ATOM     11  H3  UNL     1      32.358  40.552  10.452  1.00  0.00     0.205 HD
BRANCH  10  12
HETATM   12  N4  UNL     1      30.475  39.955   9.804  1.00  0.00    -0.286 N 
ATOM     13  H4  UNL     1      29.575  40.114  10.258  1.00  0.00     0.187 HD
BRANCH  12  14
HETATM   14  C6  UNL     1      30.514  39.825   8.409  1.00  0.00     0.051 C 
HETATM   15  C7  UNL     1      29.984  38.669   7.859  1.00  0.00     0.031 C 
HETATM   16  C8  UNL     1      29.517  38.432   6.575  1.00  0.00     0.006 C 
HETATM   17  C9  UNL     1      29.716  39.167   5.427  1.00  0.00     0.058 C 
HETATM   18  C10 UNL     1      30.419  40.349   5.320  1.00  0.00     0.204 C 
HETATM   19  O2  UNL     1      30.685  40.747   4.169  1.00  0.00    -0.285 OA
HETATM   20  C11 UNL     1      30.878  41.169   6.356  1.00  0.00     0.118 C 
HETATM   21  C12 UNL     1      31.074  40.850   7.679  1.00  0.00     0.071 C 
BRANCH  20  22
HETATM   22  O3  UNL     1      31.164  42.469   5.968  1.00  0.00    -0.357 OA
ATOM     23  H3  UNL     1      32.065  42.732   6.119  1.00  0.00     0.218 HD
ENDBRANCH  20  22
ENDBRANCH  12  14
ENDBRANCH  10  12
ENDBRANCH   4  10
BRANCH   1  24
HETATM   24  C3  UNL     1      33.594  36.263  13.245  1.00  0.00     0.209 C 
BRANCH  24  25
HETATM   25  N1  UNL     1      34.887  36.444  12.600  1.00  0.00    -0.296 N 
HETATM   26  C2  UNL     1      35.872  37.322  13.104  1.00  0.00     0.219 C 
HETATM   27  C1  UNL     1      37.181  37.532  12.488  1.00  0.00     0.117 C 
HETATM   28  O1  UNL     1      35.592  37.965  14.164  1.00  0.00    -0.274 OA
BRANCH  25  29
HETATM   29  C15 UNL     1      35.153  35.693  11.405  1.00  0.00     0.428 C 
BRANCH  29  30
HETATM   30  N9  UNL     1      35.278  34.297  11.787  1.00  0.00    -0.035 N 
ATOM     31  H93 UNL     1      35.679  34.173  12.716  1.00  0.00     0.279 HD
ATOM     32  H92 UNL     1      34.378  33.852  11.970  1.00  0.00     0.279 HD
ATOM     33  H91 UNL     1      35.813  33.827  11.057  1.00  0.00     0.279 HD
ENDBRANCH  29  30
BRANCH  29  34
HETATM   34  O5  UNL     1      34.183  35.867  10.424  1.00  0.00    -0.354 OA
ATOM     35  H5  UNL     1      34.512  36.303   9.647  1.00  0.00     0.213 HD
ENDBRANCH  29  34
ENDBRANCH  25  29
ENDBRANCH  24  25
ENDBRANCH   1  24
BRANCH   8  36
HETATM   36  C14 UNL     1      29.254  37.247  14.658  1.00  0.00     0.470 C 
BRANCH  36  37
HETATM   37  N7  UNL     1      29.189  38.158  15.761  1.00  0.00    -0.041 N 
ATOM     38  H73 UNL     1      28.728  37.722  16.558  1.00  0.00     0.277 HD
ATOM     39  H72 UNL     1      30.117  38.306  16.157  1.00  0.00     0.277 HD
ATOM     40  H71 UNL     1      28.749  39.050  15.536  1.00  0.00     0.277 HD
ENDBRANCH  36  37
BRANCH  36  41
HETATM   41  N8  UNL     1      28.428  36.062  14.947  1.00  0.00    -0.041 N 
ATOM     42  H83 UNL     1      27.904  35.759  14.125  1.00  0.00     0.277 HD
ATOM     43  H82 UNL     1      29.000  35.228  15.082  1.00  0.00     0.277 HD
ATOM     44  H81 UNL     1      27.813  36.228  15.743  1.00  0.00     0.277 HD
ENDBRANCH  36  41
ENDBRANCH   8  36
TORSDOF 12
ENDMDL
MODEL 3
REMARK VINA RESULT: -6.474958754      4.118      9.615
REMARK  12 active torsions:
REMARK  status: ('A' for Active; 'I' for Inactive)
REMARK       I    between atoms: C2_2  and  N1_4 
REMARK    1  A    between atoms: N1_4  and  C3_5 
REMARK    2  A    between atoms: N1_4  and  C15_38 
REMARK    3  A    between atoms: C3_5  and  C4_6 
REMARK    4  A    between atoms: C5_9  and  N3_10 
REMARK    5  A    between atoms: N3_10  and  N4_12 
REMARK    6  A    between atoms: N4_12  and  C6_14 
REMARK    7  A    between atoms: C11_20  and  O3_21 
REMARK       I    between atoms: N6_26  and  C13_27 
REMARK    8  A    between atoms: C13_27  and  C14_29 
REMARK    9  A    between atoms: C14_29  and  N7_30 
REMARK   10  A    between atoms: C14_29  and  N8_34 
REMARK   11  A    between atoms: C15_38  and  N9_39 
REMARK   12  A    between atoms: C15_38  and  O5_43 
ROOT
HETATM    1  C4  UNL     1      28.810  42.338   5.183  1.00  0.00     0.141 A 
HETATM    2  N2  UNL     1      29.577  41.730   6.136  1.00  0.00    -0.174 N 
ATOM      3  H2  UNL     1      29.547  41.933   7.135  1.00  0.00     0.185 HD
HETATM    4  C5  UNL     1      30.374  40.823   5.553  1.00  0.00     0.713 A 
HETATM    5  N5  UNL     1      30.089  40.882   4.245  1.00  0.00    -0.120 N 
ATOM      6  H5  UNL     1      30.532  40.308   3.528  1.00  0.00     0.206 HD
HETATM    7  N6  UNL     1      29.140  41.799   4.009  1.00  0.00    -0.191 N 
HETATM    8  C13 UNL     1      28.653  42.049   2.708  1.00  0.00     0.302 C 
HETATM    9  O4  UNL     1      27.751  42.910   2.553  1.00  0.00    -0.267 OA
ENDROOT
BRANCH   4  10
HETATM   10  N3  UNL     1      31.316  39.992   6.232  1.00  0.00    -0.130 N 
ATOM     11  H3  UNL     1      32.312  40.102   6.046  1.00  0.00     0.205 HD
BRANCH  10  12
HETATM   12  N4  UNL     1      30.893  39.043   7.136  1.00  0.00    -0.286 N 
ATOM     13  H4  UNL     1      30.323  38.265   6.802  1.00  0.00     0.187 HD
BRANCH  12  14
HETATM   14  C6  UNL     1      31.216  39.108   8.499  1.00  0.00     0.051 C 
HETATM   15  C7  UNL     1      30.726  40.182   9.223  1.00  0.00     0.031 C 
HETATM   16  C8  UNL     1      30.524  40.312  10.588  1.00  0.00     0.006 C 
HETATM   17  C9  UNL     1      31.017  39.542  11.619  1.00  0.00     0.058 C 
HETATM   18  C10 UNL     1      31.817  38.425  11.498  1.00  0.00     0.204 C 
HETATM   19  O2  UNL     1      32.350  37.996  12.540  1.00  0.00    -0.285 OA
HETATM   20  C11 UNL     1      32.109  37.701  10.337  1.00  0.00     0.118 C 
HETATM   21  C12 UNL     1      31.995  38.102   9.027  1.00  0.00     0.071 C 
BRANCH  20  22
HETATM   22  O3  UNL     1      32.571  36.415  10.569  1.00  0.00    -0.357 OA
ATOM     23  H3  UNL     1      32.906  35.975   9.796  1.00  0.00     0.218 HD
ENDBRANCH  20  22
ENDBRANCH  12  14
ENDBRANCH  10  12
ENDBRANCH   4  10
BRANCH   1  24
HETATM   24  C3  UNL     1      27.835  43.374   5.507  1.00  0.00     0.209 C 
BRANCH  24  25
HETATM   25  N1  UNL     1      28.428  44.515   6.191  1.00  0.00    -0.296 N 
HETATM   26  C2  UNL     1      29.033  45.586   5.497  1.00  0.00     0.219 C 
HETATM   27  C1  UNL     1      29.639  46.750   6.144  1.00  0.00     0.117 C 
HETATM   28  O1  UNL     1      29.046  45.525   4.227  1.00  0.00    -0.274 OA
BRANCH  25  29
HETATM   29  C15 UNL     1      28.386  44.535   7.626  1.00  0.00     0.428 C 
BRANCH  29  30
HETATM   30  N9  UNL     1      27.135  43.917   8.033  1.00  0.00    -0.035 N 
ATOM     31  H93 UNL     1      26.315  44.422   7.700  1.00  0.00     0.279 HD
ATOM     32  H92 UNL     1      26.953  43.035   7.555  1.00  0.00     0.279 HD
ATOM     33  H91 UNL     1      27.158  43.822   9.049  1.00  0.00     0.279 HD
ENDBRANCH  29  30
BRANCH  29  34
HETATM   34  O5  UNL     1      29.479  43.906   8.212  1.00  0.00    -0.354 OA
ATOM     35  H5  UNL     1      29.532  44.049   9.150  1.00  0.00     0.213 HD
ENDBRANCH  29  34
ENDBRANCH  25  29
ENDBRANCH  24  25
ENDBRANCH   1  24
BRANCH   8  36
HETATM   36  C14 UNL     1      29.135  41.362   1.499  1.00  0.00     0.470 C 
BRANCH  36  37
HETATM   37  N7  UNL     1      29.046  42.151   0.308  1.00  0.00    -0.041 N 
ATOM     38  H73 UNL     1      28.647  43.066   0.513  1.00  0.00     0.277 HD
ATOM     39  H72 UNL     1      29.976  42.433  -0.004  1.00  0.00     0.277 HD
ATOM     40  H71 UNL     1      28.536  41.699  -0.451  1.00  0.00     0.277 HD
ENDBRANCH  36  37
BRANCH  36  41
HETATM   41  N8  UNL     1      28.428  40.084   1.299  1.00  0.00    -0.041 N 
ATOM     42  H83 UNL     1      27.966  39.772   2.153  1.00  0.00     0.277 HD
ATOM     43  H82 UNL     1      27.604  40.198   0.710  1.00  0.00     0.277 HD
ATOM     44  H81 UNL     1      29.058  39.371   0.931  1.00  0.00     0.277 HD
ENDBRANCH  36  41
ENDBRANCH   8  36
TORSDOF 12
ENDMDL
MODEL 4
REMARK VINA RESULT: -6.473735056      2.058      4.849
REMARK  12 active torsions:
REMARK  status: ('A' for Active; 'I' for Inactive)
REMARK       I    between atoms: C2_2  and  N1_4 
REMARK    1  A    between atoms: N1_4  and  C3_5 
REMARK    2  A    between atoms: N1_4  and  C15_38 
REMARK    3  A    between atoms: C3_5  and  C4_6 
REMARK    4  A    between atoms: C5_9  and  N3_10 
REMARK    5  A    between atoms: N3_10  and  N4_12 
REMARK    6  A    between atoms: N4_12  and  C6_14 
REMARK    7  A    between atoms: C11_20  and  O3_21 
REMARK       I    between atoms: N6_26  and  C13_27 
REMARK    8  A    between atoms: C13_27  and  C14_29 
REMARK    9  A    between atoms: C14_29  and  N7_30 
REMARK   10  A    between atoms: C14_29  and  N8_34 
REMARK   11  A    between atoms: C15_38  and  N9_39 
REMARK   12  A    between atoms: C15_38  and  O5_43 
ROOT
HETATM    1  C4  UNL     1      32.720  37.432  12.763  1.00  0.00     0.141 A 
HETATM    2  N2  UNL     1      33.096  38.352  11.827  1.00  0.00    -0.174 N 
ATOM      3  H2  UNL     1      33.993  38.366  11.342  1.00  0.00     0.185 HD
HETATM    4  C5  UNL     1      32.102  39.233  11.645  1.00  0.00     0.713 A 
HETATM    5  N5  UNL     1      31.122  38.845  12.473  1.00  0.00    -0.120 N 
ATOM      6  H5  UNL     1      30.223  39.316  12.568  1.00  0.00     0.206 HD
HETATM    7  N6  UNL     1      31.487  37.751  13.157  1.00  0.00    -0.191 N 
HETATM    8  C13 UNL     1      30.626  37.136  14.092  1.00  0.00     0.302 C 
HETATM    9  O4  UNL     1      31.019  36.104  14.689  1.00  0.00    -0.267 OA
ENDROOT
BRANCH   4  10
HETATM   10  N3  UNL     1      32.133  40.339  10.742  1.00  0.00    -0.130 N 
ATOM     11  H3  UNL     1      33.024  40.776  10.510  1.00  0.00     0.205 HD
BRANCH  10  12
HETATM   12  N4  UNL     1      30.971  40.822  10.183  1.00  0.00    -0.286 N 
ATOM     13  H4  UNL     1      30.380  41.443  10.736  1.00  0.00     0.187 HD
BRANCH  12  14
HETATM   14  C6  UNL     1      30.571  40.493   8.880  1.00  0.00     0.051 C 
HETATM   15  C7  UNL     1      30.954  41.345   7.858  1.00  0.00     0.031 C 
HETATM   16  C8  UNL     1      31.073  41.101   6.498  1.00  0.00     0.006 C 
HETATM   17  C9  UNL     1      30.572  40.055   5.754  1.00  0.00     0.058 C 
HETATM   18  C10 UNL     1      29.850  38.980   6.231  1.00  0.00     0.204 C 
HETATM   19  O2  UNL     1      29.288  38.257   5.386  1.00  0.00    -0.285 OA
HETATM   20  C11 UNL     1      29.666  38.594   7.563  1.00  0.00     0.118 C 
HETATM   21  C12 UNL     1      29.827  39.347   8.703  1.00  0.00     0.071 C 
BRANCH  20  22
HETATM   22  O3  UNL     1      29.272  37.275   7.725  1.00  0.00    -0.357 OA
ATOM     23  H3  UNL     1      28.410  37.079   7.375  1.00  0.00     0.218 HD
ENDBRANCH  20  22
ENDBRANCH  12  14
ENDBRANCH  10  12
ENDBRANCH   4  10
BRANCH   1  24
HETATM   24  C3  UNL     1      33.590  36.336  13.179  1.00  0.00     0.209 C 
BRANCH  24  25
HETATM   25  N1  UNL     1      34.916  36.410  12.582  1.00  0.00    -0.296 N 
HETATM   26  C2  UNL     1      35.960  37.180  13.143  1.00  0.00     0.219 C 
HETATM   27  C1  UNL     1      37.305  37.281  12.577  1.00  0.00     0.117 C 
HETATM   28  O1  UNL     1      35.702  37.823  14.209  1.00  0.00    -0.274 OA
BRANCH  25  29
HETATM   29  C15 UNL     1      35.155  35.664  11.379  1.00  0.00     0.428 C 
BRANCH  29  30
HETATM   30  N9  UNL     1      35.248  34.262  11.746  1.00  0.00    -0.035 N 
ATOM     31  H93 UNL     1      36.207  33.955  11.908  1.00  0.00     0.279 HD
ATOM     32  H92 UNL     1      34.887  34.071  12.680  1.00  0.00     0.279 HD
ATOM     33  H91 UNL     1      34.776  33.723  11.020  1.00  0.00     0.279 HD
ENDBRANCH  29  30
BRANCH  29  34
HETATM   34  O5  UNL     1      34.183  35.872  10.406  1.00  0.00    -0.354 OA
ATOM     35  H5  UNL     1      34.072  35.129   9.825  1.00  0.00     0.213 HD
ENDBRANCH  29  34
ENDBRANCH  25  29
ENDBRANCH  24  25
ENDBRANCH   1  24
BRANCH   8  36
HETATM   36  C14 UNL     1      29.278  37.626  14.420  1.00  0.00     0.470 C 
BRANCH  36  37
HETATM   37  N7  UNL     1      29.256  38.631  15.439  1.00  0.00    -0.041 N 
ATOM     38  H73 UNL     1      29.204  38.203  16.363  1.00  0.00     0.277 HD
ATOM     39  H72 UNL     1      30.166  39.087  15.511  1.00  0.00     0.277 HD
ATOM     40  H71 UNL     1      28.516  39.323  15.323  1.00  0.00     0.277 HD
ENDBRANCH  36  37
BRANCH  36  41
HETATM   41  N8  UNL     1      28.389  36.514  14.803  1.00  0.00    -0.041 N 
ATOM     42  H83 UNL     1      28.877  35.618  14.783  1.00  0.00     0.277 HD
ATOM     43  H82 UNL     1      28.159  36.542  15.797  1.00  0.00     0.277 HD
ATOM     44  H81 UNL     1      27.550  36.498  14.223  1.00  0.00     0.277 HD
ENDBRANCH  36  41
ENDBRANCH   8  36
TORSDOF 12
ENDMDL
MODEL 5
REMARK VINA RESULT: -6.465416823      2.955      4.830
REMARK  12 active torsions:
REMARK  status: ('A' for Active; 'I' for Inactive)
REMARK       I    between atoms: C2_2  and  N1_4 
REMARK    1  A    between atoms: N1_4  and  C3_5 
REMARK    2  A    between atoms: N1_4  and  C15_38 
REMARK    3  A    between atoms: C3_5  and  C4_6 
REMARK    4  A    between atoms: C5_9  and  N3_10 
REMARK    5  A    between atoms: N3_10  and  N4_12 
REMARK    6  A    between atoms: N4_12  and  C6_14 
REMARK    7  A    between atoms: C11_20  and  O3_21 
REMARK       I    between atoms: N6_26  and  C13_27 
REMARK    8  A    between atoms: C13_27  and  C14_29 
REMARK    9  A    between atoms: C14_29  and  N7_30 
REMARK   10  A    between atoms: C14_29  and  N8_34 
REMARK   11  A    between atoms: C15_38  and  N9_39 
REMARK   12  A    between atoms: C15_38  and  O5_43 
ROOT
HETATM    1  C4  UNL     1      31.629  40.679  10.004  1.00  0.00     0.141 A 
HETATM    2  N2  UNL     1      31.341  40.829   8.678  1.00  0.00    -0.174 N 
ATOM      3  H2  UNL     1      31.172  41.718   8.209  1.00  0.00     0.185 HD
HETATM    4  C5  UNL     1      31.315  39.624   8.089  1.00  0.00     0.713 A 
HETATM    5  N5  UNL     1      31.589  38.744   9.062  1.00  0.00    -0.120 N 
ATOM      6  H5  UNL     1      31.644  37.734   8.931  1.00  0.00     0.206 HD
HETATM    7  N6  UNL     1      31.782  39.374  10.229  1.00  0.00    -0.191 N 
HETATM    8  C13 UNL     1      32.095  38.670  11.412  1.00  0.00     0.302 C 
HETATM    9  O4  UNL     1      32.280  39.318  12.472  1.00  0.00    -0.267 OA
ENDROOT
BRANCH   4  10
HETATM   10  N3  UNL     1      31.046  39.385   6.707  1.00  0.00    -0.130 N 
ATOM     11  H3  UNL     1      30.655  38.489   6.417  1.00  0.00     0.205 HD
BRANCH  10  12
HETATM   12  N4  UNL     1      31.308  40.351   5.762  1.00  0.00    -0.286 N 
ATOM     13  H4  UNL     1      32.278  40.614   5.584  1.00  0.00     0.187 HD
BRANCH  12  14
HETATM   14  C6  UNL     1      30.292  40.987   5.035  1.00  0.00     0.051 C 
HETATM   15  C7  UNL     1      29.502  41.904   5.708  1.00  0.00     0.031 C 
HETATM   16  C8  UNL     1      28.735  42.947   5.209  1.00  0.00     0.006 C 
HETATM   17  C9  UNL     1      28.313  43.177   3.918  1.00  0.00     0.058 C 
HETATM   18  C10 UNL     1      28.603  42.408   2.810  1.00  0.00     0.204 C 
HETATM   19  O2  UNL     1      27.951  42.640   1.773  1.00  0.00    -0.285 OA
HETATM   20  C11 UNL     1      29.551  41.385   2.701  1.00  0.00     0.118 C 
HETATM   21  C12 UNL     1      30.146  40.658   3.706  1.00  0.00     0.071 C 
BRANCH  20  22
HETATM   22  O3  UNL     1      29.921  41.088   1.398  1.00  0.00    -0.357 OA
ATOM     23  H3  UNL     1      30.489  41.735   0.996  1.00  0.00     0.218 HD
ENDBRANCH  20  22
ENDBRANCH  12  14
ENDBRANCH  10  12
ENDBRANCH   4  10
BRANCH   1  24
HETATM   24  C3  UNL     1      31.731  41.813  10.917  1.00  0.00     0.209 C 
BRANCH  24  25
HETATM   25  N1  UNL     1      33.046  42.438  10.898  1.00  0.00    -0.296 N 
HETATM   26  C2  UNL     1      33.479  43.267   9.839  1.00  0.00     0.219 C 
HETATM   27  C1  UNL     1      34.790  43.913   9.782  1.00  0.00     0.117 C 
HETATM   28  O1  UNL     1      32.668  43.457   8.879  1.00  0.00    -0.274 OA
BRANCH  25  29
HETATM   29  C15 UNL     1      33.924  42.190  12.007  1.00  0.00     0.428 C 
BRANCH  29  30
HETATM   30  N9  UNL     1      33.110  42.170  13.211  1.00  0.00    -0.035 N 
ATOM     31  H93 UNL     1      32.194  41.748  13.064  1.00  0.00     0.279 HD
ATOM     32  H92 UNL     1      33.451  41.511  13.910  1.00  0.00     0.279 HD
ATOM     33  H91 UNL     1      33.056  43.127  13.559  1.00  0.00     0.279 HD
ENDBRANCH  29  30
BRANCH  29  34
HETATM   34  O5  UNL     1      34.659  41.018  11.870  1.00  0.00    -0.354 OA
ATOM     35  H5  UNL     1      34.246  40.268  12.284  1.00  0.00     0.213 HD
ENDBRANCH  29  34
ENDBRANCH  25  29
ENDBRANCH  24  25
ENDBRANCH   1  24
BRANCH   8  36
HETATM   36  C14 UNL     1      32.223  37.206  11.493  1.00  0.00     0.470 C 
BRANCH  36  37
HETATM   37  N7  UNL     1      31.874  36.662  12.771  1.00  0.00    -0.041 N 
ATOM     38  H73 UNL     1      31.528  37.395  13.390  1.00  0.00     0.277 HD
ATOM     39  H72 UNL     1      31.034  36.088  12.698  1.00  0.00     0.277 HD
ATOM     40  H71 UNL     1      32.627  36.140  13.218  1.00  0.00     0.277 HD
ENDBRANCH  36  37
BRANCH  36  41
HETATM   41  N8  UNL     1      33.582  36.772  11.126  1.00  0.00    -0.041 N 
ATOM     42  H83 UNL     1      33.834  37.078  10.186  1.00  0.00     0.277 HD
ATOM     43  H82 UNL     1      34.294  37.281  11.650  1.00  0.00     0.277 HD
ATOM     44  H81 UNL     1      33.686  35.763  11.233  1.00  0.00     0.277 HD
ENDBRANCH  36  41
ENDBRANCH   8  36
TORSDOF 12
ENDMDL
