MODEL 1
REMARK VINA RESULT: -5.597189927      0.000      0.000
REMARK  10 active torsions:
REMARK  status: ('A' for Active; 'I' for Inactive)
REMARK    1  A    between atoms: N1_1  and  C1_4 
REMARK    2  A    between atoms: N3_7  and  O1_8 
REMARK    3  A    between atoms: C3_11  and  C4_12 
REMARK    4  A    between atoms: C4_12  and  N4_13 
REMARK    5  A    between atoms: C4_12  and  N5_17 
REMARK    6  A    between atoms: C6_22  and  C7_23 
REMARK    7  A    between atoms: C7_23  and  N6_24 
REMARK    8  A    between atoms: C9_31  and  N8_32 
REMARK    9  A    between atoms: N8_32  and  C10_34 
REMARK   10  A    between atoms: C10_34  and  C11_35 
ROOT
HETATM    1  C1  UNL     1      28.819  39.979   2.177  1.00  0.00     0.694 C 
HETATM    2  N2  UNL     1      29.026  39.365   3.391  1.00  0.00    -0.105 N 
ATOM      3  H2  UNL     1      28.663  38.417   3.483  1.00  0.00     0.208 HD
HETATM    4  N3  UNL     1      29.640  39.860   4.452  1.00  0.00    -0.146 N 
HETATM    5  C2  UNL     1      29.797  41.157   4.786  1.00  0.00     0.122 A 
HETATM    6  C3  UNL     1      29.944  41.267   6.154  1.00  0.00     0.034 A 
HETATM    7  C5  UNL     1      30.155  42.603   6.526  1.00  0.00     0.040 A 
HETATM    8  C6  UNL     1      30.205  43.654   5.664  1.00  0.00     0.036 A 
HETATM    9  N7  UNL     1      30.049  43.444   4.371  1.00  0.00    -0.353 N 
ATOM     10  H7  UNL     1      30.086  44.233   3.726  1.00  0.00     0.166 HD
HETATM   11  C8  UNL     1      29.846  42.238   3.902  1.00  0.00     0.109 A 
HETATM   12  C9  UNL     1      29.700  42.240   2.538  1.00  0.00     0.146 C 
HETATM   13  N9  UNL     1      29.201  41.223   1.800  1.00  0.00    -0.174 N 
ATOM     14  H9  UNL     1      29.097  41.423   0.805  1.00  0.00     0.186 HD
ENDROOT
BRANCH   6  15
HETATM   15  C4  UNL     1      29.855  40.200   7.137  1.00  0.00     0.413 C 
BRANCH  15  16
HETATM   16  N4  UNL     1      30.924  40.227   8.150  1.00  0.00    -0.046 N 
ATOM     17  H43 UNL     1      31.368  41.145   8.177  1.00  0.00     0.277 HD
ATOM     18  H42 UNL     1      30.527  40.199   9.090  1.00  0.00     0.277 HD
ATOM     19  H41 UNL     1      31.624  39.494   8.036  1.00  0.00     0.277 HD
ENDBRANCH  15  16
BRANCH  15  20
HETATM   20  N5  UNL     1      28.858  40.875   8.095  1.00  0.00    -0.046 N 
ATOM     21  H53 UNL     1      28.360  41.690   7.737  1.00  0.00     0.277 HD
ATOM     22  H52 UNL     1      28.003  40.360   8.302  1.00  0.00     0.277 HD
ATOM     23  H51 UNL     1      29.497  41.035   8.874  1.00  0.00     0.277 HD
ENDBRANCH  15  20
ENDBRANCH   6  15
BRANCH   4  24
HETATM   24  O1  UNL     1      30.209  39.024   5.323  1.00  0.00    -0.267 OA
ATOM     25  H1  UNL     1      30.384  39.325   6.207  1.00  0.00     0.247 HD
ENDBRANCH   4  24
BRANCH   8  26
HETATM   26  C7  UNL     1      30.437  45.051   6.179  1.00  0.00     0.286 C 
BRANCH  26  27
HETATM   27  N6  UNL     1      29.696  46.016   5.402  1.00  0.00    -0.074 N 
ATOM     28  H63 UNL     1      30.260  46.403   4.644  1.00  0.00     0.274 HD
ATOM     29  H62 UNL     1      28.969  45.571   4.841  1.00  0.00     0.274 HD
ATOM     30  H61 UNL     1      29.315  46.749   6.000  1.00  0.00     0.274 HD
ENDBRANCH  26  27
ENDBRANCH   8  26
BRANCH  12  31
HETATM   31  N8  UNL     1      30.072  43.306   1.944  1.00  0.00    -0.364 N 
ATOM     32  H8  UNL     1      31.007  43.676   2.118  1.00  0.00     0.161 HD
BRANCH  31  33
HETATM   33  C10 UNL     1      29.203  43.990   1.038  1.00  0.00     0.234 C 
BRANCH  33  34
HETATM   34  C11 UNL     1      28.232  44.852   1.793  1.00  0.00     0.191 C 
HETATM   35  O2  UNL     1      28.659  45.673   2.644  1.00  0.00    -0.647 OA
HETATM   36  O3  UNL     1      26.866  44.782   1.596  1.00  0.00    -0.647 OA
ENDBRANCH  33  34
ENDBRANCH  31  33
ENDBRANCH  12  31
BRANCH   1  37
HETATM   37  N1  UNL     1      28.195  39.340   1.258  1.00  0.00    -0.233 N 
ATOM     38  H12 UNL     1      27.285  38.989   1.557  1.00  0.00     0.174 HD
ATOM     39  H11 UNL     1      28.634  39.237   0.344  1.00  0.00     0.174 HD
ENDBRANCH   1  37
TORSDOF 10
ENDMDL
MODEL 2
REMARK VINA RESULT: -5.581458206      2.084      2.470
REMARK  10 active torsions:
REMARK  status: ('A' for Active; 'I' for Inactive)
REMARK    1  A    between atoms: N1_1  and  C1_4 
REMARK    2  A    between atoms: N3_7  and  O1_8 
REMARK    3  A    between atoms: C3_11  and  C4_12 
REMARK    4  A    between atoms: C4_12  and  N4_13 
REMARK    5  A    between atoms: C4_12  and  N5_17 
REMARK    6  A    between atoms: C6_22  and  C7_23 
REMARK    7  A    between atoms: C7_23  and  N6_24 
REMARK    8  A    between atoms: C9_31  and  N8_32 
REMARK    9  A    between atoms: N8_32  and  C10_34 
REMARK   10  A    between atoms: C10_34  and  C11_35 
ROOT
HETATM    1  C1  UNL     1      28.673  39.488   3.744  1.00  0.00     0.694 C 
HETATM    2  N2  UNL     1      29.020  38.618   4.752  1.00  0.00    -0.105 N 
ATOM      3  H2  UNL     1      28.497  37.742   4.789  1.00  0.00     0.208 HD
HETATM    4  N3  UNL     1      29.950  38.782   5.676  1.00  0.00    -0.146 N 
HETATM    5  C2  UNL     1      30.446  39.942   6.152  1.00  0.00     0.122 A 
HETATM    6  C3  UNL     1      30.923  39.750   7.433  1.00  0.00     0.034 A 
HETATM    7  C5  UNL     1      31.487  40.932   7.936  1.00  0.00     0.040 A 
HETATM    8  C6  UNL     1      31.557  42.112   7.263  1.00  0.00     0.036 A 
HETATM    9  N7  UNL     1      31.068  42.193   6.040  1.00  0.00    -0.353 N 
ATOM     10  H7  UNL     1      31.121  43.079   5.537  1.00  0.00     0.166 HD
HETATM   11  C8  UNL     1      30.517  41.155   5.462  1.00  0.00     0.109 A 
HETATM   12  C9  UNL     1      30.065  41.455   4.202  1.00  0.00     0.146 C 
HETATM   13  N9  UNL     1      29.210  40.702   3.474  1.00  0.00    -0.174 N 
ATOM     14  H9  UNL     1      28.924  41.112   2.585  1.00  0.00     0.186 HD
ENDROOT
BRANCH   6  15
HETATM   15  C4  UNL     1      30.841  38.537   8.229  1.00  0.00     0.413 C 
BRANCH  15  16
HETATM   16  N4  UNL     1      32.149  37.946   8.558  1.00  0.00    -0.046 N 
ATOM     17  H43 UNL     1      32.787  38.024   7.766  1.00  0.00     0.277 HD
ATOM     18  H42 UNL     1      32.644  38.526   9.236  1.00  0.00     0.277 HD
ATOM     19  H41 UNL     1      32.099  36.980   8.883  1.00  0.00     0.277 HD
ENDBRANCH  15  16
BRANCH  15  20
HETATM   20  N5  UNL     1      30.733  39.198   9.614  1.00  0.00    -0.046 N 
ATOM     21  H53 UNL     1      31.596  39.563  10.016  1.00  0.00     0.277 HD
ATOM     22  H52 UNL     1      30.255  40.098   9.656  1.00  0.00     0.277 HD
ATOM     23  H51 UNL     1      30.291  38.422  10.107  1.00  0.00     0.277 HD
ENDBRANCH  15  20
ENDBRANCH   6  15
BRANCH   4  24
HETATM   24  O1  UNL     1      30.516  37.707   6.228  1.00  0.00    -0.267 OA
ATOM     25  H1  UNL     1      31.406  37.768   6.554  1.00  0.00     0.247 HD
ENDBRANCH   4  24
BRANCH   8  26
HETATM   26  C7  UNL     1      32.187  43.319   7.906  1.00  0.00     0.286 C 
BRANCH  26  27
HETATM   27  N6  UNL     1      33.397  43.698   7.215  1.00  0.00    -0.074 N 
ATOM     28  H63 UNL     1      33.384  43.398   6.240  1.00  0.00     0.274 HD
ATOM     29  H62 UNL     1      33.447  44.706   7.066  1.00  0.00     0.274 HD
ATOM     30  H61 UNL     1      34.220  43.348   7.706  1.00  0.00     0.274 HD
ENDBRANCH  26  27
ENDBRANCH   8  26
BRANCH  12  31
HETATM   31  N8  UNL     1      30.506  42.543   3.701  1.00  0.00    -0.364 N 
ATOM     32  H8  UNL     1      31.486  42.793   3.831  1.00  0.00     0.161 HD
BRANCH  31  33
HETATM   33  C10 UNL     1      29.649  43.416   2.962  1.00  0.00     0.234 C 
BRANCH  33  34
HETATM   34  C11 UNL     1      29.835  43.207   1.486  1.00  0.00     0.191 C 
HETATM   35  O2  UNL     1      30.362  44.111   0.791  1.00  0.00    -0.647 OA
HETATM   36  O3  UNL     1      29.444  42.047   0.845  1.00  0.00    -0.647 OA
ENDBRANCH  33  34
ENDBRANCH  31  33
ENDBRANCH  12  31
BRANCH   1  37
HETATM   37  N1  UNL     1      27.736  39.157   2.935  1.00  0.00    -0.233 N 
ATOM     38  H12 UNL     1      28.018  39.189   1.956  1.00  0.00     0.174 HD
ATOM     39  H11 UNL     1      26.825  38.898   3.315  1.00  0.00     0.174 HD
ENDBRANCH   1  37
TORSDOF 10
ENDMDL
MODEL 3
REMARK VINA RESULT: -5.440059511      2.674      4.961
REMARK  10 active torsions:
REMARK  status: ('A' for Active; 'I' for Inactive)
REMARK    1  A    between atoms: N1_1  and  C1_4 
REMARK    2  A    between atoms: N3_7  and  O1_8 
REMARK    3  A    between atoms: C3_11  and  C4_12 
REMARK    4  A    between atoms: C4_12  and  N4_13 
REMARK    5  A    between atoms: C4_12  and  N5_17 
REMARK    6  A    between atoms: C6_22  and  C7_23 
REMARK    7  A    between atoms: C7_23  and  N6_24 
REMARK    8  A    between atoms: C9_31  and  N8_32 
REMARK    9  A    between atoms: N8_32  and  C10_34 
REMARK   10  A    between atoms: C10_34  and  C11_35 
ROOT
HETATM    1  C1  UNL     1      29.584  44.650   6.009  1.00  0.00     0.694 C 
HETATM    2  N2  UNL     1      28.947  44.389   7.200  1.00  0.00    -0.105 N 
ATOM      3  H2  UNL     1      28.654  45.203   7.741  1.00  0.00     0.208 HD
HETATM    4  N3  UNL     1      28.669  43.208   7.725  1.00  0.00    -0.146 N 
HETATM    5  C2  UNL     1      29.299  42.037   7.504  1.00  0.00     0.122 A 
HETATM    6  C3  UNL     1      29.133  41.210   8.597  1.00  0.00     0.034 A 
HETATM    7  C5  UNL     1      29.742  39.965   8.376  1.00  0.00     0.040 A 
HETATM    8  C6  UNL     1      30.409  39.613   7.243  1.00  0.00     0.036 A 
HETATM    9  N7  UNL     1      30.515  40.480   6.254  1.00  0.00    -0.353 N 
ATOM     10  H7  UNL     1      31.016  40.214   5.406  1.00  0.00     0.166 HD
HETATM   11  C8  UNL     1      29.987  41.675   6.343  1.00  0.00     0.109 A 
HETATM   12  C9  UNL     1      30.219  42.419   5.214  1.00  0.00     0.146 C 
HETATM   13  N9  UNL     1      30.063  43.757   5.109  1.00  0.00    -0.174 N 
ATOM     14  H9  UNL     1      30.350  44.157   4.216  1.00  0.00     0.186 HD
ENDROOT
BRANCH   6  15
HETATM   15  C4  UNL     1      28.477  41.533   9.852  1.00  0.00     0.413 C 
BRANCH  15  16
HETATM   16  N4  UNL     1      27.378  40.619  10.207  1.00  0.00    -0.046 N 
ATOM     17  H43 UNL     1      26.743  41.064  10.870  1.00  0.00     0.277 HD
ATOM     18  H42 UNL     1      26.744  40.498   9.417  1.00  0.00     0.277 HD
ATOM     19  H41 UNL     1      27.687  39.714  10.560  1.00  0.00     0.277 HD
ENDBRANCH  15  16
BRANCH  15  20
HETATM   20  N5  UNL     1      29.453  40.808  10.796  1.00  0.00    -0.046 N 
ATOM     21  H53 UNL     1      29.039  40.217  11.516  1.00  0.00     0.277 HD
ATOM     22  H52 UNL     1      30.000  40.047  10.392  1.00  0.00     0.277 HD
ATOM     23  H51 UNL     1      29.973  41.625  11.117  1.00  0.00     0.277 HD
ENDBRANCH  15  20
ENDBRANCH   6  15
BRANCH   4  24
HETATM   24  O1  UNL     1      27.640  43.097   8.568  1.00  0.00    -0.267 OA
ATOM     25  H1  UNL     1      27.792  42.752   9.440  1.00  0.00     0.247 HD
ENDBRANCH   4  24
BRANCH   8  26
HETATM   26  C7  UNL     1      31.025  38.244   7.117  1.00  0.00     0.286 C 
BRANCH  26  27
HETATM   27  N6  UNL     1      31.841  37.939   8.268  1.00  0.00    -0.074 N 
ATOM     28  H63 UNL     1      32.836  38.003   8.052  1.00  0.00     0.274 HD
ATOM     29  H62 UNL     1      31.789  38.674   8.974  1.00  0.00     0.274 HD
ATOM     30  H61 UNL     1      31.597  37.027   8.656  1.00  0.00     0.274 HD
ENDBRANCH  26  27
ENDBRANCH   8  26
BRANCH  12  31
HETATM   31  N8  UNL     1      30.617  41.765   4.193  1.00  0.00    -0.364 N 
ATOM     32  H8  UNL     1      31.534  41.318   4.210  1.00  0.00     0.161 HD
BRANCH  31  33
HETATM   33  C10 UNL     1      29.799  41.647   3.026  1.00  0.00     0.234 C 
BRANCH  33  34
HETATM   34  C11 UNL     1      29.462  40.207   2.766  1.00  0.00     0.191 C 
HETATM   35  O2  UNL     1      29.462  39.770   1.588  1.00  0.00    -0.647 OA
HETATM   36  O3  UNL     1      29.144  39.323   3.780  1.00  0.00    -0.647 OA
ENDBRANCH  33  34
ENDBRANCH  31  33
ENDBRANCH  12  31
BRANCH   1  37
HETATM   37  N1  UNL     1      29.770  45.870   5.660  1.00  0.00    -0.233 N 
ATOM     38  H12 UNL     1      30.755  46.128   5.605  1.00  0.00     0.174 HD
ATOM     39  H11 UNL     1      28.958  46.459   5.474  1.00  0.00     0.174 HD
ENDBRANCH   1  37
TORSDOF 10
ENDMDL
MODEL 4
REMARK VINA RESULT: -5.434318874      2.115      5.187
REMARK  10 active torsions:
REMARK  status: ('A' for Active; 'I' for Inactive)
REMARK    1  A    between atoms: N1_1  and  C1_4 
REMARK    2  A    between atoms: N3_7  and  O1_8 
REMARK    3  A    between atoms: C3_11  and  C4_12 
REMARK    4  A    between atoms: C4_12  and  N4_13 
REMARK    5  A    between atoms: C4_12  and  N5_17 
REMARK    6  A    between atoms: C6_22  and  C7_23 
REMARK    7  A    between atoms: C7_23  and  N6_24 
REMARK    8  A    between atoms: C9_31  and  N8_32 
REMARK    9  A    between atoms: N8_32  and  C10_34 
REMARK   10  A    between atoms: C10_34  and  C11_35 
ROOT
HETATM    1  C1  UNL     1      29.400  40.483   2.997  1.00  0.00     0.694 C 
HETATM    2  N2  UNL     1      28.714  41.674   3.059  1.00  0.00    -0.105 N 
ATOM      3  H2  UNL     1      28.186  41.934   2.225  1.00  0.00     0.208 HD
HETATM    4  N3  UNL     1      28.657  42.522   4.072  1.00  0.00    -0.146 N 
HETATM    5  C2  UNL     1      29.558  42.688   5.061  1.00  0.00     0.122 A 
HETATM    6  C3  UNL     1      29.468  43.973   5.557  1.00  0.00     0.034 A 
HETATM    7  C5  UNL     1      30.364  44.160   6.620  1.00  0.00     0.040 A 
HETATM    8  C6  UNL     1      31.213  43.212   7.101  1.00  0.00     0.036 A 
HETATM    9  N7  UNL     1      31.225  42.011   6.554  1.00  0.00    -0.353 N 
ATOM     10  H7  UNL     1      31.863  41.302   6.916  1.00  0.00     0.166 HD
HETATM   11  C8  UNL     1      30.432  41.716   5.555  1.00  0.00     0.109 A 
HETATM   12  C9  UNL     1      30.610  40.424   5.129  1.00  0.00     0.146 C 
HETATM   13  N9  UNL     1      30.165  39.914   3.959  1.00  0.00    -0.174 N 
ATOM     14  H9  UNL     1      30.449  38.953   3.772  1.00  0.00     0.186 HD
ENDROOT
BRANCH   6  15
HETATM   15  C4  UNL     1      28.623  45.048   5.065  1.00  0.00     0.413 C 
BRANCH  15  16
HETATM   16  N4  UNL     1      27.670  45.567   6.062  1.00  0.00    -0.046 N 
ATOM     17  H43 UNL     1      26.710  45.418   5.751  1.00  0.00     0.277 HD
ATOM     18  H42 UNL     1      27.674  44.983   6.899  1.00  0.00     0.277 HD
ATOM     19  H41 UNL     1      27.820  46.546   6.309  1.00  0.00     0.277 HD
ENDBRANCH  15  16
BRANCH  15  20
HETATM   20  N5  UNL     1      29.596  46.214   5.311  1.00  0.00    -0.046 N 
ATOM     21  H53 UNL     1      29.575  46.978   4.636  1.00  0.00     0.277 HD
ATOM     22  H52 UNL     1      29.391  46.821   6.105  1.00  0.00     0.277 HD
ATOM     23  H51 UNL     1      30.458  45.671   5.361  1.00  0.00     0.277 HD
ENDBRANCH  15  20
ENDBRANCH   6  15
BRANCH   4  24
HETATM   24  O1  UNL     1      27.596  43.321   4.193  1.00  0.00    -0.267 OA
ATOM     25  H1  UNL     1      27.208  43.450   5.051  1.00  0.00     0.247 HD
ENDBRANCH   4  24
BRANCH   8  26
HETATM   26  C7  UNL     1      32.134  43.528   8.250  1.00  0.00     0.286 C 
BRANCH  26  27
HETATM   27  N6  UNL     1      32.726  42.323   8.782  1.00  0.00    -0.074 N 
ATOM     28  H63 UNL     1      33.197  41.782   8.057  1.00  0.00     0.274 HD
ATOM     29  H62 UNL     1      33.533  42.527   9.371  1.00  0.00     0.274 HD
ATOM     30  H61 UNL     1      32.030  41.764   9.277  1.00  0.00     0.274 HD
ENDBRANCH  26  27
ENDBRANCH   8  26
BRANCH  12  31
HETATM   31  N8  UNL     1      31.255  39.664   5.925  1.00  0.00    -0.364 N 
ATOM     32  H8  UNL     1      32.261  39.791   6.035  1.00  0.00     0.161 HD
BRANCH  31  33
HETATM   33  C10 UNL     1      30.592  38.636   6.666  1.00  0.00     0.234 C 
BRANCH  33  34
HETATM   34  C11 UNL     1      30.919  38.750   8.127  1.00  0.00     0.191 C 
HETATM   35  O2  UNL     1      30.823  39.863   8.703  1.00  0.00    -0.647 OA
HETATM   36  O3  UNL     1      31.329  37.668   8.883  1.00  0.00    -0.647 OA
ENDBRANCH  33  34
ENDBRANCH  31  33
ENDBRANCH  12  31
BRANCH   1  37
HETATM   37  N1  UNL     1      29.340  39.790   1.920  1.00  0.00    -0.233 N 
ATOM     38  H12 UNL     1      30.159  39.900   1.323  1.00  0.00     0.174 HD
ATOM     39  H11 UNL     1      28.518  39.209   1.753  1.00  0.00     0.174 HD
ENDBRANCH   1  37
TORSDOF 10
ENDMDL
MODEL 5
REMARK VINA RESULT: -5.417870515      3.553      7.166
REMARK  10 active torsions:
REMARK  status: ('A' for Active; 'I' for Inactive)
REMARK    1  A    between atoms: N1_1  and  C1_4 
REMARK    2  A    between atoms: N3_7  and  O1_8 
REMARK    3  A    between atoms: C3_11  and  C4_12 
REMARK    4  A    between atoms: C4_12  and  N4_13 
REMARK    5  A    between atoms: C4_12  and  N5_17 
REMARK    6  A    between atoms: C6_22  and  C7_23 
REMARK    7  A    between atoms: C7_23  and  N6_24 
REMARK    8  A    between atoms: C9_31  and  N8_32 
REMARK    9  A    between atoms: N8_32  and  C10_34 
REMARK   10  A    between atoms: C10_34  and  C11_35 
ROOT
HETATM    1  C1  UNL     1      30.004  38.557   7.514  1.00  0.00     0.694 C 
HETATM    2  N2  UNL     1      29.490  39.651   6.858  1.00  0.00    -0.105 N 
ATOM      3  H2  UNL     1      28.806  39.456   6.126  1.00  0.00     0.208 HD
HETATM    4  N3  UNL     1      29.776  40.925   7.064  1.00  0.00    -0.146 N 
HETATM    5  C2  UNL     1      30.904  41.444   7.590  1.00  0.00     0.122 A 
HETATM    6  C3  UNL     1      31.079  42.732   7.128  1.00  0.00     0.034 A 
HETATM    7  C5  UNL     1      32.224  43.313   7.695  1.00  0.00     0.040 A 
HETATM    8  C6  UNL     1      33.055  42.697   8.579  1.00  0.00     0.036 A 
HETATM    9  N7  UNL     1      32.800  41.459   8.957  1.00  0.00    -0.353 N 
ATOM     10  H7  UNL     1      33.425  40.999   9.619  1.00  0.00     0.166 HD
HETATM   11  C8  UNL     1      31.759  40.812   8.496  1.00  0.00     0.109 A 
HETATM   12  C9  UNL     1      31.685  39.540   9.005  1.00  0.00     0.146 C 
HETATM   13  N9  UNL     1      30.914  38.543   8.518  1.00  0.00    -0.174 N 
ATOM     14  H9  UNL     1      31.036  37.640   8.976  1.00  0.00     0.186 HD
ENDROOT
BRANCH   6  15
HETATM   15  C4  UNL     1      30.263  43.435   6.152  1.00  0.00     0.413 C 
BRANCH  15  16
HETATM   16  N4  UNL     1      30.557  44.875   6.049  1.00  0.00    -0.046 N 
ATOM     17  H43 UNL     1      30.262  45.362   6.896  1.00  0.00     0.277 HD
ATOM     18  H42 UNL     1      31.563  45.039   6.098  1.00  0.00     0.277 HD
ATOM     19  H41 UNL     1      30.161  45.322   5.222  1.00  0.00     0.277 HD
ENDBRANCH  15  16
BRANCH  15  20
HETATM   20  N5  UNL     1      31.105  43.121   4.903  1.00  0.00    -0.046 N 
ATOM     21  H53 UNL     1      31.989  43.622   4.809  1.00  0.00     0.277 HD
ATOM     22  H52 UNL     1      31.546  42.202   4.868  1.00  0.00     0.277 HD
ATOM     23  H51 UNL     1      30.392  43.314   4.199  1.00  0.00     0.277 HD
ENDBRANCH  15  20
ENDBRANCH   6  15
BRANCH   4  24
HETATM   24  O1  UNL     1      28.871  41.855   6.751  1.00  0.00    -0.267 OA
ATOM     25  H1  UNL     1      29.043  42.443   6.025  1.00  0.00     0.247 HD
ENDBRANCH   4  24
BRANCH   8  26
HETATM   26  C7  UNL     1      34.257  43.422   9.124  1.00  0.00     0.286 C 
BRANCH  26  27
HETATM   27  N6  UNL     1      35.181  43.755   8.065  1.00  0.00    -0.074 N 
ATOM     28  H63 UNL     1      36.035  43.199   8.121  1.00  0.00     0.274 HD
ATOM     29  H62 UNL     1      34.847  43.432   7.157  1.00  0.00     0.274 HD
ATOM     30  H61 UNL     1      35.382  44.755   8.059  1.00  0.00     0.274 HD
ENDBRANCH  26  27
ENDBRANCH   8  26
BRANCH  12  31
HETATM   31  N8  UNL     1      32.417  39.309  10.024  1.00  0.00    -0.364 N 
ATOM     32  H8  UNL     1      33.048  40.036  10.363  1.00  0.00     0.161 HD
BRANCH  31  33
HETATM   33  C10 UNL     1      32.369  38.049  10.699  1.00  0.00     0.234 C 
BRANCH  33  34
HETATM   34  C11 UNL     1      33.549  37.204  10.316  1.00  0.00     0.191 C 
HETATM   35  O2  UNL     1      33.699  36.850   9.119  1.00  0.00    -0.647 OA
HETATM   36  O3  UNL     1      34.494  36.786  11.234  1.00  0.00    -0.647 OA
ENDBRANCH  33  34
ENDBRANCH  31  33
ENDBRANCH  12  31
BRANCH   1  37
HETATM   37  N1  UNL     1      29.607  37.387   7.172  1.00  0.00    -0.233 N 
ATOM     38  H12 UNL     1      28.957  37.395   6.387  1.00  0.00     0.174 HD
ATOM     39  H11 UNL     1      29.956  36.578   7.687  1.00  0.00     0.174 HD
ENDBRANCH   1  37
TORSDOF 10
ENDMDL
