MODEL 1
REMARK VINA RESULT: -8.866707310      0.000      0.000
REMARK  17 active torsions:
REMARK  status: ('A' for Active; 'I' for Inactive)
REMARK    1  A    between atoms: C2_2  and  C4_4 
REMARK    2  A    between atoms: C4_4  and  N1_7 
REMARK    3  A    between atoms: N1_7  and  C8_9 
REMARK    4  A    between atoms: C8_9  and  O1_10 
REMARK    5  A    between atoms: C9_12  and  C10_13 
REMARK    6  A    between atoms: C10_13  and  C11_14 
REMARK    7  A    between atoms: C11_14  and  O2_15 
REMARK    8  A    between atoms: C11_14  and  N2_17 
REMARK    9  A    between atoms: N2_17  and  C12_19 
REMARK   10  A    between atoms: C15_22  and  C16_23 
REMARK   11  A    between atoms: C16_23  and  C17_24 
REMARK   12  A    between atoms: C17_24  and  C18_25 
REMARK   13  A    between atoms: C18_25  and  C19_26 
REMARK   14  A    between atoms: C19_26  and  C20_27 
REMARK       I    between atoms: N5_33  and  C22_35 
REMARK   15  A    between atoms: C22_35  and  C23_37 
REMARK   16  A    between atoms: C23_37  and  C24_38 
REMARK   17  A    between atoms: C24_38  and  C25_39 
ROOT
HETATM    1  C12 UNL     1      15.755  21.779  16.652  1.00  0.00     0.121 A 
HETATM    2  C13 UNL     1      17.042  21.264  16.718  1.00  0.00     0.052 A 
HETATM    3  C14 UNL     1      17.675  21.155  17.918  1.00  0.00     0.030 A 
HETATM    4  C15 UNL     1      17.035  21.559  19.065  1.00  0.00     0.026 A 
HETATM    5  N7  UNL     1      15.787  22.045  18.916  1.00  0.00    -0.303 N 
ATOM      6  H7  UNL     1      15.294  22.347  19.756  1.00  0.00     0.186 HD
HETATM    7  N8  UNL     1      15.159  22.158  17.766  1.00  0.00    -0.285 N 
ATOM      8  H8  UNL     1      14.213  22.538  17.736  1.00  0.00     0.188 HD
ENDROOT
BRANCH   4   9
HETATM    9  C16 UNL     1      17.711  21.489  20.403  1.00  0.00     0.058 C 
BRANCH   9  10
HETATM   10  C17 UNL     1      19.165  21.854  20.276  1.00  0.00     0.006 C 
BRANCH  10  11
HETATM   11  C18 UNL     1      19.671  22.882  21.218  1.00  0.00     0.007 C 
BRANCH  11  12
HETATM   12  C19 UNL     1      19.760  24.277  20.737  1.00  0.00     0.066 C 
BRANCH  12  13
HETATM   13  C20 UNL     1      18.696  24.616  19.728  1.00  0.00     0.069 A 
HETATM   14  N3  UNL     1      17.448  24.992  19.923  1.00  0.00    -0.296 N 
HETATM   15  N4  UNL     1      16.714  25.277  18.917  1.00  0.00    -0.279 N 
ATOM     16  H3  UNL     1      17.072  25.055  20.869  1.00  0.00     0.187 HD
HETATM   17  C21 UNL     1      17.225  25.186  17.696  1.00  0.00     0.167 A 
ATOM     18  H4  UNL     1      15.746  25.570  19.051  1.00  0.00     0.189 HD
HETATM   19  N5  UNL     1      16.654  25.427  16.548  1.00  0.00    -0.306 N 
HETATM   20  S2  UNL     1      18.827  24.672  18.029  1.00  0.00    -0.038 SA
HETATM   21  C22 UNL     1      17.421  25.256  15.371  1.00  0.00     0.224 C 
ATOM     22  H5  UNL     1      15.681  25.730  16.499  1.00  0.00     0.171 HD
HETATM   23  O3  UNL     1      17.468  24.163  14.802  1.00  0.00    -0.273 OA
BRANCH  21  24
HETATM   24  C23 UNL     1      18.158  26.430  14.868  1.00  0.00     0.109 C 
BRANCH  24  25
HETATM   25  C24 UNL     1      19.413  25.914  14.150  1.00  0.00     0.067 C 
BRANCH  25  26
HETATM   26  C25 UNL     1      20.546  26.692  14.822  1.00  0.00     0.016 A 
HETATM   27  C26 UNL     1      20.434  28.067  14.901  1.00  0.00     0.076 A 
HETATM   28  S1  UNL     1      21.912  28.462  15.690  1.00  0.00    -0.095 SA
HETATM   29  C27 UNL     1      22.553  26.859  15.855  1.00  0.00     0.138 A 
HETATM   30  N6  UNL     1      21.599  26.140  15.299  1.00  0.00    -0.363 N 
ATOM     31  H6  UNL     1      21.702  25.127  15.247  1.00  0.00     0.165 HD
ENDBRANCH  25  26
ENDBRANCH  24  25
ENDBRANCH  21  24
ENDBRANCH  12  13
ENDBRANCH  11  12
ENDBRANCH  10  11
ENDBRANCH   9  10
ENDBRANCH   4   9
BRANCH   1  32
HETATM   32  N2  UNL     1      15.168  21.887  15.543  1.00  0.00    -0.326 N 
ATOM     33  H2  UNL     1      15.736  22.013  14.705  1.00  0.00     0.169 HD
BRANCH  32  34
HETATM   34  C11 UNL     1      13.781  21.843  15.403  1.00  0.00     0.120 C 
BRANCH  34  35
HETATM   35  C10 UNL     1      12.789  20.839  15.171  1.00  0.00     0.115 C 
BRANCH  35  36
HETATM   36  C9  UNL     1      11.515  20.926  15.918  1.00  0.00     0.037 C 
HETATM   37  C8  UNL     1      10.970  19.895  16.746  1.00  0.00     0.134 C 
BRANCH  37  38
HETATM   38  N1  UNL     1      11.308  18.598  17.143  1.00  0.00    -0.358 N 
HETATM   39  C7  UNL     1      10.788  17.438  16.466  1.00  0.00     0.152 C 
BRANCH  38  40
HETATM   40  C4  UNL     1      12.115  18.311  18.334  1.00  0.00     0.029 C 
HETATM   41  C5  UNL     1      12.704  16.903  18.108  1.00  0.00     0.038 C 
HETATM   42  C6  UNL     1      11.239  18.154  19.574  1.00  0.00     0.038 C 
BRANCH  40  43
HETATM   43  C2  UNL     1      13.245  19.232  18.567  1.00  0.00     0.005 C 
HETATM   44  C1  UNL     1      13.543  19.504  20.032  1.00  0.00     0.012 C 
HETATM   45  C3  UNL     1      14.520  18.529  18.056  1.00  0.00     0.012 C 
ENDBRANCH  40  43
ENDBRANCH  38  40
ENDBRANCH  37  38
BRANCH  37  46
HETATM   46  O1  UNL     1       9.824  20.290  17.305  1.00  0.00    -0.346 OA
ATOM     47  H1  UNL     1       9.424  19.588  17.805  1.00  0.00     0.219 HD
ENDBRANCH  37  46
ENDBRANCH  35  36
ENDBRANCH  34  35
BRANCH  34  48
HETATM   48  O2  UNL     1      13.284  23.088  15.525  1.00  0.00    -0.349 OA
ATOM     49  H2  UNL     1      12.357  23.156  15.333  1.00  0.00     0.219 HD
ENDBRANCH  34  48
ENDBRANCH  32  34
ENDBRANCH   1  32
TORSDOF 17
ENDMDL
MODEL 2
REMARK VINA RESULT: -8.828348673      2.087      3.566
REMARK  17 active torsions:
REMARK  status: ('A' for Active; 'I' for Inactive)
REMARK    1  A    between atoms: C2_2  and  C4_4 
REMARK    2  A    between atoms: C4_4  and  N1_7 
REMARK    3  A    between atoms: N1_7  and  C8_9 
REMARK    4  A    between atoms: C8_9  and  O1_10 
REMARK    5  A    between atoms: C9_12  and  C10_13 
REMARK    6  A    between atoms: C10_13  and  C11_14 
REMARK    7  A    between atoms: C11_14  and  O2_15 
REMARK    8  A    between atoms: C11_14  and  N2_17 
REMARK    9  A    between atoms: N2_17  and  C12_19 
REMARK   10  A    between atoms: C15_22  and  C16_23 
REMARK   11  A    between atoms: C16_23  and  C17_24 
REMARK   12  A    between atoms: C17_24  and  C18_25 
REMARK   13  A    between atoms: C18_25  and  C19_26 
REMARK   14  A    between atoms: C19_26  and  C20_27 
REMARK       I    between atoms: N5_33  and  C22_35 
REMARK   15  A    between atoms: C22_35  and  C23_37 
REMARK   16  A    between atoms: C23_37  and  C24_38 
REMARK   17  A    between atoms: C24_38  and  C25_39 
ROOT
HETATM    1  C12 UNL     1      16.162  24.087  18.871  1.00  0.00     0.121 A 
HETATM    2  C13 UNL     1      16.578  22.771  19.012  1.00  0.00     0.052 A 
HETATM    3  C14 UNL     1      17.742  22.487  19.658  1.00  0.00     0.030 A 
HETATM    4  C15 UNL     1      18.506  23.509  20.169  1.00  0.00     0.026 A 
HETATM    5  N7  UNL     1      18.031  24.758  19.992  1.00  0.00    -0.303 N 
ATOM      6  H7  UNL     1      18.581  25.530  20.367  1.00  0.00     0.186 HD
HETATM    7  N8  UNL     1      16.909  25.053  19.372  1.00  0.00    -0.285 N 
ATOM      8  H8  UNL     1      16.618  26.026  19.278  1.00  0.00     0.188 HD
ENDROOT
BRANCH   4   9
HETATM    9  C16 UNL     1      19.813  23.240  20.856  1.00  0.00     0.058 C 
BRANCH   9  10
HETATM   10  C17 UNL     1      20.900  24.101  20.272  1.00  0.00     0.006 C 
BRANCH  10  11
HETATM   11  C18 UNL     1      21.482  25.127  21.172  1.00  0.00     0.007 C 
BRANCH  11  12
HETATM   12  C19 UNL     1      21.149  26.543  20.911  1.00  0.00     0.066 C 
BRANCH  12  13
HETATM   13  C20 UNL     1      21.722  27.050  19.615  1.00  0.00     0.069 A 
HETATM   14  N3  UNL     1      22.963  27.380  19.322  1.00  0.00    -0.296 N 
HETATM   15  N4  UNL     1      23.250  27.752  18.134  1.00  0.00    -0.279 N 
ATOM     16  H3  UNL     1      23.689  27.338  20.037  1.00  0.00     0.187 HD
HETATM   17  C21 UNL     1      22.288  27.799  17.221  1.00  0.00     0.167 A 
ATOM     18  H4  UNL     1      24.206  28.010  17.890  1.00  0.00     0.189 HD
HETATM   19  N5  UNL     1      22.366  28.148  15.965  1.00  0.00    -0.306 N 
HETATM   20  S2  UNL     1      20.926  27.282  18.125  1.00  0.00    -0.038 SA
HETATM   21  C22 UNL     1      21.184  28.113  15.188  1.00  0.00     0.224 C 
ATOM     22  H5  UNL     1      23.254  28.438  15.555  1.00  0.00     0.171 HD
HETATM   23  O3  UNL     1      20.441  29.095  15.125  1.00  0.00    -0.273 OA
BRANCH  21  24
HETATM   24  C23 UNL     1      20.884  26.860  14.471  1.00  0.00     0.109 C 
BRANCH  24  25
HETATM   25  C24 UNL     1      19.371  26.831  14.206  1.00  0.00     0.067 C 
BRANCH  25  26
HETATM   26  C25 UNL     1      18.918  25.547  14.904  1.00  0.00     0.016 A 
HETATM   27  C26 UNL     1      19.865  24.808  15.587  1.00  0.00     0.076 A 
HETATM   28  S1  UNL     1      18.900  23.500  16.153  1.00  0.00    -0.095 SA
HETATM   29  C27 UNL     1      17.379  23.991  15.481  1.00  0.00     0.138 A 
HETATM   30  N6  UNL     1      17.713  25.112  14.875  1.00  0.00    -0.363 N 
ATOM     31  H6  UNL     1      17.001  25.642  14.373  1.00  0.00     0.165 HD
ENDBRANCH  25  26
ENDBRANCH  24  25
ENDBRANCH  21  24
ENDBRANCH  12  13
ENDBRANCH  11  12
ENDBRANCH  10  11
ENDBRANCH   9  10
ENDBRANCH   4   9
BRANCH   1  32
HETATM   32  N2  UNL     1      15.089  24.355  18.270  1.00  0.00    -0.326 N 
ATOM     33  H2  UNL     1      14.774  25.325  18.248  1.00  0.00     0.169 HD
BRANCH  32  34
HETATM   34  C11 UNL     1      14.308  23.391  17.630  1.00  0.00     0.120 C 
BRANCH  34  35
HETATM   35  C10 UNL     1      13.958  22.022  17.848  1.00  0.00     0.115 C 
BRANCH  35  36
HETATM   36  C9  UNL     1      13.833  21.134  16.672  1.00  0.00     0.037 C 
HETATM   37  C8  UNL     1      12.936  20.026  16.564  1.00  0.00     0.134 C 
BRANCH  37  38
HETATM   38  N1  UNL     1      11.972  19.392  17.355  1.00  0.00    -0.358 N 
HETATM   39  C7  UNL     1      10.574  19.725  17.258  1.00  0.00     0.152 C 
BRANCH  38  40
HETATM   40  C4  UNL     1      12.309  18.433  18.412  1.00  0.00     0.029 C 
HETATM   41  C5  UNL     1      12.141  17.037  17.778  1.00  0.00     0.038 C 
HETATM   42  C6  UNL     1      11.275  18.459  19.535  1.00  0.00     0.038 C 
BRANCH  40  43
HETATM   43  C2  UNL     1      13.689  18.523  18.928  1.00  0.00     0.005 C 
HETATM   44  C1  UNL     1      13.803  18.420  20.440  1.00  0.00     0.012 C 
HETATM   45  C3  UNL     1      14.449  17.281  18.416  1.00  0.00     0.012 C 
ENDBRANCH  40  43
ENDBRANCH  38  40
ENDBRANCH  37  38
BRANCH  37  46
HETATM   46  O1  UNL     1      13.041  19.442  15.369  1.00  0.00    -0.346 OA
ATOM     47  H1  UNL     1      13.447  20.023  14.736  1.00  0.00     0.219 HD
ENDBRANCH  37  46
ENDBRANCH  35  36
ENDBRANCH  34  35
BRANCH  34  48
HETATM   48  O2  UNL     1      13.759  23.930  16.525  1.00  0.00    -0.349 OA
ATOM     49  H2  UNL     1      13.280  24.735  16.683  1.00  0.00     0.219 HD
ENDBRANCH  34  48
ENDBRANCH  32  34
ENDBRANCH   1  32
TORSDOF 17
ENDMDL
MODEL 3
REMARK VINA RESULT: -8.664039891      2.153      4.528
REMARK  17 active torsions:
REMARK  status: ('A' for Active; 'I' for Inactive)
REMARK    1  A    between atoms: C2_2  and  C4_4 
REMARK    2  A    between atoms: C4_4  and  N1_7 
REMARK    3  A    between atoms: N1_7  and  C8_9 
REMARK    4  A    between atoms: C8_9  and  O1_10 
REMARK    5  A    between atoms: C9_12  and  C10_13 
REMARK    6  A    between atoms: C10_13  and  C11_14 
REMARK    7  A    between atoms: C11_14  and  O2_15 
REMARK    8  A    between atoms: C11_14  and  N2_17 
REMARK    9  A    between atoms: N2_17  and  C12_19 
REMARK   10  A    between atoms: C15_22  and  C16_23 
REMARK   11  A    between atoms: C16_23  and  C17_24 
REMARK   12  A    between atoms: C17_24  and  C18_25 
REMARK   13  A    between atoms: C18_25  and  C19_26 
REMARK   14  A    between atoms: C19_26  and  C20_27 
REMARK       I    between atoms: N5_33  and  C22_35 
REMARK   15  A    between atoms: C22_35  and  C23_37 
REMARK   16  A    between atoms: C23_37  and  C24_38 
REMARK   17  A    between atoms: C24_38  and  C25_39 
ROOT
HETATM    1  C12 UNL     1      17.029  22.687  19.040  1.00  0.00     0.121 A 
HETATM    2  C13 UNL     1      18.161  22.073  19.558  1.00  0.00     0.052 A 
HETATM    3  C14 UNL     1      19.033  22.782  20.325  1.00  0.00     0.030 A 
HETATM    4  C15 UNL     1      18.789  24.110  20.586  1.00  0.00     0.026 A 
HETATM    5  N7  UNL     1      17.668  24.629  20.050  1.00  0.00    -0.303 N 
ATOM      6  H7  UNL     1      17.467  25.612  20.234  1.00  0.00     0.186 HD
HETATM    7  N8  UNL     1      16.813  23.962  19.306  1.00  0.00    -0.285 N 
ATOM      8  H8  UNL     1      15.985  24.428  18.934  1.00  0.00     0.188 HD
ENDROOT
BRANCH   4   9
HETATM    9  C16 UNL     1      19.744  24.935  21.399  1.00  0.00     0.058 C 
BRANCH   9  10
HETATM   10  C17 UNL     1      20.918  25.358  20.559  1.00  0.00     0.006 C 
BRANCH  10  11
HETATM   11  C18 UNL     1      21.060  26.814  20.311  1.00  0.00     0.007 C 
BRANCH  11  12
HETATM   12  C19 UNL     1      22.075  27.252  19.330  1.00  0.00     0.066 C 
BRANCH  12  13
HETATM   13  C20 UNL     1      21.761  26.812  17.926  1.00  0.00     0.069 A 
HETATM   14  N3  UNL     1      22.580  26.459  16.957  1.00  0.00    -0.296 N 
HETATM   15  N4  UNL     1      22.100  26.074  15.837  1.00  0.00    -0.279 N 
ATOM     16  H3  UNL     1      23.590  26.493  17.098  1.00  0.00     0.187 HD
HETATM   17  C21 UNL     1      20.783  26.038  15.676  1.00  0.00     0.167 A 
ATOM     18  H4  UNL     1      22.721  25.796  15.077  1.00  0.00     0.189 HD
HETATM   19  N5  UNL     1      20.095  25.681  14.626  1.00  0.00    -0.306 N 
HETATM   20  S2  UNL     1      20.232  26.582  17.206  1.00  0.00    -0.038 SA
HETATM   21  C22 UNL     1      18.683  25.730  14.704  1.00  0.00     0.224 C 
ATOM     22  H5  UNL     1      20.561  25.376  13.772  1.00  0.00     0.171 HD
HETATM   23  O3  UNL     1      18.070  26.759  14.410  1.00  0.00    -0.273 OA
BRANCH  21  24
HETATM   24  C23 UNL     1      17.989  24.510  15.156  1.00  0.00     0.109 C 
BRANCH  24  25
HETATM   25  C24 UNL     1      16.714  24.949  15.891  1.00  0.00     0.067 C 
BRANCH  25  26
HETATM   26  C25 UNL     1      15.704  23.862  15.520  1.00  0.00     0.016 A 
HETATM   27  C26 UNL     1      16.164  22.747  14.847  1.00  0.00     0.076 A 
HETATM   28  S1  UNL     1      14.699  21.867  14.647  1.00  0.00    -0.095 SA
HETATM   29  C27 UNL     1      13.622  22.979  15.428  1.00  0.00     0.138 A 
HETATM   30  N6  UNL     1      14.452  23.938  15.783  1.00  0.00    -0.363 N 
ATOM     31  H6  UNL     1      14.092  24.755  16.276  1.00  0.00     0.165 HD
ENDBRANCH  25  26
ENDBRANCH  24  25
ENDBRANCH  21  24
ENDBRANCH  12  13
ENDBRANCH  11  12
ENDBRANCH  10  11
ENDBRANCH   9  10
ENDBRANCH   4   9
BRANCH   1  32
HETATM   32  N2  UNL     1      16.223  22.037  18.324  1.00  0.00    -0.326 N 
ATOM     33  H2  UNL     1      16.542  21.706  17.414  1.00  0.00     0.169 HD
BRANCH  32  34
HETATM   34  C11 UNL     1      14.915  21.745  18.714  1.00  0.00     0.120 C 
BRANCH  34  35
HETATM   35  C10 UNL     1      14.148  20.569  18.988  1.00  0.00     0.115 C 
BRANCH  35  36
HETATM   36  C9  UNL     1      14.663  19.268  18.509  1.00  0.00     0.037 C 
HETATM   37  C8  UNL     1      13.921  18.046  18.476  1.00  0.00     0.134 C 
BRANCH  37  38
HETATM   38  N1  UNL     1      12.640  17.602  18.818  1.00  0.00    -0.358 N 
HETATM   39  C7  UNL     1      12.351  17.048  20.116  1.00  0.00     0.152 C 
BRANCH  38  40
HETATM   40  C4  UNL     1      11.527  17.559  17.864  1.00  0.00     0.029 C 
HETATM   41  C5  UNL     1      10.253  17.804  18.698  1.00  0.00     0.038 C 
HETATM   42  C6  UNL     1      11.336  16.155  17.296  1.00  0.00     0.038 C 
BRANCH  40  43
HETATM   43  C2  UNL     1      11.566  18.585  16.803  1.00  0.00     0.005 C 
HETATM   44  C1  UNL     1      10.791  18.221  15.548  1.00  0.00     0.012 C 
HETATM   45  C3  UNL     1      10.829  19.828  17.344  1.00  0.00     0.012 C 
ENDBRANCH  40  43
ENDBRANCH  38  40
ENDBRANCH  37  38
BRANCH  37  46
HETATM   46  O1  UNL     1      14.655  17.057  17.963  1.00  0.00    -0.346 OA
ATOM     47  H1  UNL     1      14.175  16.581  17.296  1.00  0.00     0.219 HD
ENDBRANCH  37  46
ENDBRANCH  35  36
ENDBRANCH  34  35
BRANCH  34  48
HETATM   48  O2  UNL     1      14.231  22.894  18.863  1.00  0.00    -0.349 OA
ATOM     49  H2  UNL     1      14.490  23.580  18.260  1.00  0.00     0.219 HD
ENDBRANCH  34  48
ENDBRANCH  32  34
ENDBRANCH   1  32
TORSDOF 17
ENDMDL
MODEL 4
REMARK VINA RESULT: -8.657067154      2.999      9.700
REMARK  17 active torsions:
REMARK  status: ('A' for Active; 'I' for Inactive)
REMARK    1  A    between atoms: C2_2  and  C4_4 
REMARK    2  A    between atoms: C4_4  and  N1_7 
REMARK    3  A    between atoms: N1_7  and  C8_9 
REMARK    4  A    between atoms: C8_9  and  O1_10 
REMARK    5  A    between atoms: C9_12  and  C10_13 
REMARK    6  A    between atoms: C10_13  and  C11_14 
REMARK    7  A    between atoms: C11_14  and  O2_15 
REMARK    8  A    between atoms: C11_14  and  N2_17 
REMARK    9  A    between atoms: N2_17  and  C12_19 
REMARK   10  A    between atoms: C15_22  and  C16_23 
REMARK   11  A    between atoms: C16_23  and  C17_24 
REMARK   12  A    between atoms: C17_24  and  C18_25 
REMARK   13  A    between atoms: C18_25  and  C19_26 
REMARK   14  A    between atoms: C19_26  and  C20_27 
REMARK       I    between atoms: N5_33  and  C22_35 
REMARK   15  A    between atoms: C22_35  and  C23_37 
REMARK   16  A    between atoms: C23_37  and  C24_38 
REMARK   17  A    between atoms: C24_38  and  C25_39 
ROOT
HETATM    1  C12 UNL     1      18.306  23.116  20.100  1.00  0.00     0.121 A 
HETATM    2  C13 UNL     1      18.295  21.859  19.513  1.00  0.00     0.052 A 
HETATM    3  C14 UNL     1      17.321  21.529  18.622  1.00  0.00     0.030 A 
HETATM    4  C15 UNL     1      16.346  22.445  18.305  1.00  0.00     0.026 A 
HETATM    5  N7  UNL     1      16.430  23.643  18.916  1.00  0.00    -0.303 N 
ATOM      6  H7  UNL     1      15.718  24.338  18.692  1.00  0.00     0.186 HD
HETATM    7  N8  UNL     1      17.362  23.981  19.779  1.00  0.00    -0.285 N 
ATOM      8  H8  UNL     1      17.357  24.910  20.201  1.00  0.00     0.188 HD
ENDROOT
BRANCH   4   9
HETATM    9  C16 UNL     1      15.236  22.107  17.354  1.00  0.00     0.058 C 
BRANCH   9  10
HETATM   10  C17 UNL     1      15.795  21.657  16.032  1.00  0.00     0.006 C 
BRANCH  10  11
HETATM   11  C18 UNL     1      15.369  22.429  14.839  1.00  0.00     0.007 C 
BRANCH  11  12
HETATM   12  C19 UNL     1      15.043  21.677  13.609  1.00  0.00     0.066 C 
BRANCH  12  13
HETATM   13  C20 UNL     1      13.861  20.762  13.779  1.00  0.00     0.069 A 
HETATM   14  N3  UNL     1      13.622  19.592  13.223  1.00  0.00    -0.296 N 
HETATM   15  N4  UNL     1      12.563  18.951  13.539  1.00  0.00    -0.279 N 
ATOM     16  H3  UNL     1      14.277  19.201  12.546  1.00  0.00     0.187 HD
HETATM   17  C21 UNL     1      11.725  19.480  14.422  1.00  0.00     0.167 A 
ATOM     18  H4  UNL     1      12.364  18.043  13.118  1.00  0.00     0.189 HD
HETATM   19  N5  UNL     1      10.601  18.998  14.877  1.00  0.00    -0.306 N 
HETATM   20  S2  UNL     1      12.510  20.957  14.802  1.00  0.00    -0.038 SA
HETATM   21  C22 UNL     1       9.882  19.762  15.826  1.00  0.00     0.224 C 
ATOM     22  H5  UNL     1      10.250  18.095  14.558  1.00  0.00     0.171 HD
HETATM   23  O3  UNL     1       9.052  20.599  15.464  1.00  0.00    -0.273 OA
BRANCH  21  24
HETATM   24  C23 UNL     1      10.173  19.518  17.251  1.00  0.00     0.109 C 
BRANCH  24  25
HETATM   25  C24 UNL     1      10.424  18.012  17.419  1.00  0.00     0.067 C 
BRANCH  25  26
HETATM   26  C25 UNL     1      11.750  17.961  18.179  1.00  0.00     0.016 A 
HETATM   27  C26 UNL     1      11.828  18.606  19.398  1.00  0.00     0.076 A 
HETATM   28  S1  UNL     1      13.465  18.287  19.824  1.00  0.00    -0.095 SA
HETATM   29  C27 UNL     1      13.920  17.366  18.427  1.00  0.00     0.138 A 
HETATM   30  N6  UNL     1      12.797  17.367  17.738  1.00  0.00    -0.363 N 
ATOM     31  H6  UNL     1      12.760  16.888  16.839  1.00  0.00     0.165 HD
ENDBRANCH  25  26
ENDBRANCH  24  25
ENDBRANCH  21  24
ENDBRANCH  12  13
ENDBRANCH  11  12
ENDBRANCH  10  11
ENDBRANCH   9  10
ENDBRANCH   4   9
BRANCH   1  32
HETATM   32  N2  UNL     1      19.202  23.424  20.929  1.00  0.00    -0.326 N 
ATOM     33  H2  UNL     1      19.005  23.302  21.923  1.00  0.00     0.169 HD
BRANCH  32  34
HETATM   34  C11 UNL     1      20.451  23.922  20.559  1.00  0.00     0.120 C 
BRANCH  34  35
HETATM   35  C10 UNL     1      21.010  24.596  19.427  1.00  0.00     0.115 C 
BRANCH  35  36
HETATM   36  C9  UNL     1      20.717  26.036  19.253  1.00  0.00     0.037 C 
HETATM   37  C8  UNL     1      20.705  26.732  18.004  1.00  0.00     0.134 C 
BRANCH  37  38
HETATM   38  N1  UNL     1      20.927  26.443  16.655  1.00  0.00    -0.358 N 
HETATM   39  C7  UNL     1      22.178  26.748  16.010  1.00  0.00     0.152 C 
BRANCH  38  40
HETATM   40  C4  UNL     1      19.884  25.917  15.767  1.00  0.00     0.029 C 
HETATM   41  C5  UNL     1      20.602  24.942  14.812  1.00  0.00     0.038 C 
HETATM   42  C6  UNL     1      19.338  27.005  14.847  1.00  0.00     0.038 C 
BRANCH  40  43
HETATM   43  C2  UNL     1      18.804  25.166  16.438  1.00  0.00     0.005 C 
HETATM   44  C1  UNL     1      17.407  25.498  15.945  1.00  0.00     0.012 C 
HETATM   45  C3  UNL     1      18.984  23.679  16.065  1.00  0.00     0.012 C 
ENDBRANCH  40  43
ENDBRANCH  38  40
ENDBRANCH  37  38
BRANCH  37  46
HETATM   46  O1  UNL     1      20.377  28.014  18.177  1.00  0.00    -0.346 OA
ATOM     47  H1  UNL     1      19.560  28.100  18.655  1.00  0.00     0.219 HD
ENDBRANCH  37  46
ENDBRANCH  35  36
ENDBRANCH  34  35
BRANCH  34  48
HETATM   48  O2  UNL     1      21.332  23.690  21.550  1.00  0.00    -0.349 OA
ATOM     49  H2  UNL     1      21.601  22.783  21.625  1.00  0.00     0.219 HD
ENDBRANCH  34  48
ENDBRANCH  32  34
ENDBRANCH   1  32
TORSDOF 17
ENDMDL
MODEL 5
REMARK VINA RESULT: -8.615554242      1.811      2.879
REMARK  17 active torsions:
REMARK  status: ('A' for Active; 'I' for Inactive)
REMARK    1  A    between atoms: C2_2  and  C4_4 
REMARK    2  A    between atoms: C4_4  and  N1_7 
REMARK    3  A    between atoms: N1_7  and  C8_9 
REMARK    4  A    between atoms: C8_9  and  O1_10 
REMARK    5  A    between atoms: C9_12  and  C10_13 
REMARK    6  A    between atoms: C10_13  and  C11_14 
REMARK    7  A    between atoms: C11_14  and  O2_15 
REMARK    8  A    between atoms: C11_14  and  N2_17 
REMARK    9  A    between atoms: N2_17  and  C12_19 
REMARK   10  A    between atoms: C15_22  and  C16_23 
REMARK   11  A    between atoms: C16_23  and  C17_24 
REMARK   12  A    between atoms: C17_24  and  C18_25 
REMARK   13  A    between atoms: C18_25  and  C19_26 
REMARK   14  A    between atoms: C19_26  and  C20_27 
REMARK       I    between atoms: N5_33  and  C22_35 
REMARK   15  A    between atoms: C22_35  and  C23_37 
REMARK   16  A    between atoms: C23_37  and  C24_38 
REMARK   17  A    between atoms: C24_38  and  C25_39 
ROOT
HETATM    1  C12 UNL     1      15.776  21.607  16.552  1.00  0.00     0.121 A 
HETATM    2  C13 UNL     1      16.827  20.881  17.096  1.00  0.00     0.052 A 
HETATM    3  C14 UNL     1      17.393  21.272  18.270  1.00  0.00     0.030 A 
HETATM    4  C15 UNL     1      16.921  22.389  18.917  1.00  0.00     0.026 A 
HETATM    5  N7  UNL     1      15.897  23.036  18.325  1.00  0.00    -0.303 N 
ATOM      6  H7  UNL     1      15.530  23.865  18.791  1.00  0.00     0.186 HD
HETATM    7  N8  UNL     1      15.337  22.674  17.192  1.00  0.00    -0.285 N 
ATOM      8  H8  UNL     1      14.564  23.218  16.807  1.00  0.00     0.188 HD
ENDROOT
BRANCH   4   9
HETATM    9  C16 UNL     1      17.540  22.873  20.195  1.00  0.00     0.058 C 
BRANCH   9  10
HETATM   10  C17 UNL     1      18.187  24.215  19.990  1.00  0.00     0.006 C 
BRANCH  10  11
HETATM   11  C18 UNL     1      19.639  24.299  20.285  1.00  0.00     0.007 C 
BRANCH  11  12
HETATM   12  C19 UNL     1      20.157  25.563  20.850  1.00  0.00     0.066 C 
BRANCH  12  13
HETATM   13  C20 UNL     1      21.002  26.337  19.874  1.00  0.00     0.069 A 
HETATM   14  N3  UNL     1      22.231  26.792  20.009  1.00  0.00    -0.296 N 
HETATM   15  N4  UNL     1      22.788  27.396  19.031  1.00  0.00    -0.279 N 
ATOM     16  H3  UNL     1      22.734  26.662  20.887  1.00  0.00     0.187 HD
HETATM   17  C21 UNL     1      22.113  27.554  17.899  1.00  0.00     0.167 A 
ATOM     18  H4  UNL     1      23.739  27.754  19.119  1.00  0.00     0.189 HD
HETATM   19  N5  UNL     1      22.491  28.135  16.793  1.00  0.00    -0.306 N 
HETATM   20  S2  UNL     1      20.623  26.794  18.275  1.00  0.00    -0.038 SA
HETATM   21  C22 UNL     1      21.578  28.173  15.713  1.00  0.00     0.224 C 
ATOM     22  H5  UNL     1      23.419  28.550  16.710  1.00  0.00     0.171 HD
HETATM   23  O3  UNL     1      20.775  29.101  15.598  1.00  0.00    -0.273 OA
BRANCH  21  24
HETATM   24  C23 UNL     1      21.627  27.060  14.747  1.00  0.00     0.109 C 
BRANCH  24  25
HETATM   25  C24 UNL     1      20.263  26.997  14.045  1.00  0.00     0.067 C 
BRANCH  25  26
HETATM   26  C25 UNL     1      19.515  25.918  14.830  1.00  0.00     0.016 A 
HETATM   27  C26 UNL     1      20.185  24.749  15.131  1.00  0.00     0.076 A 
HETATM   28  S1  UNL     1      18.955  23.883  15.968  1.00  0.00    -0.095 SA
HETATM   29  C27 UNL     1      17.693  25.067  15.868  1.00  0.00     0.138 A 
HETATM   30  N6  UNL     1      18.295  26.034  15.207  1.00  0.00    -0.363 N 
ATOM     31  H6  UNL     1      17.783  26.888  14.991  1.00  0.00     0.165 HD
ENDBRANCH  25  26
ENDBRANCH  24  25
ENDBRANCH  21  24
ENDBRANCH  12  13
ENDBRANCH  11  12
ENDBRANCH  10  11
ENDBRANCH   9  10
ENDBRANCH   4   9
BRANCH   1  32
HETATM   32  N2  UNL     1      15.253  21.252  15.463  1.00  0.00    -0.326 N 
ATOM     33  H2  UNL     1      15.857  20.857  14.742  1.00  0.00     0.169 HD
BRANCH  32  34
HETATM   34  C11 UNL     1      13.890  21.373  15.192  1.00  0.00     0.120 C 
BRANCH  34  35
HETATM   35  C10 UNL     1      12.769  20.492  15.077  1.00  0.00     0.115 C 
BRANCH  35  36
HETATM   36  C9  UNL     1      11.557  20.790  15.871  1.00  0.00     0.037 C 
HETATM   37  C8  UNL     1      10.959  19.912  16.828  1.00  0.00     0.134 C 
BRANCH  37  38
HETATM   38  N1  UNL     1      11.184  18.631  17.342  1.00  0.00    -0.358 N 
HETATM   39  C7  UNL     1      10.361  17.509  16.970  1.00  0.00     0.152 C 
BRANCH  38  40
HETATM   40  C4  UNL     1      12.189  18.348  18.372  1.00  0.00     0.029 C 
HETATM   41  C5  UNL     1      12.475  16.836  18.271  1.00  0.00     0.038 C 
HETATM   42  C6  UNL     1      11.611  18.525  19.774  1.00  0.00     0.038 C 
BRANCH  40  43
HETATM   43  C2  UNL     1      13.475  19.055  18.210  1.00  0.00     0.005 C 
HETATM   44  C1  UNL     1      13.824  19.996  19.351  1.00  0.00     0.012 C 
HETATM   45  C3  UNL     1      14.590  17.989  18.258  1.00  0.00     0.012 C 
ENDBRANCH  40  43
ENDBRANCH  38  40
ENDBRANCH  37  38
BRANCH  37  46
HETATM   46  O1  UNL     1       9.895  20.482  17.397  1.00  0.00    -0.346 OA
ATOM     47  H1  UNL     1       9.108  19.971  17.246  1.00  0.00     0.219 HD
ENDBRANCH  37  46
ENDBRANCH  35  36
ENDBRANCH  34  35
BRANCH  34  48
HETATM   48  O2  UNL     1      13.591  22.671  14.996  1.00  0.00    -0.349 OA
ATOM     49  H2  UNL     1      14.252  23.273  15.316  1.00  0.00     0.219 HD
ENDBRANCH  34  48
ENDBRANCH  32  34
ENDBRANCH   1  32
TORSDOF 17
ENDMDL
