MODEL 1
REMARK VINA RESULT: -5.839312136      0.000      0.000
REMARK  2 active torsions:
REMARK  status: ('A' for Active; 'I' for Inactive)
REMARK    1  A    between atoms: C2_2  and  C3_3 
REMARK    2  A    between atoms: C3_3  and  S1_4 
ROOT
HETATM    1  S1  UNL     1      12.047  11.039   3.425  1.00  0.00    -0.048 SA
HETATM    2  C4  UNL     1      12.466  12.463   2.471  1.00  0.00     0.133 C 
HETATM    3  N1  UNL     1      12.744  13.399   1.860  1.00  0.00    -0.184 NA
ENDROOT
BRANCH   1   4
HETATM    4  C3  UNL     1      10.312  10.591   3.134  1.00  0.00     0.129 C 
BRANCH   4   5
HETATM    5  C2  UNL     1       9.602  10.449   4.444  1.00  0.00     0.137 C 
HETATM    6  C1  UNL     1      10.593  10.012   5.509  1.00  0.00     0.048 C 
HETATM    7  N2  UNL     1       8.786  11.587   4.830  1.00  0.00    -0.061 N 
HETATM    8  C5  UNL     1       7.884  10.652   5.440  1.00  0.00     0.193 C 
ATOM      9  H22 UNL     1       9.181  12.362   5.363  1.00  0.00     0.278 HD
ATOM     10  H21 UNL     1       8.459  12.259   4.137  1.00  0.00     0.278 HD
HETATM   11  C6  UNL     1       6.435  10.964   5.377  1.00  0.00     0.033 C 
HETATM   12  C10 UNL     1       8.363   9.621   4.477  1.00  0.00     0.053 C 
HETATM   13  C7  UNL     1       5.850  11.070   4.024  1.00  0.00     0.002 C 
HETATM   14  C8  UNL     1       6.780  10.754   2.897  1.00  0.00     0.001 C 
HETATM   15  C9  UNL     1       7.557   9.517   3.230  1.00  0.00     0.009 C 
ENDBRANCH   4   5
ENDBRANCH   1   4
TORSDOF 2
ENDMDL
MODEL 2
REMARK VINA RESULT: -5.736601683      2.312      2.584
REMARK  2 active torsions:
REMARK  status: ('A' for Active; 'I' for Inactive)
REMARK    1  A    between atoms: C2_2  and  C3_3 
REMARK    2  A    between atoms: C3_3  and  S1_4 
ROOT
HETATM    1  S1  UNL     1      10.848  10.452   1.040  1.00  0.00    -0.048 SA
HETATM    2  C4  UNL     1       9.542  10.143  -0.107  1.00  0.00     0.133 C 
HETATM    3  N1  UNL     1       8.686   9.955  -0.853  1.00  0.00    -0.184 NA
ENDROOT
BRANCH   1   4
HETATM    4  C3  UNL     1      10.881   9.147   2.301  1.00  0.00     0.129 C 
BRANCH   4   5
HETATM    5  C2  UNL     1      10.684   9.752   3.657  1.00  0.00     0.137 C 
HETATM    6  C1  UNL     1      11.977   9.646   4.448  1.00  0.00     0.048 C 
HETATM    7  N2  UNL     1      10.099  11.080   3.661  1.00  0.00    -0.061 N 
HETATM    8  C5  UNL     1       9.446  10.719   4.887  1.00  0.00     0.193 C 
ATOM      9  H22 UNL     1      10.683  11.914   3.600  1.00  0.00     0.278 HD
ATOM     10  H21 UNL     1       9.566  11.423   2.862  1.00  0.00     0.278 HD
HETATM   11  C6  UNL     1       8.082  11.256   5.115  1.00  0.00     0.033 C 
HETATM   12  C10 UNL     1       9.514   9.294   4.459  1.00  0.00     0.053 C 
HETATM   13  C7  UNL     1       7.054  10.862   4.129  1.00  0.00     0.002 C 
HETATM   14  C8  UNL     1       7.507   9.896   3.082  1.00  0.00     0.001 C 
HETATM   15  C9  UNL     1       8.312   8.810   3.728  1.00  0.00     0.009 C 
ENDBRANCH   4   5
ENDBRANCH   1   4
TORSDOF 2
ENDMDL
MODEL 3
REMARK VINA RESULT: -5.649456164      1.218      1.218
REMARK  2 active torsions:
REMARK  status: ('A' for Active; 'I' for Inactive)
REMARK    1  A    between atoms: C2_2  and  C3_3 
REMARK    2  A    between atoms: C3_3  and  S1_4 
ROOT
HETATM    1  S1  UNL     1      11.972  11.309   3.284  1.00  0.00    -0.048 SA
HETATM    2  C4  UNL     1      13.176  10.397   2.370  1.00  0.00     0.133 C 
HETATM    3  N1  UNL     1      13.966   9.815   1.768  1.00  0.00    -0.184 NA
ENDROOT
BRANCH   1   4
HETATM    4  C3  UNL     1      10.334  10.558   3.064  1.00  0.00     0.129 C 
BRANCH   4   5
HETATM    5  C2  UNL     1       9.654  10.435   4.393  1.00  0.00     0.137 C 
HETATM    6  C1  UNL     1      10.667   9.997   5.438  1.00  0.00     0.048 C 
HETATM    7  N2  UNL     1       8.860  11.584   4.788  1.00  0.00    -0.061 N 
HETATM    8  C5  UNL     1       7.964  10.664   5.428  1.00  0.00     0.193 C 
ATOM      9  H22 UNL     1       9.276  12.360   5.303  1.00  0.00     0.278 HD
ATOM     10  H21 UNL     1       8.523  12.254   4.097  1.00  0.00     0.278 HD
HETATM   11  C6  UNL     1       6.516  10.991   5.397  1.00  0.00     0.033 C 
HETATM   12  C10 UNL     1       8.409   9.620   4.463  1.00  0.00     0.053 C 
HETATM   13  C7  UNL     1       5.901  11.091   4.057  1.00  0.00     0.002 C 
HETATM   14  C8  UNL     1       6.800  10.755   2.911  1.00  0.00     0.001 C 
HETATM   15  C9  UNL     1       7.572   9.513   3.237  1.00  0.00     0.009 C 
ENDBRANCH   4   5
ENDBRANCH   1   4
TORSDOF 2
ENDMDL
MODEL 4
REMARK VINA RESULT: -5.600764462      1.547      2.297
REMARK  2 active torsions:
REMARK  status: ('A' for Active; 'I' for Inactive)
REMARK    1  A    between atoms: C2_2  and  C3_3 
REMARK    2  A    between atoms: C3_3  and  S1_4 
ROOT
HETATM    1  S1  UNL     1      11.912   9.448   3.226  1.00  0.00    -0.048 SA
HETATM    2  C4  UNL     1      12.181  11.190   3.131  1.00  0.00     0.133 C 
HETATM    3  N1  UNL     1      12.369  12.324   3.076  1.00  0.00    -0.184 NA
ENDROOT
BRANCH   1   4
HETATM    4  C3  UNL     1      10.304   9.114   4.000  1.00  0.00     0.129 C 
BRANCH   4   5
HETATM    5  C2  UNL     1       9.204   9.568   3.092  1.00  0.00     0.137 C 
HETATM    6  C1  UNL     1       9.650   9.419   1.647  1.00  0.00     0.048 C 
HETATM    7  N2  UNL     1       7.900   8.993   3.368  1.00  0.00    -0.061 N 
HETATM    8  C5  UNL     1       7.331  10.241   2.950  1.00  0.00     0.193 C 
ATOM      9  H22 UNL     1       7.611   8.112   2.941  1.00  0.00     0.278 HD
ATOM     10  H21 UNL     1       7.683   8.594   4.281  1.00  0.00     0.278 HD
HETATM   11  C6  UNL     1       6.115  10.708   3.662  1.00  0.00     0.033 C 
HETATM   12  C10 UNL     1       8.604  10.909   3.343  1.00  0.00     0.053 C 
HETATM   13  C7  UNL     1       6.262  10.943   5.113  1.00  0.00     0.002 C 
HETATM   14  C8  UNL     1       7.644  10.769   5.655  1.00  0.00     0.001 C 
HETATM   15  C9  UNL     1       8.622  11.434   4.735  1.00  0.00     0.009 C 
ENDBRANCH   4   5
ENDBRANCH   1   4
TORSDOF 2
ENDMDL
MODEL 5
REMARK VINA RESULT: -5.596331316      2.364      2.918
REMARK  2 active torsions:
REMARK  status: ('A' for Active; 'I' for Inactive)
REMARK    1  A    between atoms: C2_2  and  C3_3 
REMARK    2  A    between atoms: C3_3  and  S1_4 
ROOT
HETATM    1  S1  UNL     1      11.796   9.915   4.088  1.00  0.00    -0.048 SA
HETATM    2  C4  UNL     1      12.727   9.903   5.587  1.00  0.00     0.133 C 
HETATM    3  N1  UNL     1      13.345   9.889   6.559  1.00  0.00    -0.184 NA
ENDROOT
BRANCH   1   4
HETATM    4  C3  UNL     1      10.169   9.159   4.367  1.00  0.00     0.129 C 
BRANCH   4   5
HETATM    5  C2  UNL     1       9.209   9.629   3.319  1.00  0.00     0.137 C 
HETATM    6  C1  UNL     1       9.861   9.512   1.951  1.00  0.00     0.048 C 
HETATM    7  N2  UNL     1       7.882   9.045   3.391  1.00  0.00    -0.061 N 
HETATM    8  C5  UNL     1       7.373  10.302   2.921  1.00  0.00     0.193 C 
ATOM      9  H22 UNL     1       7.663   8.174   2.908  1.00  0.00     0.278 HD
ATOM     10  H21 UNL     1       7.537   8.627   4.255  1.00  0.00     0.278 HD
HETATM   11  C6  UNL     1       6.065  10.751   3.459  1.00  0.00     0.033 C 
HETATM   12  C10 UNL     1       8.572  10.963   3.508  1.00  0.00     0.053 C 
HETATM   13  C7  UNL     1       5.999  10.955   4.921  1.00  0.00     0.002 C 
HETATM   14  C8  UNL     1       7.289  10.772   5.654  1.00  0.00     0.001 C 
HETATM   15  C9  UNL     1       8.386  11.459   4.899  1.00  0.00     0.009 C 
ENDBRANCH   4   5
ENDBRANCH   1   4
TORSDOF 2
ENDMDL
