MODEL 1
REMARK VINA RESULT: -5.333134542      0.000      0.000
REMARK  5 active torsions:
REMARK  status: ('A' for Active; 'I' for Inactive)
REMARK    1  A    between atoms: C2_2  and  C3_3 
REMARK    2  A    between atoms: C3_3  and  S1_4 
REMARK    3  A    between atoms: S1_4  and  C4_5 
REMARK    4  A    between atoms: C4_5  and  N3_10 
REMARK    5  A    between atoms: N3_10  and  C6_12 
ROOT
HETATM    1  C4  UNL     1       7.385  10.172   2.355  1.00  0.00     0.149 C 
HETATM    2  N1  UNL     1       7.865  10.541   1.230  1.00  0.00    -0.274 N 
ATOM      3  H1  UNL     1       7.344  11.215   0.668  1.00  0.00     0.180 HD
HETATM    4  C5  UNL     1       9.078  10.051   0.743  1.00  0.00     0.183 C 
HETATM    5  N2  UNL     1      10.093   9.648   0.337  1.00  0.00    -0.172 NA
ENDROOT
BRANCH   1   6
HETATM    6  S1  UNL     1       5.824  10.864   2.877  1.00  0.00    -0.093 SA
BRANCH   6   7
HETATM    7  C3  UNL     1       5.808  11.198   4.646  1.00  0.00     0.082 C 
BRANCH   7   8
HETATM    8  C2  UNL     1       4.537  10.737   5.323  1.00  0.00     0.006 C 
HETATM    9  C1  UNL     1       3.483  10.587   4.263  1.00  0.00     0.006 C 
ENDBRANCH   7   8
ENDBRANCH   6   7
ENDBRANCH   1   6
BRANCH   1  10
HETATM   10  N3  UNL     1       8.005   9.245   3.234  1.00  0.00    -0.362 N 
ATOM     11  H3  UNL     1       7.711   8.271   3.175  1.00  0.00     0.162 HD
BRANCH  10  12
HETATM   12  C6  UNL     1       9.005   9.574   4.191  1.00  0.00     0.021 C 
HETATM   13  C7  UNL     1       8.571   9.165   5.574  1.00  0.00     0.037 C 
HETATM   14  C8  UNL     1      10.279   8.800   3.839  1.00  0.00     0.037 C 
HETATM   15  C9  UNL     1       9.345  11.042   4.237  1.00  0.00     0.037 C 
ENDBRANCH  10  12
ENDBRANCH   1  10
TORSDOF 5
ENDMDL
MODEL 2
REMARK VINA RESULT: -5.212268602      0.986      1.540
REMARK  5 active torsions:
REMARK  status: ('A' for Active; 'I' for Inactive)
REMARK    1  A    between atoms: C2_2  and  C3_3 
REMARK    2  A    between atoms: C3_3  and  S1_4 
REMARK    3  A    between atoms: S1_4  and  C4_5 
REMARK    4  A    between atoms: C4_5  and  N3_10 
REMARK    5  A    between atoms: N3_10  and  C6_12 
ROOT
HETATM    1  C4  UNL     1       8.087  10.365   2.270  1.00  0.00     0.149 C 
HETATM    2  N1  UNL     1       8.490  10.202   1.069  1.00  0.00    -0.274 N 
ATOM      3  H1  UNL     1       7.803  10.011   0.339  1.00  0.00     0.180 HD
HETATM    4  C5  UNL     1       9.840  10.277   0.722  1.00  0.00     0.183 C 
HETATM    5  N2  UNL     1      10.966  10.343   0.429  1.00  0.00    -0.172 NA
ENDROOT
BRANCH   1   6
HETATM    6  S1  UNL     1       6.336  10.247   2.598  1.00  0.00    -0.093 SA
BRANCH   6   7
HETATM    7  C3  UNL     1       5.849  11.302   3.974  1.00  0.00     0.082 C 
BRANCH   7   8
HETATM    8  C2  UNL     1       5.326  10.523   5.159  1.00  0.00     0.006 C 
HETATM    9  C1  UNL     1       3.826  10.516   5.077  1.00  0.00     0.006 C 
ENDBRANCH   7   8
ENDBRANCH   6   7
ENDBRANCH   1   6
BRANCH   1  10
HETATM   10  N3  UNL     1       8.933  10.638   3.377  1.00  0.00    -0.362 N 
ATOM     11  H3  UNL     1       9.159  11.613   3.568  1.00  0.00     0.162 HD
BRANCH  10  12
HETATM   12  C6  UNL     1       9.489   9.652   4.240  1.00  0.00     0.021 C 
HETATM   13  C7  UNL     1      10.986   9.800   4.320  1.00  0.00     0.037 C 
HETATM   14  C8  UNL     1       8.911   9.860   5.642  1.00  0.00     0.037 C 
HETATM   15  C9  UNL     1       9.195   8.236   3.815  1.00  0.00     0.037 C 
ENDBRANCH  10  12
ENDBRANCH   1  10
TORSDOF 5
ENDMDL
MODEL 3
REMARK VINA RESULT: -5.161377603      0.929      1.153
REMARK  5 active torsions:
REMARK  status: ('A' for Active; 'I' for Inactive)
REMARK    1  A    between atoms: C2_2  and  C3_3 
REMARK    2  A    between atoms: C3_3  and  S1_4 
REMARK    3  A    between atoms: S1_4  and  C4_5 
REMARK    4  A    between atoms: C4_5  and  N3_10 
REMARK    5  A    between atoms: N3_10  and  C6_12 
ROOT
HETATM    1  C4  UNL     1       7.996  10.397   2.282  1.00  0.00     0.149 C 
HETATM    2  N1  UNL     1       8.341  10.229   1.063  1.00  0.00    -0.274 N 
ATOM      3  H1  UNL     1       7.620  10.032   0.368  1.00  0.00     0.180 HD
HETATM    4  C5  UNL     1       9.672  10.308   0.651  1.00  0.00     0.183 C 
HETATM    5  N2  UNL     1      10.782  10.377   0.304  1.00  0.00    -0.172 NA
ENDROOT
BRANCH   1   6
HETATM    6  S1  UNL     1       6.262  10.274   2.694  1.00  0.00    -0.093 SA
BRANCH   6   7
HETATM    7  C3  UNL     1       5.831  11.359   4.065  1.00  0.00     0.082 C 
BRANCH   7   8
HETATM    8  C2  UNL     1       5.223  10.619   5.235  1.00  0.00     0.006 C 
HETATM    9  C1  UNL     1       3.744  10.516   4.993  1.00  0.00     0.006 C 
ENDBRANCH   7   8
ENDBRANCH   6   7
ENDBRANCH   1   6
BRANCH   1  10
HETATM   10  N3  UNL     1       8.893  10.679   3.345  1.00  0.00    -0.362 N 
ATOM     11  H3  UNL     1       9.189  11.647   3.468  1.00  0.00     0.162 HD
BRANCH  10  12
HETATM   12  C6  UNL     1       9.410   9.712   4.252  1.00  0.00     0.021 C 
HETATM   13  C7  UNL     1       9.140   8.317   3.753  1.00  0.00     0.037 C 
HETATM   14  C8  UNL     1      10.926   9.904   4.345  1.00  0.00     0.037 C 
HETATM   15  C9  UNL     1       8.838   9.815   5.643  1.00  0.00     0.037 C 
ENDBRANCH  10  12
ENDBRANCH   1  10
TORSDOF 5
ENDMDL
MODEL 4
REMARK VINA RESULT: -5.113459560      1.817      2.414
REMARK  5 active torsions:
REMARK  status: ('A' for Active; 'I' for Inactive)
REMARK    1  A    between atoms: C2_2  and  C3_3 
REMARK    2  A    between atoms: C3_3  and  S1_4 
REMARK    3  A    between atoms: S1_4  and  C4_5 
REMARK    4  A    between atoms: C4_5  and  N3_10 
REMARK    5  A    between atoms: N3_10  and  C6_12 
ROOT
HETATM    1  C4  UNL     1       8.879  10.027   2.172  1.00  0.00     0.149 C 
HETATM    2  N1  UNL     1       8.471   9.954   0.963  1.00  0.00    -0.274 N 
ATOM      3  H1  UNL     1       7.511   9.660   0.783  1.00  0.00     0.180 HD
HETATM    4  C5  UNL     1       9.296  10.266  -0.119  1.00  0.00     0.183 C 
HETATM    5  N2  UNL     1       9.981  10.530  -1.023  1.00  0.00    -0.172 NA
ENDROOT
BRANCH   1   6
HETATM    6  S1  UNL     1       7.736   9.604   3.477  1.00  0.00    -0.093 SA
BRANCH   6   7
HETATM    7  C3  UNL     1       6.399  10.804   3.598  1.00  0.00     0.082 C 
BRANCH   7   8
HETATM    8  C2  UNL     1       5.939  11.034   5.020  1.00  0.00     0.006 C 
HETATM    9  C1  UNL     1       4.471  10.721   5.083  1.00  0.00     0.006 C 
ENDBRANCH   7   8
ENDBRANCH   6   7
ENDBRANCH   1   6
BRANCH   1  10
HETATM   10  N3  UNL     1      10.185  10.424   2.562  1.00  0.00    -0.362 N 
ATOM     11  H3  UNL     1      10.373  11.423   2.631  1.00  0.00     0.162 HD
BRANCH  10  12
HETATM   12  C6  UNL     1      11.251   9.532   2.865  1.00  0.00     0.021 C 
HETATM   13  C7  UNL     1      12.483   9.889   2.074  1.00  0.00     0.037 C 
HETATM   14  C8  UNL     1      11.581   9.664   4.354  1.00  0.00     0.037 C 
HETATM   15  C9  UNL     1      10.934   8.085   2.581  1.00  0.00     0.037 C 
ENDBRANCH  10  12
ENDBRANCH   1  10
TORSDOF 5
ENDMDL
MODEL 5
REMARK VINA RESULT: -5.044536783      1.777      2.153
REMARK  5 active torsions:
REMARK  status: ('A' for Active; 'I' for Inactive)
REMARK    1  A    between atoms: C2_2  and  C3_3 
REMARK    2  A    between atoms: C3_3  and  S1_4 
REMARK    3  A    between atoms: S1_4  and  C4_5 
REMARK    4  A    between atoms: C4_5  and  N3_10 
REMARK    5  A    between atoms: N3_10  and  C6_12 
ROOT
HETATM    1  C4  UNL     1       8.893  10.057   2.208  1.00  0.00     0.149 C 
HETATM    2  N1  UNL     1       8.525   9.936   0.990  1.00  0.00    -0.274 N 
ATOM      3  H1  UNL     1       7.587   9.587   0.790  1.00  0.00     0.180 HD
HETATM    4  C5  UNL     1       9.364  10.267  -0.075  1.00  0.00     0.183 C 
HETATM    5  N2  UNL     1      10.061  10.546  -0.966  1.00  0.00    -0.172 NA
ENDROOT
BRANCH   1   6
HETATM    6  S1  UNL     1       7.736   9.603   3.490  1.00  0.00    -0.093 SA
BRANCH   6   7
HETATM    7  C3  UNL     1       6.410  10.812   3.640  1.00  0.00     0.082 C 
BRANCH   7   8
HETATM    8  C2  UNL     1       5.974  11.036   5.071  1.00  0.00     0.006 C 
HETATM    9  C1  UNL     1       4.503  10.742   5.153  1.00  0.00     0.006 C 
ENDBRANCH   7   8
ENDBRANCH   6   7
ENDBRANCH   1   6
BRANCH   1  10
HETATM   10  N3  UNL     1      10.165  10.530   2.626  1.00  0.00    -0.362 N 
ATOM     11  H3  UNL     1      10.329  11.535   2.588  1.00  0.00     0.162 HD
BRANCH  10  12
HETATM   12  C6  UNL     1      11.227   9.707   3.092  1.00  0.00     0.021 C 
HETATM   13  C7  UNL     1      10.982   8.266   2.728  1.00  0.00     0.037 C 
HETATM   14  C8  UNL     1      12.521  10.160   2.411  1.00  0.00     0.037 C 
HETATM   15  C9  UNL     1      11.436   9.769   4.584  1.00  0.00     0.037 C 
ENDBRANCH  10  12
ENDBRANCH   1  10
TORSDOF 5
ENDMDL
