MODEL 1
REMARK VINA RESULT: -6.146729555      0.000      0.000
REMARK  3 active torsions:
REMARK  status: ('A' for Active; 'I' for Inactive)
REMARK    1  A    between atoms: N2_4  and  O1_5 
REMARK    2  A    between atoms: N2_4  and  O2_7 
REMARK    3  A    between atoms: O2_7  and  C1_8 
ROOT
HETATM    1  C1  UNL     1       6.512  10.754   4.345  1.00  0.00     0.094 C 
HETATM    2  C2  UNL     1       6.950  10.488   2.899  1.00  0.00     0.045 C 
HETATM    3  C3  UNL     1       8.333   9.916   2.847  1.00  0.00    -0.011 C 
HETATM    4  C4  UNL     1       9.272  10.963   3.452  1.00  0.00     0.009 C 
HETATM    5  C5  UNL     1       8.887  11.202   4.872  1.00  0.00    -0.011 C 
HETATM    6  C6  UNL     1       8.958   9.938   5.687  1.00  0.00     0.009 C 
HETATM    7  C7  UNL     1       8.013   8.940   5.062  1.00  0.00    -0.011 C 
HETATM    8  C8  UNL     1       8.484   8.667   3.668  1.00  0.00     0.009 C 
HETATM    9  C9  UNL     1       6.601   9.466   5.118  1.00  0.00     0.045 C 
HETATM   10  C10 UNL     1       7.471  11.740   5.002  1.00  0.00     0.045 C 
ENDROOT
BRANCH   1  11
HETATM   11  O2  UNL     1       5.245  11.304   4.298  1.00  0.00    -0.228 OA
BRANCH  11  12
HETATM   12  N2  UNL     1       4.057  10.646   4.334  1.00  0.00    -0.061 N 
HETATM   13  N1  UNL     1       3.445  10.488   3.246  1.00  0.00    -0.298 N 
ATOM     14  H12 UNL     1       2.554   9.993   3.273  1.00  0.00     0.181 HD
ATOM     15  H11 UNL     1       3.868  10.860   2.396  1.00  0.00     0.181 HD
BRANCH  12  16
HETATM   16  O1  UNL     1       3.490  10.145   5.476  1.00  0.00    -0.248 OA
ATOM     17  H1  UNL     1       4.064   9.797   6.149  1.00  0.00     0.249 HD
ENDBRANCH  12  16
ENDBRANCH  11  12
ENDBRANCH   1  11
TORSDOF 3
ENDMDL
MODEL 2
REMARK VINA RESULT: -6.088551784      0.074      1.970
REMARK  3 active torsions:
REMARK  status: ('A' for Active; 'I' for Inactive)
REMARK    1  A    between atoms: N2_4  and  O1_5 
REMARK    2  A    between atoms: N2_4  and  O2_7 
REMARK    3  A    between atoms: O2_7  and  C1_8 
ROOT
HETATM    1  C1  UNL     1       6.522  10.784   4.318  1.00  0.00     0.094 C 
HETATM    2  C2  UNL     1       7.504  11.781   4.945  1.00  0.00     0.045 C 
HETATM    3  C3  UNL     1       8.910  11.270   4.884  1.00  0.00    -0.011 C 
HETATM    4  C4  UNL     1       8.949   9.974   5.700  1.00  0.00     0.009 C 
HETATM    5  C5  UNL     1       8.031   8.978   5.079  1.00  0.00    -0.011 C 
HETATM    6  C6  UNL     1       8.417   8.681   3.653  1.00  0.00     0.009 C 
HETATM    7  C7  UNL     1       8.356   9.981   2.886  1.00  0.00    -0.011 C 
HETATM    8  C8  UNL     1       9.351  10.922   3.491  1.00  0.00     0.009 C 
HETATM    9  C9  UNL     1       6.948  10.518   2.899  1.00  0.00     0.045 C 
HETATM   10  C10 UNL     1       6.588   9.455   5.063  1.00  0.00     0.045 C 
ENDROOT
BRANCH   1  11
HETATM   11  O2  UNL     1       5.254  11.320   4.441  1.00  0.00    -0.228 OA
BRANCH  11  12
HETATM   12  N2  UNL     1       4.070  10.657   4.396  1.00  0.00    -0.061 N 
HETATM   13  N1  UNL     1       3.506  10.545   3.277  1.00  0.00    -0.298 N 
ATOM     14  H12 UNL     1       2.617  10.047   3.243  1.00  0.00     0.181 HD
ATOM     15  H11 UNL     1       3.963  10.956   2.463  1.00  0.00     0.181 HD
BRANCH  12  16
HETATM   16  O1  UNL     1       3.455  10.105   5.489  1.00  0.00    -0.248 OA
ATOM     17  H1  UNL     1       3.917  10.120   6.320  1.00  0.00     0.249 HD
ENDBRANCH  12  16
ENDBRANCH  11  12
ENDBRANCH   1  11
TORSDOF 3
ENDMDL
MODEL 3
REMARK VINA RESULT: -6.084638128      3.800      4.522
REMARK  3 active torsions:
REMARK  status: ('A' for Active; 'I' for Inactive)
REMARK    1  A    between atoms: N2_4  and  O1_5 
REMARK    2  A    between atoms: N2_4  and  O2_7 
REMARK    3  A    between atoms: O2_7  and  C1_8 
ROOT
HETATM    1  C1  UNL     1       9.427   9.597   2.840  1.00  0.00     0.094 C 
HETATM    2  C2  UNL     1       9.109   8.366   3.698  1.00  0.00     0.045 C 
HETATM    3  C3  UNL     1       8.487   8.758   5.002  1.00  0.00    -0.011 C 
HETATM    4  C4  UNL     1       9.516   9.614   5.747  1.00  0.00     0.009 C 
HETATM    5  C5  UNL     1       9.805  10.838   4.946  1.00  0.00    -0.011 C 
HETATM    6  C6  UNL     1       8.560  11.651   4.707  1.00  0.00     0.009 C 
HETATM    7  C7  UNL     1       7.580  10.773   3.964  1.00  0.00    -0.011 C 
HETATM    8  C8  UNL     1       7.255   9.601   4.837  1.00  0.00     0.009 C 
HETATM    9  C9  UNL     1       8.156  10.377   2.630  1.00  0.00     0.045 C 
HETATM   10  C10 UNL     1      10.395  10.510   3.584  1.00  0.00     0.045 C 
ENDROOT
BRANCH   1  11
HETATM   11  O2  UNL     1      10.019   9.148   1.675  1.00  0.00    -0.228 OA
BRANCH  11  12
HETATM   12  N2  UNL     1       9.968   9.726   0.447  1.00  0.00    -0.061 N 
HETATM   13  N1  UNL     1      10.930  10.463   0.110  1.00  0.00    -0.298 N 
ATOM     14  H12 UNL     1      10.892  10.897  -0.812  1.00  0.00     0.181 HD
ATOM     15  H11 UNL     1      11.696  10.591   0.771  1.00  0.00     0.181 HD
BRANCH  12  16
HETATM   16  O1  UNL     1       8.939   9.555  -0.442  1.00  0.00    -0.248 OA
ATOM     17  H1  UNL     1       8.449   8.741  -0.412  1.00  0.00     0.249 HD
ENDBRANCH  12  16
ENDBRANCH  11  12
ENDBRANCH   1  11
TORSDOF 3
ENDMDL
MODEL 4
REMARK VINA RESULT: -6.082538870      4.411      5.165
REMARK  3 active torsions:
REMARK  status: ('A' for Active; 'I' for Inactive)
REMARK    1  A    between atoms: N2_4  and  O1_5 
REMARK    2  A    between atoms: N2_4  and  O2_7 
REMARK    3  A    between atoms: O2_7  and  C1_8 
ROOT
HETATM    1  C1  UNL     1      10.174  10.508   3.311  1.00  0.00     0.094 C 
HETATM    2  C2  UNL     1       9.010  10.480   2.313  1.00  0.00     0.045 C 
HETATM    3  C3  UNL     1       7.732  10.077   2.980  1.00  0.00    -0.011 C 
HETATM    4  C4  UNL     1       7.939   8.659   3.521  1.00  0.00     0.009 C 
HETATM    5  C5  UNL     1       9.040   8.676   4.526  1.00  0.00    -0.011 C 
HETATM    6  C6  UNL     1       8.733   9.607   5.670  1.00  0.00     0.009 C 
HETATM    7  C7  UNL     1       8.546  10.990   5.093  1.00  0.00    -0.011 C 
HETATM    8  C8  UNL     1       7.381  10.945   4.154  1.00  0.00     0.009 C 
HETATM    9  C9  UNL     1       9.822  11.447   4.433  1.00  0.00     0.045 C 
HETATM   10  C10 UNL     1      10.362   9.125   3.925  1.00  0.00     0.045 C 
ENDROOT
BRANCH   1  11
HETATM   11  O2  UNL     1      11.312  10.860   2.610  1.00  0.00    -0.228 OA
BRANCH  11  12
HETATM   12  N2  UNL     1      12.371  11.580   3.062  1.00  0.00    -0.061 N 
HETATM   13  N1  UNL     1      12.609  12.681   2.503  1.00  0.00    -0.298 N 
ATOM     14  H12 UNL     1      13.404  13.222   2.843  1.00  0.00     0.181 HD
ATOM     15  H11 UNL     1      11.999  12.978   1.741  1.00  0.00     0.181 HD
BRANCH  12  16
HETATM   16  O1  UNL     1      13.191  11.181   4.085  1.00  0.00    -0.248 OA
ATOM     17  H1  UNL     1      12.790  10.831   4.872  1.00  0.00     0.249 HD
ENDBRANCH  12  16
ENDBRANCH  11  12
ENDBRANCH   1  11
TORSDOF 3
ENDMDL
MODEL 5
REMARK VINA RESULT: -6.042713316      3.810      4.621
REMARK  3 active torsions:
REMARK  status: ('A' for Active; 'I' for Inactive)
REMARK    1  A    between atoms: N2_4  and  O1_5 
REMARK    2  A    between atoms: N2_4  and  O2_7 
REMARK    3  A    between atoms: O2_7  and  C1_8 
ROOT
HETATM    1  C1  UNL     1       9.521   9.451   2.916  1.00  0.00     0.094 C 
HETATM    2  C2  UNL     1       8.242  10.251   2.641  1.00  0.00     0.045 C 
HETATM    3  C3  UNL     1       7.649  10.781   3.910  1.00  0.00    -0.011 C 
HETATM    4  C4  UNL     1       7.286   9.568   4.772  1.00  0.00     0.009 C 
HETATM    5  C5  UNL     1       8.526   8.802   5.085  1.00  0.00    -0.011 C 
HETATM    6  C6  UNL     1       9.532   9.650   5.817  1.00  0.00     0.009 C 
HETATM    7  C7  UNL     1       9.867  10.826   4.928  1.00  0.00    -0.011 C 
HETATM    8  C8  UNL     1       8.612  11.611   4.708  1.00  0.00     0.009 C 
HETATM    9  C9  UNL     1      10.494  10.338   3.647  1.00  0.00     0.045 C 
HETATM   10  C10 UNL     1       9.209   8.275   3.833  1.00  0.00     0.045 C 
ENDROOT
BRANCH   1  11
HETATM   11  O2  UNL     1       9.983   8.980   1.701  1.00  0.00    -0.228 OA
BRANCH  11  12
HETATM   12  N2  UNL     1       9.994   9.635   0.512  1.00  0.00    -0.061 N 
HETATM   13  N1  UNL     1      10.994  10.351   0.250  1.00  0.00    -0.298 N 
ATOM     14  H12 UNL     1      11.002  10.843  -0.644  1.00  0.00     0.181 HD
ATOM     15  H11 UNL     1      11.743  10.406   0.940  1.00  0.00     0.181 HD
BRANCH  12  16
HETATM   16  O1  UNL     1       8.988   9.561  -0.415  1.00  0.00    -0.248 OA
ATOM     17  H1  UNL     1       8.125   9.874  -0.168  1.00  0.00     0.249 HD
ENDBRANCH  12  16
ENDBRANCH  11  12
ENDBRANCH   1  11
TORSDOF 3
ENDMDL
