MODEL 1
REMARK VINA RESULT: -5.815865247      0.000      0.000
REMARK  3 active torsions:
REMARK  status: ('A' for Active; 'I' for Inactive)
REMARK    1  A    between atoms: C2_2  and  O1_5 
REMARK    2  A    between atoms: O1_5  and  C5_6 
REMARK       I    between atoms: C5_6  and  N1_8 
REMARK    3  A    between atoms: N1_8  and  C6_10 
ROOT
HETATM    1  C5  UNL     1      11.622  10.716   3.607  1.00  0.00     0.361 C 
HETATM    2  O2  UNL     1      11.980   9.520   3.651  1.00  0.00    -0.238 OA
HETATM    3  N1  UNL     1      10.248  11.016   3.519  1.00  0.00    -0.332 N 
ATOM      4  H1  UNL     1       9.955  11.993   3.484  1.00  0.00     0.165 HD
ENDROOT
BRANCH   3   5
HETATM    5  C6  UNL     1       9.231   9.969   3.477  1.00  0.00     0.086 C 
HETATM    6  C7  UNL     1       8.573   9.923   4.839  1.00  0.00     0.025 C 
HETATM    7  C8  UNL     1       7.481  10.959   4.906  1.00  0.00     0.002 C 
HETATM    8  C9  UNL     1       6.399  10.686   3.895  1.00  0.00     0.000 C 
HETATM    9  C10 UNL     1       6.887   9.724   2.832  1.00  0.00     0.002 C 
HETATM   10  C11 UNL     1       8.248  10.221   2.365  1.00  0.00     0.025 C 
ENDBRANCH   3   5
BRANCH   1  11
HETATM   11  O1  UNL     1      12.545  11.734   3.644  1.00  0.00    -0.294 OA
BRANCH  11  12
HETATM   12  C2  UNL     1      13.213  12.097   2.428  1.00  0.00     0.061 C 
HETATM   13  C1  UNL     1      13.241  13.610   2.406  1.00  0.00     0.046 C 
HETATM   14  C3  UNL     1      14.570  11.479   2.473  1.00  0.00     0.046 C 
HETATM   15  C4  UNL     1      12.466  11.619   1.225  1.00  0.00     0.046 C 
ENDBRANCH  11  12
ENDBRANCH   1  11
TORSDOF 3
ENDMDL
MODEL 2
REMARK VINA RESULT: -5.673966247      0.266      1.163
REMARK  3 active torsions:
REMARK  status: ('A' for Active; 'I' for Inactive)
REMARK    1  A    between atoms: C2_2  and  O1_5 
REMARK    2  A    between atoms: O1_5  and  C5_6 
REMARK       I    between atoms: C5_6  and  N1_8 
REMARK    3  A    between atoms: N1_8  and  C6_10 
ROOT
HETATM    1  C5  UNL     1      11.796  10.871   3.623  1.00  0.00     0.361 C 
HETATM    2  O2  UNL     1      12.227   9.702   3.711  1.00  0.00    -0.238 OA
HETATM    3  N1  UNL     1      10.404  11.088   3.593  1.00  0.00    -0.332 N 
ATOM      4  H1  UNL     1      10.052  12.043   3.521  1.00  0.00     0.165 HD
ENDROOT
BRANCH   3   5
HETATM    5  C6  UNL     1       9.450   9.983   3.660  1.00  0.00     0.086 C 
HETATM    6  C7  UNL     1       8.784  10.046   5.018  1.00  0.00     0.025 C 
HETATM    7  C8  UNL     1       7.633  11.016   4.970  1.00  0.00     0.002 C 
HETATM    8  C9  UNL     1       6.578  10.573   3.991  1.00  0.00     0.000 C 
HETATM    9  C10 UNL     1       7.131   9.533   3.040  1.00  0.00     0.002 C 
HETATM   10  C11 UNL     1       8.465  10.057   2.526  1.00  0.00     0.025 C 
ENDBRANCH   3   5
BRANCH   1  11
HETATM   11  O1  UNL     1      12.658  11.940   3.557  1.00  0.00    -0.294 OA
BRANCH  11  12
HETATM   12  C2  UNL     1      13.260  12.258   2.294  1.00  0.00     0.061 C 
HETATM   13  C1  UNL     1      14.652  11.667   2.336  1.00  0.00     0.046 C 
HETATM   14  C3  UNL     1      12.394  11.664   1.235  1.00  0.00     0.046 C 
HETATM   15  C4  UNL     1      13.378  13.735   2.096  1.00  0.00     0.046 C 
ENDBRANCH  11  12
ENDBRANCH   1  11
TORSDOF 3
ENDMDL
MODEL 3
REMARK VINA RESULT: -5.665064036      0.365      1.202
REMARK  3 active torsions:
REMARK  status: ('A' for Active; 'I' for Inactive)
REMARK    1  A    between atoms: C2_2  and  O1_5 
REMARK    2  A    between atoms: O1_5  and  C5_6 
REMARK       I    between atoms: C5_6  and  N1_8 
REMARK    3  A    between atoms: N1_8  and  C6_10 
ROOT
HETATM    1  C5  UNL     1      11.868  10.953   3.594  1.00  0.00     0.361 C 
HETATM    2  O2  UNL     1      12.322   9.791   3.635  1.00  0.00    -0.238 OA
HETATM    3  N1  UNL     1      10.472  11.146   3.635  1.00  0.00    -0.332 N 
ATOM      4  H1  UNL     1      10.101  12.096   3.602  1.00  0.00     0.165 HD
ENDROOT
BRANCH   3   5
HETATM    5  C6  UNL     1       9.542  10.024   3.725  1.00  0.00     0.086 C 
HETATM    6  C7  UNL     1       8.875  10.098   5.082  1.00  0.00     0.025 C 
HETATM    7  C8  UNL     1       7.704  11.043   5.017  1.00  0.00     0.002 C 
HETATM    8  C9  UNL     1       6.658  10.560   4.048  1.00  0.00     0.000 C 
HETATM    9  C10 UNL     1       7.232   9.514   3.115  1.00  0.00     0.002 C 
HETATM   10  C11 UNL     1       8.554  10.056   2.590  1.00  0.00     0.025 C 
ENDBRANCH   3   5
BRANCH   1  11
HETATM   11  O1  UNL     1      12.707  12.039   3.509  1.00  0.00    -0.294 OA
BRANCH  11  12
HETATM   12  C2  UNL     1      13.340  12.319   2.253  1.00  0.00     0.061 C 
HETATM   13  C1  UNL     1      12.479  11.662   1.198  1.00  0.00     0.046 C 
HETATM   14  C3  UNL     1      13.413  13.803   2.121  1.00  0.00     0.046 C 
HETATM   15  C4  UNL     1      14.711  11.727   2.183  1.00  0.00     0.046 C 
ENDBRANCH  11  12
ENDBRANCH   1  11
TORSDOF 3
ENDMDL
MODEL 4
REMARK VINA RESULT: -5.636206930      6.388      8.372
REMARK  3 active torsions:
REMARK  status: ('A' for Active; 'I' for Inactive)
REMARK    1  A    between atoms: C2_2  and  O1_5 
REMARK    2  A    between atoms: O1_5  and  C5_6 
REMARK       I    between atoms: C5_6  and  N1_8 
REMARK    3  A    between atoms: N1_8  and  C6_10 
ROOT
HETATM    1  C5  UNL     1      14.098  10.372  -3.459  1.00  0.00     0.361 C 
HETATM    2  O2  UNL     1      13.912  11.045  -4.494  1.00  0.00    -0.238 OA
HETATM    3  N1  UNL     1      14.532  11.022  -2.286  1.00  0.00    -0.332 N 
ATOM      4  H1  UNL     1      14.684  10.472  -1.441  1.00  0.00     0.165 HD
ENDROOT
BRANCH   3   5
HETATM    5  C6  UNL     1      14.772  12.463  -2.248  1.00  0.00     0.086 C 
HETATM    6  C7  UNL     1      13.525  13.113  -1.689  1.00  0.00     0.025 C 
HETATM    7  C8  UNL     1      13.573  13.081  -0.183  1.00  0.00     0.002 C 
HETATM    8  C9  UNL     1      14.744  13.864   0.348  1.00  0.00     0.000 C 
HETATM    9  C10 UNL     1      15.766  14.109  -0.742  1.00  0.00     0.002 C 
HETATM   10  C11 UNL     1      16.004  12.779  -1.443  1.00  0.00     0.025 C 
ENDBRANCH   3   5
BRANCH   1  11
HETATM   11  O1  UNL     1      13.884   9.013  -3.450  1.00  0.00    -0.294 OA
BRANCH  11  12
HETATM   12  C2  UNL     1      15.008   8.142  -3.634  1.00  0.00     0.061 C 
HETATM   13  C1  UNL     1      14.436   6.815  -4.082  1.00  0.00     0.046 C 
HETATM   14  C3  UNL     1      15.894   8.780  -4.650  1.00  0.00     0.046 C 
HETATM   15  C4  UNL     1      15.756   7.929  -2.358  1.00  0.00     0.046 C 
ENDBRANCH  11  12
ENDBRANCH   1  11
TORSDOF 3
ENDMDL
MODEL 5
REMARK VINA RESULT: -5.620681064      1.325      5.590
REMARK  3 active torsions:
REMARK  status: ('A' for Active; 'I' for Inactive)
REMARK    1  A    between atoms: C2_2  and  O1_5 
REMARK    2  A    between atoms: O1_5  and  C5_6 
REMARK       I    between atoms: C5_6  and  N1_8 
REMARK    3  A    between atoms: N1_8  and  C6_10 
ROOT
HETATM    1  C5  UNL     1      10.803   9.974   2.961  1.00  0.00     0.361 C 
HETATM    2  O2  UNL     1      11.560   9.628   3.892  1.00  0.00    -0.238 OA
HETATM    3  N1  UNL     1      11.277  10.887   1.997  1.00  0.00    -0.332 N 
ATOM      4  H1  UNL     1      10.659  11.169   1.235  1.00  0.00     0.165 HD
ENDROOT
BRANCH   3   5
HETATM    5  C6  UNL     1      12.627  11.440   2.057  1.00  0.00     0.086 C 
HETATM    6  C7  UNL     1      13.134  11.546   0.634  1.00  0.00     0.025 C 
HETATM    7  C8  UNL     1      12.651  12.835   0.023  1.00  0.00     0.002 C 
HETATM    8  C9  UNL     1      13.186  14.032   0.763  1.00  0.00     0.000 C 
HETATM    9  C10 UNL     1      13.701  13.633   2.129  1.00  0.00     0.002 C 
HETATM   10  C11 UNL     1      12.633  12.762   2.776  1.00  0.00     0.025 C 
ENDBRANCH   3   5
BRANCH   1  11
HETATM   11  O1  UNL     1       9.524   9.479   2.866  1.00  0.00    -0.294 OA
BRANCH  11  12
HETATM   12  C2  UNL     1       8.575   9.834   3.880  1.00  0.00     0.061 C 
HETATM   13  C1  UNL     1       7.263  10.058   3.161  1.00  0.00     0.046 C 
HETATM   14  C3  UNL     1       8.533   8.705   4.854  1.00  0.00     0.046 C 
HETATM   15  C4  UNL     1       8.958  11.101   4.574  1.00  0.00     0.046 C 
ENDBRANCH  11  12
ENDBRANCH   1  11
TORSDOF 3
ENDMDL
