MODEL 1
REMARK VINA RESULT: -8.907426627      0.000      0.000
REMARK  11 active torsions:
REMARK  status: ('A' for Active; 'I' for Inactive)
REMARK    1  A    between atoms: C2_2  and  C3_3 
REMARK    2  A    between atoms: C3_3  and  N1_4 
REMARK    3  A    between atoms: C4_8  and  C5_9 
REMARK    4  A    between atoms: C6_11  and  N4_12 
REMARK       I    between atoms: N4_12  and  C7_14 
REMARK    5  A    between atoms: C7_14  and  C8_16 
REMARK    6  A    between atoms: C8_16  and  N5_17 
REMARK    7  A    between atoms: C8_16  and  C10_30 
REMARK    8  A    between atoms: N5_17  and  N6_19 
REMARK       I    between atoms: N6_19  and  C9_21 
REMARK       I    between atoms: C9_21  and  N7_22 
REMARK       I    between atoms: C9_21  and  N8_26 
REMARK    9  A    between atoms: N8_26  and  N9_27 
REMARK   10  A    between atoms: C12_33  and  N10_34 
REMARK   11  A    between atoms: C13_40  and  N12_41 
REMARK       I    between atoms: N12_41  and  C14_43 
ROOT
HETATM    1  N4  UNL     1      -3.912  12.213  49.399  1.00  0.00    -0.296 N 
ATOM      2  H4  UNL     1      -4.294  11.660  48.632  1.00  0.00     0.171 HD
HETATM    3  C7  UNL     1      -3.991  13.595  49.320  1.00  0.00     0.278 C 
HETATM    4  O2  UNL     1      -3.988  14.222  50.436  1.00  0.00    -0.265 OA
ENDROOT
BRANCH   3   5
HETATM    5  C8  UNL     1      -4.073  14.381  48.126  1.00  0.00     0.143 C 
BRANCH   5   6
HETATM    6  N5  UNL     1      -4.367  13.824  46.977  1.00  0.00    -0.295 N 
ATOM      7  H5  UNL     1      -3.665  13.248  46.511  1.00  0.00     0.187 HD
BRANCH   6   8
HETATM    8  N6  UNL     1      -5.584  13.992  46.387  1.00  0.00    -0.291 N 
HETATM    9  C9  UNL     1      -6.490  12.848  46.345  1.00  0.00     0.410 C 
HETATM   10  N7  UNL     1      -7.725  13.195  45.691  1.00  0.00    -0.041 N 
HETATM   11  N8  UNL     1      -5.865  11.780  45.589  1.00  0.00    -0.092 NA
ATOM     12  H73 UNL     1      -8.165  14.008  46.122  1.00  0.00     0.278 HD
ATOM     13  H72 UNL     1      -7.563  13.582  44.761  1.00  0.00     0.278 HD
ATOM     14  H71 UNL     1      -8.358  12.395  45.662  1.00  0.00     0.278 HD
ATOM     15  H6  UNL     1      -5.853  14.890  45.986  1.00  0.00     0.184 HD
BRANCH  11  16
HETATM   16  N9  UNL     1      -4.671  11.382  46.168  1.00  0.00    -0.345 N 
ATOM     17  H92 UNL     1      -4.491  10.432  46.491  1.00  0.00     0.172 HD
ATOM     18  H91 UNL     1      -4.010  12.157  46.226  1.00  0.00     0.172 HD
ENDBRANCH  11  16
ENDBRANCH   6   8
ENDBRANCH   5   6
BRANCH   5  19
HETATM   19  C10 UNL     1      -3.837  15.865  48.095  1.00  0.00     0.074 A 
HETATM   20  C11 UNL     1      -3.256  16.478  47.029  1.00  0.00     0.085 A 
HETATM   21  S1  UNL     1      -3.237  18.140  47.526  1.00  0.00    -0.064 SA
HETATM   22  C12 UNL     1      -3.963  17.933  49.039  1.00  0.00     0.142 A 
HETATM   23  N11 UNL     1      -4.189  16.629  49.108  1.00  0.00    -0.335 N 
ATOM     24  H11 UNL     1      -4.628  16.223  49.934  1.00  0.00     0.168 HD
BRANCH  22  25
HETATM   25  N10 UNL     1      -4.244  18.845  49.947  1.00  0.00    -0.380 N 
ATOM     26 2H10 UNL     1      -3.623  19.563  50.320  1.00  0.00     0.158 HD
ATOM     27 1H10 UNL     1      -5.124  19.003  50.438  1.00  0.00     0.158 HD
ENDBRANCH  22  25
ENDBRANCH   5  19
ENDBRANCH   3   5
BRANCH   1  28
HETATM   28  C6  UNL     1      -3.366  11.582  50.418  1.00  0.00     0.197 A 
HETATM   29  O1  UNL     1      -3.283  10.329  50.645  1.00  0.00    -0.281 OA
HETATM   30  C5  UNL     1      -2.719   9.873  51.689  1.00  0.00     0.158 A 
HETATM   31  C13 UNL     1      -2.199  10.775  52.565  1.00  0.00     0.118 A 
HETATM   32  S2  UNL     1      -2.587  12.257  51.774  1.00  0.00    -0.025 SA
BRANCH  30  33
HETATM   33  C4  UNL     1      -2.644   8.398  51.915  1.00  0.00     0.171 A 
HETATM   34  N3  UNL     1      -2.562   7.461  50.939  1.00  0.00    -0.264 N 
HETATM   35  N2  UNL     1      -2.514   6.263  51.516  1.00  0.00    -0.003 NA
ATOM     36  H3  UNL     1      -2.541   7.643  49.935  1.00  0.00     0.186 HD
HETATM   37  N1  UNL     1      -2.562   6.407  52.829  1.00  0.00    -0.216 N 
HETATM   38  N13 UNL     1      -2.641   7.709  53.040  1.00  0.00    -0.267 N 
ATOM     39  H13 UNL     1      -2.692   8.132  53.967  1.00  0.00     0.190 HD
BRANCH  37  40
HETATM   40  C3  UNL     1      -2.534   5.342  53.829  1.00  0.00     0.167 C 
BRANCH  40  41
HETATM   41  C2  UNL     1      -2.160   5.928  55.173  1.00  0.00     0.019 C 
HETATM   42  C1  UNL     1      -3.152   5.487  56.204  1.00  0.00     0.007 C 
ENDBRANCH  40  41
ENDBRANCH  37  40
ENDBRANCH  30  33
BRANCH  31  43
HETATM   43  N12 UNL     1      -1.510  10.593  53.814  1.00  0.00    -0.319 N 
HETATM   44  C14 UNL     1      -2.200  10.712  55.043  1.00  0.00     0.218 C 
HETATM   45  C15 UNL     1      -1.495  10.525  56.319  1.00  0.00     0.117 C 
HETATM   46  O3  UNL     1      -3.418  10.976  55.039  1.00  0.00    -0.274 OA
ATOM     47  H12 UNL     1      -0.514  10.377  53.814  1.00  0.00     0.169 HD
ENDBRANCH  31  43
ENDBRANCH   1  28
TORSDOF 11
ENDMDL
MODEL 2
REMARK VINA RESULT: -8.765446533      1.952      3.263
REMARK  11 active torsions:
REMARK  status: ('A' for Active; 'I' for Inactive)
REMARK    1  A    between atoms: C2_2  and  C3_3 
REMARK    2  A    between atoms: C3_3  and  N1_4 
REMARK    3  A    between atoms: C4_8  and  C5_9 
REMARK    4  A    between atoms: C6_11  and  N4_12 
REMARK       I    between atoms: N4_12  and  C7_14 
REMARK    5  A    between atoms: C7_14  and  C8_16 
REMARK    6  A    between atoms: C8_16  and  N5_17 
REMARK    7  A    between atoms: C8_16  and  C10_30 
REMARK    8  A    between atoms: N5_17  and  N6_19 
REMARK       I    between atoms: N6_19  and  C9_21 
REMARK       I    between atoms: C9_21  and  N7_22 
REMARK       I    between atoms: C9_21  and  N8_26 
REMARK    9  A    between atoms: N8_26  and  N9_27 
REMARK   10  A    between atoms: C12_33  and  N10_34 
REMARK   11  A    between atoms: C13_40  and  N12_41 
REMARK       I    between atoms: N12_41  and  C14_43 
ROOT
HETATM    1  N4  UNL     1      -3.758  12.640  51.109  1.00  0.00    -0.296 N 
ATOM      2  H4  UNL     1      -4.506  13.155  51.574  1.00  0.00     0.171 HD
HETATM    3  C7  UNL     1      -3.390  13.021  49.829  1.00  0.00     0.278 C 
HETATM    4  O2  UNL     1      -2.190  12.739  49.482  1.00  0.00    -0.265 OA
ENDROOT
BRANCH   3   5
HETATM    5  C8  UNL     1      -4.210  13.690  48.865  1.00  0.00     0.143 C 
BRANCH   5   6
HETATM    6  N5  UNL     1      -5.136  13.037  48.206  1.00  0.00    -0.295 N 
ATOM      7  H5  UNL     1      -5.920  13.555  47.808  1.00  0.00     0.187 HD
BRANCH   6   8
HETATM    8  N6  UNL     1      -5.080  11.686  48.037  1.00  0.00    -0.291 N 
HETATM    9  C9  UNL     1      -4.654  11.175  46.737  1.00  0.00     0.410 C 
HETATM   10  N7  UNL     1      -4.651   9.735  46.728  1.00  0.00    -0.041 N 
HETATM   11  N8  UNL     1      -5.586  11.629  45.723  1.00  0.00    -0.092 NA
ATOM     12  H73 UNL     1      -4.085   9.354  47.487  1.00  0.00     0.278 HD
ATOM     13  H72 UNL     1      -5.556   9.354  47.004  1.00  0.00     0.278 HD
ATOM     14  H71 UNL     1      -4.352   9.378  45.820  1.00  0.00     0.278 HD
ATOM     15  H6  UNL     1      -5.329  11.051  48.795  1.00  0.00     0.184 HD
BRANCH  11  16
HETATM   16  N9  UNL     1      -5.634  13.012  45.665  1.00  0.00    -0.345 N 
ATOM     17  H92 UNL     1      -5.609  13.539  44.792  1.00  0.00     0.172 HD
ATOM     18  H91 UNL     1      -5.697  13.422  46.597  1.00  0.00     0.172 HD
ENDBRANCH  11  16
ENDBRANCH   6   8
ENDBRANCH   5   6
BRANCH   5  19
HETATM   19  C10 UNL     1      -4.081  15.152  48.541  1.00  0.00     0.074 A 
HETATM   20  C11 UNL     1      -3.731  15.585  47.300  1.00  0.00     0.085 A 
HETATM   21  S1  UNL     1      -3.738  17.309  47.497  1.00  0.00    -0.064 SA
HETATM   22  C12 UNL     1      -4.182  17.350  49.128  1.00  0.00     0.142 A 
HETATM   23  N11 UNL     1      -4.306  16.072  49.456  1.00  0.00    -0.335 N 
ATOM     24  H11 UNL     1      -4.572  15.805  50.404  1.00  0.00     0.168 HD
BRANCH  22  25
HETATM   25  N10 UNL     1      -4.365  18.399  49.903  1.00  0.00    -0.380 N 
ATOM     26 2H10 UNL     1      -3.955  19.327  49.799  1.00  0.00     0.158 HD
ATOM     27 1H10 UNL     1      -4.943  18.478  50.740  1.00  0.00     0.158 HD
ENDBRANCH  22  25
ENDBRANCH   5  19
ENDBRANCH   3   5
BRANCH   1  28
HETATM   28  C6  UNL     1      -3.186  11.645  51.756  1.00  0.00     0.197 A 
HETATM   29  O1  UNL     1      -3.048  11.466  53.011  1.00  0.00    -0.281 OA
HETATM   30  C5  UNL     1      -2.464  10.440  53.482  1.00  0.00     0.158 A 
HETATM   31  C13 UNL     1      -1.985   9.528  52.593  1.00  0.00     0.118 A 
HETATM   32  S2  UNL     1      -2.439  10.262  51.100  1.00  0.00    -0.025 SA
BRANCH  30  33
HETATM   33  C4  UNL     1      -2.325  10.271  54.960  1.00  0.00     0.171 A 
HETATM   34  N3  UNL     1      -1.626  11.096  55.778  1.00  0.00    -0.264 N 
HETATM   35  N2  UNL     1      -1.727  10.631  57.021  1.00  0.00    -0.003 NA
ATOM     36  H3  UNL     1      -1.112  11.929  55.491  1.00  0.00     0.186 HD
HETATM   37  N1  UNL     1      -2.468   9.536  57.021  1.00  0.00    -0.216 N 
HETATM   38  N13 UNL     1      -2.815   9.343  55.761  1.00  0.00    -0.267 N 
ATOM     39  H13 UNL     1      -3.395   8.567  55.443  1.00  0.00     0.190 HD
BRANCH  37  40
HETATM   40  C3  UNL     1      -2.823   8.718  58.177  1.00  0.00     0.167 C 
BRANCH  40  41
HETATM   41  C2  UNL     1      -2.532   7.265  57.871  1.00  0.00     0.019 C 
HETATM   42  C1  UNL     1      -1.809   6.646  59.027  1.00  0.00     0.007 C 
ENDBRANCH  40  41
ENDBRANCH  37  40
ENDBRANCH  30  33
BRANCH  31  43
HETATM   43  N12 UNL     1      -1.290   8.286  52.792  1.00  0.00    -0.319 N 
HETATM   44  C14 UNL     1      -1.935   7.051  52.555  1.00  0.00     0.218 C 
HETATM   45  C15 UNL     1      -1.223   5.781  52.758  1.00  0.00     0.117 C 
HETATM   46  O3  UNL     1      -3.120   7.042  52.168  1.00  0.00    -0.274 OA
ATOM     47  H12 UNL     1      -0.320   8.295  53.109  1.00  0.00     0.169 HD
ENDBRANCH  31  43
ENDBRANCH   1  28
TORSDOF 11
ENDMDL
MODEL 3
REMARK VINA RESULT: -8.348607698      2.352      4.538
REMARK  11 active torsions:
REMARK  status: ('A' for Active; 'I' for Inactive)
REMARK    1  A    between atoms: C2_2  and  C3_3 
REMARK    2  A    between atoms: C3_3  and  N1_4 
REMARK    3  A    between atoms: C4_8  and  C5_9 
REMARK    4  A    between atoms: C6_11  and  N4_12 
REMARK       I    between atoms: N4_12  and  C7_14 
REMARK    5  A    between atoms: C7_14  and  C8_16 
REMARK    6  A    between atoms: C8_16  and  N5_17 
REMARK    7  A    between atoms: C8_16  and  C10_30 
REMARK    8  A    between atoms: N5_17  and  N6_19 
REMARK       I    between atoms: N6_19  and  C9_21 
REMARK       I    between atoms: C9_21  and  N7_22 
REMARK       I    between atoms: C9_21  and  N8_26 
REMARK    9  A    between atoms: N8_26  and  N9_27 
REMARK   10  A    between atoms: C12_33  and  N10_34 
REMARK   11  A    between atoms: C13_40  and  N12_41 
REMARK       I    between atoms: N12_41  and  C14_43 
ROOT
HETATM    1  N4  UNL     1      -3.701  12.433  51.210  1.00  0.00    -0.296 N 
ATOM      2  H4  UNL     1      -4.491  12.939  51.610  1.00  0.00     0.171 HD
HETATM    3  C7  UNL     1      -3.199  12.851  49.987  1.00  0.00     0.278 C 
HETATM    4  O2  UNL     1      -1.971  12.570  49.759  1.00  0.00    -0.265 OA
ENDROOT
BRANCH   3   5
HETATM    5  C8  UNL     1      -3.911  13.557  48.966  1.00  0.00     0.143 C 
BRANCH   5   6
HETATM    6  N5  UNL     1      -3.950  14.868  48.962  1.00  0.00    -0.295 N 
ATOM      7  H5  UNL     1      -4.283  15.356  49.793  1.00  0.00     0.187 HD
BRANCH   6   8
HETATM    8  N6  UNL     1      -3.559  15.595  47.878  1.00  0.00    -0.291 N 
HETATM    9  C9  UNL     1      -3.774  17.039  47.907  1.00  0.00     0.410 C 
HETATM   10  N7  UNL     1      -3.306  17.652  46.691  1.00  0.00    -0.041 N 
HETATM   11  N8  UNL     1      -5.196  17.301  48.024  1.00  0.00    -0.092 NA
ATOM     12  H73 UNL     1      -2.331  17.420  46.502  1.00  0.00     0.278 HD
ATOM     13  H72 UNL     1      -3.728  17.224  45.866  1.00  0.00     0.278 HD
ATOM     14  H71 UNL     1      -3.456  18.661  46.711  1.00  0.00     0.278 HD
ATOM     15  H6  UNL     1      -3.128  15.144  47.071  1.00  0.00     0.184 HD
BRANCH  11  16
HETATM   16  N9  UNL     1      -5.717  16.749  49.183  1.00  0.00    -0.345 N 
ATOM     17  H92 UNL     1      -5.202  16.097  49.776  1.00  0.00     0.172 HD
ATOM     18  H91 UNL     1      -6.667  17.077  49.357  1.00  0.00     0.172 HD
ENDBRANCH  11  16
ENDBRANCH   6   8
ENDBRANCH   5   6
BRANCH   5  19
HETATM   19  C10 UNL     1      -4.649  12.875  47.848  1.00  0.00     0.074 A 
HETATM   20  C11 UNL     1      -4.277  11.654  47.381  1.00  0.00     0.085 A 
HETATM   21  S1  UNL     1      -5.447  11.365  46.133  1.00  0.00    -0.064 SA
HETATM   22  C12 UNL     1      -6.316  12.806  46.299  1.00  0.00     0.142 A 
HETATM   23  N11 UNL     1      -5.693  13.443  47.280  1.00  0.00    -0.335 N 
ATOM     24  H11 UNL     1      -6.017  14.358  47.590  1.00  0.00     0.168 HD
BRANCH  22  25
HETATM   25  N10 UNL     1      -7.367  13.214  45.617  1.00  0.00    -0.380 N 
ATOM     26 2H10 UNL     1      -7.715  12.845  44.732  1.00  0.00     0.158 HD
ATOM     27 1H10 UNL     1      -8.020  13.963  45.845  1.00  0.00     0.158 HD
ENDBRANCH  22  25
ENDBRANCH   5  19
ENDBRANCH   3   5
BRANCH   1  28
HETATM   28  C6  UNL     1      -3.205  11.413  51.879  1.00  0.00     0.197 A 
HETATM   29  O1  UNL     1      -3.027  11.277  53.135  1.00  0.00    -0.281 OA
HETATM   30  C5  UNL     1      -2.530  10.217  53.631  1.00  0.00     0.158 A 
HETATM   31  C13 UNL     1      -2.191   9.220  52.768  1.00  0.00     0.118 A 
HETATM   32  S2  UNL     1      -2.637   9.930  51.262  1.00  0.00    -0.025 SA
BRANCH  30  33
HETATM   33  C4  UNL     1      -2.339  10.100  55.108  1.00  0.00     0.171 A 
HETATM   34  N3  UNL     1      -1.772  11.044  55.899  1.00  0.00    -0.264 N 
HETATM   35  N2  UNL     1      -1.773  10.592  57.151  1.00  0.00    -0.003 NA
ATOM     36  H3  UNL     1      -1.407  11.945  55.589  1.00  0.00     0.186 HD
HETATM   37  N1  UNL     1      -2.323   9.390  57.183  1.00  0.00    -0.216 N 
HETATM   38  N13 UNL     1      -2.655   9.120  55.933  1.00  0.00    -0.267 N 
ATOM     39  H13 UNL     1      -3.105   8.252  55.639  1.00  0.00     0.190 HD
BRANCH  37  40
HETATM   40  C3  UNL     1      -2.518   8.546  58.358  1.00  0.00     0.167 C 
BRANCH  40  41
HETATM   41  C2  UNL     1      -2.488   7.092  57.941  1.00  0.00     0.019 C 
HETATM   42  C1  UNL     1      -1.727   6.297  58.957  1.00  0.00     0.007 C 
ENDBRANCH  40  41
ENDBRANCH  37  40
ENDBRANCH  30  33
BRANCH  31  43
HETATM   43  N12 UNL     1      -1.619   7.922  52.999  1.00  0.00    -0.319 N 
HETATM   44  C14 UNL     1      -2.296   6.751  52.589  1.00  0.00     0.218 C 
HETATM   45  C15 UNL     1      -1.711   5.424  52.825  1.00  0.00     0.117 C 
HETATM   46  O3  UNL     1      -3.402   6.849  52.021  1.00  0.00    -0.274 OA
ATOM     47  H12 UNL     1      -0.715   7.844  53.464  1.00  0.00     0.169 HD
ENDBRANCH  31  43
ENDBRANCH   1  28
TORSDOF 11
ENDMDL
MODEL 4
REMARK VINA RESULT: -8.259777771      1.598      2.002
REMARK  11 active torsions:
REMARK  status: ('A' for Active; 'I' for Inactive)
REMARK    1  A    between atoms: C2_2  and  C3_3 
REMARK    2  A    between atoms: C3_3  and  N1_4 
REMARK    3  A    between atoms: C4_8  and  C5_9 
REMARK    4  A    between atoms: C6_11  and  N4_12 
REMARK       I    between atoms: N4_12  and  C7_14 
REMARK    5  A    between atoms: C7_14  and  C8_16 
REMARK    6  A    between atoms: C8_16  and  N5_17 
REMARK    7  A    between atoms: C8_16  and  C10_30 
REMARK    8  A    between atoms: N5_17  and  N6_19 
REMARK       I    between atoms: N6_19  and  C9_21 
REMARK       I    between atoms: C9_21  and  N7_22 
REMARK       I    between atoms: C9_21  and  N8_26 
REMARK    9  A    between atoms: N8_26  and  N9_27 
REMARK   10  A    between atoms: C12_33  and  N10_34 
REMARK   11  A    between atoms: C13_40  and  N12_41 
REMARK       I    between atoms: N12_41  and  C14_43 
ROOT
HETATM    1  N4  UNL     1      -3.271  12.675  49.156  1.00  0.00    -0.296 N 
ATOM      2  H4  UNL     1      -2.454  13.227  48.894  1.00  0.00     0.171 HD
HETATM    3  C7  UNL     1      -4.410  12.768  48.372  1.00  0.00     0.278 C 
HETATM    4  O2  UNL     1      -5.192  11.755  48.395  1.00  0.00    -0.265 OA
ENDROOT
BRANCH   3   5
HETATM    5  C8  UNL     1      -4.796  13.875  47.549  1.00  0.00     0.143 C 
BRANCH   5   6
HETATM    6  N5  UNL     1      -5.592  13.700  46.523  1.00  0.00    -0.295 N 
ATOM      7  H5  UNL     1      -6.549  14.048  46.573  1.00  0.00     0.187 HD
BRANCH   6   8
HETATM    8  N6  UNL     1      -5.176  13.067  45.390  1.00  0.00    -0.291 N 
HETATM    9  C9  UNL     1      -5.834  13.408  44.132  1.00  0.00     0.410 C 
HETATM   10  N7  UNL     1      -5.277  12.653  43.040  1.00  0.00    -0.041 N 
HETATM   11  N8  UNL     1      -7.243  13.080  44.234  1.00  0.00    -0.092 NA
ATOM     12  H73 UNL     1      -4.266  12.768  42.978  1.00  0.00     0.278 HD
ATOM     13  H72 UNL     1      -5.308  11.650  43.221  1.00  0.00     0.278 HD
ATOM     14  H71 UNL     1      -5.737  12.892  42.161  1.00  0.00     0.278 HD
ATOM     15  H6  UNL     1      -4.427  12.375  45.420  1.00  0.00     0.184 HD
BRANCH  11  16
HETATM   16  N9  UNL     1      -7.852  13.782  45.261  1.00  0.00    -0.345 N 
ATOM     17  H92 UNL     1      -7.453  14.621  45.683  1.00  0.00     0.172 HD
ATOM     18  H91 UNL     1      -8.737  13.352  45.532  1.00  0.00     0.172 HD
ENDBRANCH  11  16
ENDBRANCH   6   8
ENDBRANCH   5   6
BRANCH   5  19
HETATM   19  C10 UNL     1      -4.332  15.285  47.788  1.00  0.00     0.074 A 
HETATM   20  C11 UNL     1      -4.802  16.030  48.824  1.00  0.00     0.085 A 
HETATM   21  S1  UNL     1      -3.948  17.526  48.618  1.00  0.00    -0.064 SA
HETATM   22  C12 UNL     1      -3.065  17.095  47.241  1.00  0.00     0.142 A 
HETATM   23  N11 UNL     1      -3.447  15.851  46.994  1.00  0.00    -0.335 N 
ATOM     24  H11 UNL     1      -3.061  15.339  46.201  1.00  0.00     0.168 HD
BRANCH  22  25
HETATM   25  N10 UNL     1      -2.198  17.818  46.563  1.00  0.00    -0.380 N 
ATOM     26 2H10 UNL     1      -1.585  18.551  46.921  1.00  0.00     0.158 HD
ATOM     27 1H10 UNL     1      -1.980  17.781  45.567  1.00  0.00     0.158 HD
ENDBRANCH  22  25
ENDBRANCH   5  19
ENDBRANCH   3   5
BRANCH   1  28
HETATM   28  C6  UNL     1      -3.194  11.907  50.223  1.00  0.00     0.197 A 
HETATM   29  O1  UNL     1      -3.223  10.635  50.310  1.00  0.00    -0.281 OA
HETATM   30  C5  UNL     1      -3.136  10.037  51.429  1.00  0.00     0.158 A 
HETATM   31  C13 UNL     1      -3.010  10.808  52.543  1.00  0.00     0.118 A 
HETATM   32  S2  UNL     1      -3.028  12.386  51.849  1.00  0.00    -0.025 SA
BRANCH  30  33
HETATM   33  C4  UNL     1      -3.175   8.544  51.485  1.00  0.00     0.171 A 
HETATM   34  N3  UNL     1      -4.202   7.773  51.052  1.00  0.00    -0.264 N 
HETATM   35  N2  UNL     1      -3.881   6.498  51.262  1.00  0.00    -0.003 NA
ATOM     36  H3  UNL     1      -5.071   8.111  50.638  1.00  0.00     0.186 HD
HETATM   37  N1  UNL     1      -2.682   6.433  51.813  1.00  0.00    -0.216 N 
HETATM   38  N13 UNL     1      -2.280   7.686  51.936  1.00  0.00    -0.267 N 
ATOM     39  H13 UNL     1      -1.381   7.958  52.333  1.00  0.00     0.190 HD
BRANCH  37  40
HETATM   40  C3  UNL     1      -1.960   5.225  52.203  1.00  0.00     0.167 C 
BRANCH  40  41
HETATM   41  C2  UNL     1      -2.784   4.452  53.210  1.00  0.00     0.019 C 
HETATM   42  C1  UNL     1      -2.737   5.149  54.533  1.00  0.00     0.007 C 
ENDBRANCH  40  41
ENDBRANCH  37  40
ENDBRANCH  30  33
BRANCH  31  43
HETATM   43  N12 UNL     1      -2.891  10.453  53.931  1.00  0.00    -0.319 N 
HETATM   44  C14 UNL     1      -1.679   9.937  54.444  1.00  0.00     0.218 C 
HETATM   45  C15 UNL     1      -1.558   9.575  55.862  1.00  0.00     0.117 C 
HETATM   46  O3  UNL     1      -0.704   9.790  53.680  1.00  0.00    -0.274 OA
ATOM     47  H12 UNL     1      -3.690  10.574  54.554  1.00  0.00     0.169 HD
ENDBRANCH  31  43
ENDBRANCH   1  28
TORSDOF 11
ENDMDL
MODEL 5
REMARK VINA RESULT: -8.212495154      1.882      2.306
REMARK  11 active torsions:
REMARK  status: ('A' for Active; 'I' for Inactive)
REMARK    1  A    between atoms: C2_2  and  C3_3 
REMARK    2  A    between atoms: C3_3  and  N1_4 
REMARK    3  A    between atoms: C4_8  and  C5_9 
REMARK    4  A    between atoms: C6_11  and  N4_12 
REMARK       I    between atoms: N4_12  and  C7_14 
REMARK    5  A    between atoms: C7_14  and  C8_16 
REMARK    6  A    between atoms: C8_16  and  N5_17 
REMARK    7  A    between atoms: C8_16  and  C10_30 
REMARK    8  A    between atoms: N5_17  and  N6_19 
REMARK       I    between atoms: N6_19  and  C9_21 
REMARK       I    between atoms: C9_21  and  N7_22 
REMARK       I    between atoms: C9_21  and  N8_26 
REMARK    9  A    between atoms: N8_26  and  N9_27 
REMARK   10  A    between atoms: C12_33  and  N10_34 
REMARK   11  A    between atoms: C13_40  and  N12_41 
REMARK       I    between atoms: N12_41  and  C14_43 
ROOT
HETATM    1  N4  UNL     1      -3.191  12.702  49.294  1.00  0.00    -0.296 N 
ATOM      2  H4  UNL     1      -2.411  13.320  49.070  1.00  0.00     0.171 HD
HETATM    3  C7  UNL     1      -4.306  12.718  48.470  1.00  0.00     0.278 C 
HETATM    4  O2  UNL     1      -5.006  11.647  48.451  1.00  0.00    -0.265 OA
ENDROOT
BRANCH   3   5
HETATM    5  C8  UNL     1      -4.746  13.804  47.648  1.00  0.00     0.143 C 
BRANCH   5   6
HETATM    6  N5  UNL     1      -5.554  13.593  46.637  1.00  0.00    -0.295 N 
ATOM      7  H5  UNL     1      -6.529  13.880  46.713  1.00  0.00     0.187 HD
BRANCH   6   8
HETATM    8  N6  UNL     1      -5.126  13.000  45.487  1.00  0.00    -0.291 N 
HETATM    9  C9  UNL     1      -5.810  13.342  44.243  1.00  0.00     0.410 C 
HETATM   10  N7  UNL     1      -5.236  12.632  43.129  1.00  0.00    -0.041 N 
HETATM   11  N8  UNL     1      -7.204  12.959  44.351  1.00  0.00    -0.092 NA
ATOM     12  H73 UNL     1      -4.230  12.786  43.061  1.00  0.00     0.278 HD
ATOM     13  H72 UNL     1      -5.227  11.624  43.290  1.00  0.00     0.278 HD
ATOM     14  H71 UNL     1      -5.714  12.871  42.260  1.00  0.00     0.278 HD
ATOM     15  H6  UNL     1      -4.351  12.337  45.495  1.00  0.00     0.184 HD
BRANCH  11  16
HETATM   16  N9  UNL     1      -7.829  13.615  45.399  1.00  0.00    -0.345 N 
ATOM     17  H92 UNL     1      -7.538  13.524  46.373  1.00  0.00     0.172 HD
ATOM     18  H91 UNL     1      -8.604  14.190  45.069  1.00  0.00     0.172 HD
ENDBRANCH  11  16
ENDBRANCH   6   8
ENDBRANCH   5   6
BRANCH   5  19
HETATM   19  C10 UNL     1      -4.332  15.232  47.870  1.00  0.00     0.074 A 
HETATM   20  C11 UNL     1      -4.829  15.973  48.895  1.00  0.00     0.085 A 
HETATM   21  S1  UNL     1      -4.026  17.495  48.671  1.00  0.00    -0.064 SA
HETATM   22  C12 UNL     1      -3.126  17.077  47.302  1.00  0.00     0.142 A 
HETATM   23  N11 UNL     1      -3.464  15.818  47.071  1.00  0.00    -0.335 N 
ATOM     24  H11 UNL     1      -3.059  15.309  46.285  1.00  0.00     0.168 HD
BRANCH  22  25
HETATM   25  N10 UNL     1      -2.282  17.821  46.617  1.00  0.00    -0.380 N 
ATOM     26 2H10 UNL     1      -1.280  17.672  46.493  1.00  0.00     0.158 HD
ATOM     27 1H10 UNL     1      -2.470  18.673  46.088  1.00  0.00     0.158 HD
ENDBRANCH  22  25
ENDBRANCH   5  19
ENDBRANCH   3   5
BRANCH   1  28
HETATM   28  C6  UNL     1      -3.092  11.926  50.354  1.00  0.00     0.197 A 
HETATM   29  O1  UNL     1      -2.867  10.672  50.422  1.00  0.00    -0.281 OA
HETATM   30  C5  UNL     1      -2.801  10.063  51.536  1.00  0.00     0.158 A 
HETATM   31  C13 UNL     1      -2.980  10.800  52.666  1.00  0.00     0.118 A 
HETATM   32  S2  UNL     1      -3.238  12.366  51.993  1.00  0.00    -0.025 SA
BRANCH  30  33
HETATM   33  C4  UNL     1      -2.535   8.593  51.570  1.00  0.00     0.171 A 
HETATM   34  N3  UNL     1      -1.453   8.007  52.139  1.00  0.00    -0.264 N 
HETATM   35  N2  UNL     1      -1.557   6.691  51.974  1.00  0.00    -0.003 NA
ATOM     36  H3  UNL     1      -0.690   8.493  52.612  1.00  0.00     0.186 HD
HETATM   37  N1  UNL     1      -2.672   6.419  51.318  1.00  0.00    -0.216 N 
HETATM   38  N13 UNL     1      -3.242   7.588  51.087  1.00  0.00    -0.267 N 
ATOM     39  H13 UNL     1      -4.127   7.702  50.593  1.00  0.00     0.190 HD
BRANCH  37  40
HETATM   40  C3  UNL     1      -3.163   5.098  50.933  1.00  0.00     0.167 C 
BRANCH  40  41
HETATM   41  C2  UNL     1      -2.515   4.048  51.810  1.00  0.00     0.019 C 
HETATM   42  C1  UNL     1      -1.559   3.236  50.993  1.00  0.00     0.007 C 
ENDBRANCH  40  41
ENDBRANCH  37  40
ENDBRANCH  30  33
BRANCH  31  43
HETATM   43  N12 UNL     1      -2.968  10.424  54.053  1.00  0.00    -0.319 N 
HETATM   44  C14 UNL     1      -1.747  10.199  54.729  1.00  0.00     0.218 C 
HETATM   45  C15 UNL     1      -1.734   9.815  56.148  1.00  0.00     0.117 C 
HETATM   46  O3  UNL     1      -0.671  10.328  54.112  1.00  0.00    -0.274 OA
ATOM     47  H12 UNL     1      -3.849  10.319  54.556  1.00  0.00     0.169 HD
ENDBRANCH  31  43
ENDBRANCH   1  28
TORSDOF 11
ENDMDL
