MODEL 1
REMARK VINA RESULT: -6.011926347      0.000      0.000
REMARK  8 active torsions:
REMARK  status: ('A' for Active; 'I' for Inactive)
REMARK    1  A    between atoms: N5_12  and  C6_13 
REMARK    2  A    between atoms: C7_16  and  C8_17 
REMARK    3  A    between atoms: N10_28  and  C12_29 
REMARK    4  A    between atoms: C12_29  and  C13_30 
REMARK    5  A    between atoms: C13_30  and  C14_31 
REMARK    6  A    between atoms: C14_31  and  C15_32 
REMARK    7  A    between atoms: C15_32  and  N11_33 
REMARK    8  A    between atoms: N11_33  and  S2_35 
ROOT
HETATM    1  C6  UNL     1      -2.545   7.499  53.396  1.00  0.00     0.705 A 
HETATM    2  N6  UNL     1      -2.167   6.214  53.509  1.00  0.00    -0.172 N 
ATOM      3  H6  UNL     1      -1.688   5.816  54.316  1.00  0.00     0.186 HD
HETATM    4  C7  UNL     1      -2.516   5.523  52.395  1.00  0.00     0.157 A 
HETATM    5  N10 UNL     1      -3.121   6.398  51.576  1.00  0.00    -0.261 N 
HETATM    6  N12 UNL     1      -3.135   7.592  52.192  1.00  0.00    -0.128 N 
ATOM      7  H12 UNL     1      -3.535   8.446  51.802  1.00  0.00     0.206 HD
ENDROOT
BRANCH   1   8
HETATM    8  N5  UNL     1      -2.361   8.559  54.361  1.00  0.00    -0.127 N 
HETATM    9  C2  UNL     1      -2.029   9.892  53.976  1.00  0.00     0.125 A 
HETATM   10  C1  UNL     1      -3.106  10.478  53.074  1.00  0.00     0.064 C 
HETATM   11  C3  UNL     1      -0.688   9.903  53.260  1.00  0.00     0.064 C 
HETATM   12  N1  UNL     1      -1.901  10.754  55.112  1.00  0.00    -0.337 N 
HETATM   13  C4  UNL     1      -2.047  10.441  56.338  1.00  0.00     0.192 A 
ATOM     14  H1  UNL     1      -1.666  11.727  54.918  1.00  0.00     0.164 HD
HETATM   15  N2  UNL     1      -1.894  11.382  57.392  1.00  0.00    -0.063 NA
HETATM   16  N3  UNL     1      -2.376   9.105  56.673  1.00  0.00    -0.304 N 
HETATM   17  C5  UNL     1      -2.516   8.244  55.733  1.00  0.00     0.214 A 
ATOM     18  H3  UNL     1      -2.499   8.830  57.648  1.00  0.00     0.171 HD
HETATM   19  N4  UNL     1      -2.845   6.912  56.089  1.00  0.00    -0.062 NA
ENDBRANCH   1   8
BRANCH   4  20
HETATM   20  C8  UNL     1      -2.257   4.103  52.197  1.00  0.00     0.119 A 
HETATM   21  C9  UNL     1      -2.916   3.150  52.986  1.00  0.00     0.138 A 
HETATM   22  N7  UNL     1      -3.839   3.628  53.969  1.00  0.00    -0.081 NA
HETATM   23  N8  UNL     1      -2.686   1.837  52.818  1.00  0.00    -0.321 N 
HETATM   24  C10 UNL     1      -1.812   1.440  51.882  1.00  0.00     0.179 A 
ATOM     25  H8  UNL     1      -3.171   1.149  53.396  1.00  0.00     0.169 HD
HETATM   26  S1  UNL     1      -1.547  -0.175  51.699  1.00  0.00    -0.040 SA
HETATM   27  N9  UNL     1      -1.177   2.349  51.125  1.00  0.00    -0.299 N 
HETATM   28  C11 UNL     1      -1.361   3.676  51.240  1.00  0.00     0.265 A 
ATOM     29  H9  UNL     1      -0.518   2.014  50.421  1.00  0.00     0.171 HD
HETATM   30  O1  UNL     1      -0.762   4.513  50.526  1.00  0.00    -0.267 OA
ENDBRANCH   4  20
BRANCH   5  31
HETATM   31  C12 UNL     1      -3.662   6.096  50.269  1.00  0.00     0.151 C 
BRANCH  31  32
HETATM   32  C13 UNL     1      -3.341   7.121  49.238  1.00  0.00     0.023 C 
BRANCH  32  33
HETATM   33  C14 UNL     1      -4.541   7.923  48.790  1.00  0.00     0.022 C 
BRANCH  33  34
HETATM   34  C15 UNL     1      -4.049   9.363  48.593  1.00  0.00     0.132 C 
BRANCH  34  35
HETATM   35  N11 UNL     1      -4.434   9.862  47.294  1.00  0.00    -0.320 N 
ATOM     36  H11 UNL     1      -4.410   9.329  46.424  1.00  0.00     0.172 HD
BRANCH  35  37
HETATM   37  S2  UNL     1      -4.943  11.500  47.447  1.00  0.00     0.222 S 
HETATM   38  C16 UNL     1      -5.444  12.193  45.910  1.00  0.00     0.185 C 
HETATM   39  O2  UNL     1      -6.087  11.566  48.417  1.00  0.00    -0.206 OA
HETATM   40  O3  UNL     1      -3.829  12.322  48.028  1.00  0.00    -0.206 OA
ENDBRANCH  35  37
ENDBRANCH  34  35
ENDBRANCH  33  34
ENDBRANCH  32  33
ENDBRANCH  31  32
ENDBRANCH   5  31
TORSDOF 8
ENDMDL
MODEL 2
REMARK VINA RESULT: -5.845857880      2.230      2.905
REMARK  8 active torsions:
REMARK  status: ('A' for Active; 'I' for Inactive)
REMARK    1  A    between atoms: N5_12  and  C6_13 
REMARK    2  A    between atoms: C7_16  and  C8_17 
REMARK    3  A    between atoms: N10_28  and  C12_29 
REMARK    4  A    between atoms: C12_29  and  C13_30 
REMARK    5  A    between atoms: C13_30  and  C14_31 
REMARK    6  A    between atoms: C14_31  and  C15_32 
REMARK    7  A    between atoms: C15_32  and  N11_33 
REMARK    8  A    between atoms: N11_33  and  S2_35 
ROOT
HETATM    1  C6  UNL     1      -2.490   7.309  55.278  1.00  0.00     0.705 A 
HETATM    2  N6  UNL     1      -2.036   6.172  54.721  1.00  0.00    -0.172 N 
ATOM      3  H6  UNL     1      -1.559   5.426  55.226  1.00  0.00     0.186 HD
HETATM    4  C7  UNL     1      -2.304   6.162  53.392  1.00  0.00     0.157 A 
HETATM    5  N10 UNL     1      -2.937   7.315  53.120  1.00  0.00    -0.261 N 
HETATM    6  N12 UNL     1      -3.046   8.002  54.270  1.00  0.00    -0.128 N 
ATOM      7  H12 UNL     1      -3.486   8.917  54.363  1.00  0.00     0.206 HD
ENDROOT
BRANCH   1   8
HETATM    8  N5  UNL     1      -2.405   7.704  56.665  1.00  0.00    -0.127 N 
HETATM    9  C2  UNL     1      -2.410   9.072  57.070  1.00  0.00     0.125 A 
HETATM   10  C1  UNL     1      -3.693   9.761  56.630  1.00  0.00     0.064 C 
HETATM   11  C3  UNL     1      -1.206   9.789  56.479  1.00  0.00     0.064 C 
HETATM   12  N1  UNL     1      -2.315   9.204  58.492  1.00  0.00    -0.337 N 
HETATM   13  C4  UNL     1      -2.232   8.265  59.350  1.00  0.00     0.192 A 
ATOM     14  H1  UNL     1      -2.315  10.154  58.860  1.00  0.00     0.164 HD
HETATM   15  N2  UNL     1      -2.140   8.510  60.746  1.00  0.00    -0.063 NA
HETATM   16  N3  UNL     1      -2.229   6.921  58.902  1.00  0.00    -0.304 N 
HETATM   17  C5  UNL     1      -2.311   6.685  57.644  1.00  0.00     0.214 A 
ATOM     18  H3  UNL     1      -2.163   6.153  59.569  1.00  0.00     0.171 HD
HETATM   19  N4  UNL     1      -2.307   5.333  57.216  1.00  0.00    -0.062 NA
ENDBRANCH   1   8
BRANCH   4  20
HETATM   20  C8  UNL     1      -1.950   5.071  52.493  1.00  0.00     0.119 A 
HETATM   21  C9  UNL     1      -2.752   3.924  52.427  1.00  0.00     0.138 A 
HETATM   22  N7  UNL     1      -3.912   3.878  53.262  1.00  0.00    -0.081 NA
HETATM   23  N8  UNL     1      -2.437   2.907  51.606  1.00  0.00    -0.321 N 
HETATM   24  C10 UNL     1      -1.338   3.000  50.843  1.00  0.00     0.179 A 
ATOM     25  H8  UNL     1      -3.027   2.076  51.564  1.00  0.00     0.169 HD
HETATM   26  S1  UNL     1      -0.975   1.739  49.847  1.00  0.00    -0.040 SA
HETATM   27  N9  UNL     1      -0.566   4.096  50.903  1.00  0.00    -0.299 N 
HETATM   28  C11 UNL     1      -0.824   5.148  51.701  1.00  0.00     0.265 A 
ATOM     29  H9  UNL     1       0.262   4.134  50.309  1.00  0.00     0.171 HD
HETATM   30  O1  UNL     1      -0.095   6.165  51.747  1.00  0.00    -0.267 OA
ENDBRANCH   4  20
BRANCH   5  31
HETATM   31  C12 UNL     1      -3.415   7.729  51.820  1.00  0.00     0.151 C 
BRANCH  31  32
HETATM   32  C13 UNL     1      -2.723   8.934  51.284  1.00  0.00     0.023 C 
BRANCH  32  33
HETATM   33  C14 UNL     1      -1.821   9.609  52.290  1.00  0.00     0.022 C 
BRANCH  33  34
HETATM   34  C15 UNL     1      -2.308  11.060  52.401  1.00  0.00     0.132 C 
BRANCH  34  35
HETATM   35  N11 UNL     1      -3.489  11.267  51.597  1.00  0.00    -0.320 N 
ATOM     36  H11 UNL     1      -4.367  10.758  51.694  1.00  0.00     0.172 HD
BRANCH  35  37
HETATM   37  S2  UNL     1      -3.178  12.509  50.446  1.00  0.00     0.222 S 
HETATM   38  C16 UNL     1      -4.062  12.271  48.944  1.00  0.00     0.185 C 
HETATM   39  O2  UNL     1      -3.562  13.833  51.042  1.00  0.00    -0.206 OA
HETATM   40  O3  UNL     1      -1.706  12.572  50.155  1.00  0.00    -0.206 OA
ENDBRANCH  35  37
ENDBRANCH  34  35
ENDBRANCH  33  34
ENDBRANCH  32  33
ENDBRANCH  31  32
ENDBRANCH   5  31
TORSDOF 8
ENDMDL
MODEL 3
REMARK VINA RESULT: -5.844986297      3.771      8.666
REMARK  8 active torsions:
REMARK  status: ('A' for Active; 'I' for Inactive)
REMARK    1  A    between atoms: N5_12  and  C6_13 
REMARK    2  A    between atoms: C7_16  and  C8_17 
REMARK    3  A    between atoms: N10_28  and  C12_29 
REMARK    4  A    between atoms: C12_29  and  C13_30 
REMARK    5  A    between atoms: C13_30  and  C14_31 
REMARK    6  A    between atoms: C14_31  and  C15_32 
REMARK    7  A    between atoms: C15_32  and  N11_33 
REMARK    8  A    between atoms: N11_33  and  S2_35 
ROOT
HETATM    1  C6  UNL     1      -2.740   7.940  51.675  1.00  0.00     0.705 A 
HETATM    2  N6  UNL     1      -2.927   8.815  50.672  1.00  0.00    -0.172 N 
ATOM      3  H6  UNL     1      -2.914   8.576  49.680  1.00  0.00     0.186 HD
HETATM    4  C7  UNL     1      -3.136  10.059  51.168  1.00  0.00     0.157 A 
HETATM    5  N10 UNL     1      -3.077   9.953  52.505  1.00  0.00    -0.261 N 
HETATM    6  N12 UNL     1      -2.837   8.665  52.803  1.00  0.00    -0.128 N 
ATOM      7  H12 UNL     1      -2.743   8.292  53.747  1.00  0.00     0.206 HD
ENDROOT
BRANCH   1   8
HETATM    8  N5  UNL     1      -2.488   6.521  51.570  1.00  0.00    -0.127 N 
HETATM    9  C2  UNL     1      -1.718   5.809  52.536  1.00  0.00     0.125 A 
HETATM   10  C1  UNL     1      -2.352   5.910  53.916  1.00  0.00     0.064 C 
HETATM   11  C3  UNL     1      -0.301   6.361  52.574  1.00  0.00     0.064 C 
HETATM   12  N1  UNL     1      -1.613   4.419  52.210  1.00  0.00    -0.337 N 
HETATM   13  C4  UNL     1      -2.115   3.823  51.203  1.00  0.00     0.192 A 
ATOM     14  H1  UNL     1      -1.076   3.841  52.857  1.00  0.00     0.164 HD
HETATM   15  N2  UNL     1      -1.947   2.431  50.974  1.00  0.00    -0.063 NA
HETATM   16  N3  UNL     1      -2.874   4.571  50.268  1.00  0.00    -0.304 N 
HETATM   17  C5  UNL     1      -3.033   5.829  50.462  1.00  0.00     0.214 A 
ATOM     18  H3  UNL     1      -3.286   4.116  49.454  1.00  0.00     0.171 HD
HETATM   19  N4  UNL     1      -3.796   6.559  49.515  1.00  0.00    -0.062 NA
ENDBRANCH   1   8
BRANCH   4  20
HETATM   20  C8  UNL     1      -3.379  11.239  50.347  1.00  0.00     0.119 A 
HETATM   21  C9  UNL     1      -4.150  11.139  49.182  1.00  0.00     0.138 A 
HETATM   22  N7  UNL     1      -4.681   9.853  48.847  1.00  0.00    -0.081 NA
HETATM   23  N8  UNL     1      -4.381  12.216  48.411  1.00  0.00    -0.321 N 
HETATM   24  C10 UNL     1      -3.861  13.399  48.769  1.00  0.00     0.179 A 
ATOM     25  H8  UNL     1      -4.945  12.135  47.565  1.00  0.00     0.169 HD
HETATM   26  S1  UNL     1      -4.157  14.702  47.807  1.00  0.00    -0.040 SA
HETATM   27  N9  UNL     1      -3.120  13.500  49.884  1.00  0.00    -0.299 N 
HETATM   28  C11 UNL     1      -2.852  12.463  50.699  1.00  0.00     0.265 A 
ATOM     29  H9  UNL     1      -2.740  14.414  50.129  1.00  0.00     0.171 HD
HETATM   30  O1  UNL     1      -2.159  12.572  51.736  1.00  0.00    -0.267 OA
ENDBRANCH   4  20
BRANCH   5  31
HETATM   31  C12 UNL     1      -3.247  11.038  53.446  1.00  0.00     0.151 C 
BRANCH  31  32
HETATM   32  C13 UNL     1      -2.447  10.880  54.692  1.00  0.00     0.023 C 
BRANCH  32  33
HETATM   33  C14 UNL     1      -3.260  10.413  55.876  1.00  0.00     0.022 C 
BRANCH  33  34
HETATM   34  C15 UNL     1      -2.515   9.207  56.464  1.00  0.00     0.132 C 
BRANCH  34  35
HETATM   35  N11 UNL     1      -1.992   9.517  57.773  1.00  0.00    -0.320 N 
ATOM     36  H11 UNL     1      -1.600  10.415  58.056  1.00  0.00     0.172 HD
BRANCH  35  37
HETATM   37  S2  UNL     1      -2.135   8.129  58.781  1.00  0.00     0.222 S 
HETATM   38  C16 UNL     1      -2.228   6.635  57.856  1.00  0.00     0.185 C 
HETATM   39  O2  UNL     1      -0.948   8.069  59.700  1.00  0.00    -0.206 OA
HETATM   40  O3  UNL     1      -3.353   8.257  59.649  1.00  0.00    -0.206 OA
ENDBRANCH  35  37
ENDBRANCH  34  35
ENDBRANCH  33  34
ENDBRANCH  32  33
ENDBRANCH  31  32
ENDBRANCH   5  31
TORSDOF 8
ENDMDL
MODEL 4
REMARK VINA RESULT: -5.750990215      0.927      1.422
REMARK  8 active torsions:
REMARK  status: ('A' for Active; 'I' for Inactive)
REMARK    1  A    between atoms: N5_12  and  C6_13 
REMARK    2  A    between atoms: C7_16  and  C8_17 
REMARK    3  A    between atoms: N10_28  and  C12_29 
REMARK    4  A    between atoms: C12_29  and  C13_30 
REMARK    5  A    between atoms: C13_30  and  C14_31 
REMARK    6  A    between atoms: C14_31  and  C15_32 
REMARK    7  A    between atoms: C15_32  and  N11_33 
REMARK    8  A    between atoms: N11_33  and  S2_35 
ROOT
HETATM    1  C6  UNL     1      -2.572   7.569  53.459  1.00  0.00     0.705 A 
HETATM    2  N6  UNL     1      -2.245   6.273  53.600  1.00  0.00    -0.172 N 
ATOM      3  H6  UNL     1      -1.803   5.869  54.425  1.00  0.00     0.186 HD
HETATM    4  C7  UNL     1      -2.586   5.580  52.486  1.00  0.00     0.157 A 
HETATM    5  N10 UNL     1      -3.136   6.464  51.638  1.00  0.00    -0.261 N 
HETATM    6  N12 UNL     1      -3.124   7.666  52.237  1.00  0.00    -0.128 N 
ATOM      7  H12 UNL     1      -3.481   8.528  51.825  1.00  0.00     0.206 HD
ENDROOT
BRANCH   1   8
HETATM    8  N5  UNL     1      -2.377   8.635  54.415  1.00  0.00    -0.127 N 
HETATM    9  C2  UNL     1      -2.030   9.960  54.020  1.00  0.00     0.125 A 
HETATM   10  C1  UNL     1      -3.098  10.551  53.110  1.00  0.00     0.064 C 
HETATM   11  C3  UNL     1      -0.687   9.950  53.305  1.00  0.00     0.064 C 
HETATM   12  N1  UNL     1      -1.894  10.831  55.148  1.00  0.00    -0.337 N 
HETATM   13  C4  UNL     1      -2.046  10.531  56.376  1.00  0.00     0.192 A 
ATOM     14  H1  UNL     1      -1.647  11.799  54.945  1.00  0.00     0.164 HD
HETATM   15  N2  UNL     1      -1.884  11.479  57.422  1.00  0.00    -0.063 NA
HETATM   16  N3  UNL     1      -2.390   9.201  56.723  1.00  0.00    -0.304 N 
HETATM   17  C5  UNL     1      -2.539   8.334  55.789  1.00  0.00     0.214 A 
ATOM     18  H3  UNL     1      -2.518   8.937  57.699  1.00  0.00     0.171 HD
HETATM   19  N4  UNL     1      -2.884   7.009  56.157  1.00  0.00    -0.062 NA
ENDBRANCH   1   8
BRANCH   4  20
HETATM   20  C8  UNL     1      -2.373   4.148  52.313  1.00  0.00     0.119 A 
HETATM   21  C9  UNL     1      -1.399   3.684  51.420  1.00  0.00     0.138 A 
HETATM   22  N7  UNL     1      -0.637   4.660  50.705  1.00  0.00    -0.081 NA
HETATM   23  N8  UNL     1      -1.193   2.367  51.246  1.00  0.00    -0.321 N 
HETATM   24  C10 UNL     1      -1.934   1.492  51.941  1.00  0.00     0.179 A 
ATOM     25  H8  UNL     1      -0.481   2.037  50.594  1.00  0.00     0.169 HD
HETATM   26  S1  UNL     1      -1.662  -0.116  51.708  1.00  0.00    -0.040 SA
HETATM   27  N9  UNL     1      -2.869   1.932  52.798  1.00  0.00    -0.299 N 
HETATM   28  C11 UNL     1      -3.126   3.233  53.019  1.00  0.00     0.265 A 
ATOM     29  H9  UNL     1      -3.416   1.240  53.311  1.00  0.00     0.171 HD
HETATM   30  O1  UNL     1      -4.002   3.630  53.821  1.00  0.00    -0.267 OA
ENDBRANCH   4  20
BRANCH   5  31
HETATM   31  C12 UNL     1      -3.650   6.163  50.320  1.00  0.00     0.151 C 
BRANCH  31  32
HETATM   32  C13 UNL     1      -3.324   7.197  49.300  1.00  0.00     0.023 C 
BRANCH  32  33
HETATM   33  C14 UNL     1      -4.527   7.978  48.826  1.00  0.00     0.022 C 
BRANCH  33  34
HETATM   34  C15 UNL     1      -4.050   9.421  48.617  1.00  0.00     0.132 C 
BRANCH  34  35
HETATM   35  N11 UNL     1      -4.435   9.903  47.311  1.00  0.00    -0.320 N 
ATOM     36  H11 UNL     1      -4.406   9.361  46.448  1.00  0.00     0.172 HD
BRANCH  35  37
HETATM   37  S2  UNL     1      -4.953  11.540  47.444  1.00  0.00     0.222 S 
HETATM   38  C16 UNL     1      -5.466  12.209  45.900  1.00  0.00     0.185 C 
HETATM   39  O2  UNL     1      -6.092  11.614  48.420  1.00  0.00    -0.206 OA
HETATM   40  O3  UNL     1      -3.841  12.377  48.007  1.00  0.00    -0.206 OA
ENDBRANCH  35  37
ENDBRANCH  34  35
ENDBRANCH  33  34
ENDBRANCH  32  33
ENDBRANCH  31  32
ENDBRANCH   5  31
TORSDOF 8
ENDMDL
MODEL 5
REMARK VINA RESULT: -5.709265541      2.603      6.974
REMARK  8 active torsions:
REMARK  status: ('A' for Active; 'I' for Inactive)
REMARK    1  A    between atoms: N5_12  and  C6_13 
REMARK    2  A    between atoms: C7_16  and  C8_17 
REMARK    3  A    between atoms: N10_28  and  C12_29 
REMARK    4  A    between atoms: C12_29  and  C13_30 
REMARK    5  A    between atoms: C13_30  and  C14_31 
REMARK    6  A    between atoms: C14_31  and  C15_32 
REMARK    7  A    between atoms: C15_32  and  N11_33 
REMARK    8  A    between atoms: N11_33  and  S2_35 
ROOT
HETATM    1  C6  UNL     1      -2.060   7.800  55.144  1.00  0.00     0.705 A 
HETATM    2  N6  UNL     1      -2.497   8.920  54.542  1.00  0.00    -0.172 N 
ATOM      3  H6  UNL     1      -2.927   9.710  55.022  1.00  0.00     0.186 HD
HETATM    4  C7  UNL     1      -2.285   8.847  53.205  1.00  0.00     0.157 A 
HETATM    5  N10 UNL     1      -1.704   7.659  52.973  1.00  0.00    -0.261 N 
HETATM    6  N12 UNL     1      -1.572   7.032  54.154  1.00  0.00    -0.128 N 
ATOM      7  H12 UNL     1      -1.160   6.108  54.282  1.00  0.00     0.206 HD
ENDROOT
BRANCH   1   8
HETATM    8  N5  UNL     1      -2.101   7.485  56.553  1.00  0.00    -0.127 N 
HETATM    9  C2  UNL     1      -2.151   6.143  57.033  1.00  0.00     0.125 A 
HETATM   10  C1  UNL     1      -0.929   5.359  56.575  1.00  0.00     0.064 C 
HETATM   11  C3  UNL     1      -3.418   5.464  56.537  1.00  0.00     0.064 C 
HETATM   12  N1  UNL     1      -2.185   6.093  58.463  1.00  0.00    -0.337 N 
HETATM   13  C4  UNL     1      -2.177   7.079  59.269  1.00  0.00     0.192 A 
ATOM     14  H1  UNL     1      -2.219   5.165  58.883  1.00  0.00     0.164 HD
HETATM   15  N2  UNL     1      -2.215   6.915  60.680  1.00  0.00    -0.063 NA
HETATM   16  N3  UNL     1      -2.127   8.395  58.747  1.00  0.00    -0.304 N 
HETATM   17  C5  UNL     1      -2.093   8.558  57.476  1.00  0.00     0.214 A 
ATOM     18  H3  UNL     1      -2.120   9.200  59.373  1.00  0.00     0.171 HD
HETATM   19  N4  UNL     1      -2.044   9.883  56.973  1.00  0.00    -0.062 NA
ENDBRANCH   1   8
BRANCH   4  20
HETATM   20  C8  UNL     1      -2.638   9.900  52.260  1.00  0.00     0.119 A 
HETATM   21  C9  UNL     1      -2.186  11.210  52.464  1.00  0.00     0.138 A 
HETATM   22  N7  UNL     1      -1.374  11.459  53.615  1.00  0.00    -0.081 NA
HETATM   23  N8  UNL     1      -2.506  12.193  51.605  1.00  0.00    -0.321 N 
HETATM   24  C10 UNL     1      -3.270  11.907  50.540  1.00  0.00     0.179 A 
ATOM     25  H8  UNL     1      -2.172  13.144  51.760  1.00  0.00     0.169 HD
HETATM   26  S1  UNL     1      -3.649  13.130  49.504  1.00  0.00    -0.040 SA
HETATM   27  N9  UNL     1      -3.706  10.654  50.341  1.00  0.00    -0.299 N 
HETATM   28  C11 UNL     1      -3.423   9.625  51.160  1.00  0.00     0.265 A 
ATOM     29  H9  UNL     1      -4.286  10.470  49.521  1.00  0.00     0.171 HD
HETATM   30  O1  UNL     1      -3.837   8.460  50.962  1.00  0.00    -0.267 OA
ENDBRANCH   4  20
BRANCH   5  31
HETATM   31  C12 UNL     1      -1.296   7.156  51.680  1.00  0.00     0.151 C 
BRANCH  31  32
HETATM   32  C13 UNL     1      -1.476   5.686  51.525  1.00  0.00     0.023 C 
BRANCH  32  33
HETATM   33  C14 UNL     1      -2.773   5.305  50.850  1.00  0.00     0.022 C 
BRANCH  33  34
HETATM   34  C15 UNL     1      -3.755   4.944  51.973  1.00  0.00     0.132 C 
BRANCH  34  35
HETATM   35  N11 UNL     1      -4.151   3.559  51.881  1.00  0.00    -0.320 N 
ATOM     36  H11 UNL     1      -5.015   3.218  51.461  1.00  0.00     0.172 HD
BRANCH  35  37
HETATM   37  S2  UNL     1      -2.931   2.575  52.594  1.00  0.00     0.222 S 
HETATM   38  C16 UNL     1      -1.720   2.057  51.427  1.00  0.00     0.185 C 
HETATM   39  O2  UNL     1      -2.261   3.348  53.692  1.00  0.00    -0.206 OA
HETATM   40  O3  UNL     1      -3.561   1.370  53.229  1.00  0.00    -0.206 OA
ENDBRANCH  35  37
ENDBRANCH  34  35
ENDBRANCH  33  34
ENDBRANCH  32  33
ENDBRANCH  31  32
ENDBRANCH   5  31
TORSDOF 8
ENDMDL
