MODEL 1
REMARK VINA RESULT: -6.710852463      0.000      0.000
REMARK  5 active torsions:
REMARK  status: ('A' for Active; 'I' for Inactive)
REMARK       I    between atoms: C1_4  and  N3_6 
REMARK    1  A    between atoms: N4_9  and  N5_10 
REMARK    2  A    between atoms: N5_10  and  O1_12 
REMARK    3  A    between atoms: C4_14  and  C5_15 
REMARK    4  A    between atoms: C5_15  and  C6_16 
REMARK    5  A    between atoms: C6_16  and  N6_17 
ROOT
HETATM    1  N1  UNL     1      24.027  22.879  16.804  1.00  0.00    -0.374 N 
ATOM      2  H11 UNL     1      24.085  22.191  17.554  1.00  0.00     0.158 HD
ATOM      3  H12 UNL     1      24.272  23.857  16.955  1.00  0.00     0.158 HD
HETATM    4  C1  UNL     1      23.634  22.480  15.651  1.00  0.00     0.184 C 
HETATM    5  N2  UNL     1      23.554  23.438  14.607  1.00  0.00    -0.064 NA
HETATM    6  N3  UNL     1      23.294  21.118  15.442  1.00  0.00    -0.352 N 
HETATM    7  C2  UNL     1      21.904  20.766  15.404  1.00  0.00     0.147 C 
HETATM    8  C3  UNL     1      21.586  19.426  15.977  1.00  0.00     0.165 C 
HETATM    9  N4  UNL     1      22.698  18.519  15.872  1.00  0.00    -0.301 N 
HETATM   10  C4  UNL     1      24.002  18.992  16.246  1.00  0.00     0.123 C 
HETATM   11  C7  UNL     1      24.344  20.115  15.272  1.00  0.00     0.152 C 
ENDROOT
BRANCH  10  12
HETATM   12  C5  UNL     1      24.980  17.868  16.176  1.00  0.00     0.056 C 
BRANCH  12  13
HETATM   13  C6  UNL     1      25.862  17.756  17.385  1.00  0.00     0.231 C 
BRANCH  13  14
HETATM   14  N6  UNL     1      25.880  19.055  18.040  1.00  0.00    -0.079 N 
ATOM     15  H63 UNL     1      26.754  19.238  18.535  1.00  0.00     0.274 HD
ATOM     16  H62 UNL     1      25.935  19.832  17.380  1.00  0.00     0.274 HD
ATOM     17  H61 UNL     1      25.062  19.108  18.646  1.00  0.00     0.274 HD
ENDBRANCH  13  14
ENDBRANCH  12  13
ENDBRANCH  10  12
BRANCH   9  18
HETATM   18  N5  UNL     1      22.544  17.223  15.424  1.00  0.00    -0.212 N 
ATOM     19  H5  UNL     1      23.215  16.510  15.713  1.00  0.00     0.215 HD
BRANCH  18  20
HETATM   20  O1  UNL     1      21.616  16.909  14.685  1.00  0.00    -0.275 OA
ATOM     21  H1  UNL     1      21.034  17.563  14.318  1.00  0.00     0.246 HD
ENDBRANCH  18  20
ENDBRANCH   9  18
TORSDOF 5
ENDMDL
MODEL 2
REMARK VINA RESULT: -6.697912617      1.905      3.356
REMARK  5 active torsions:
REMARK  status: ('A' for Active; 'I' for Inactive)
REMARK       I    between atoms: C1_4  and  N3_6 
REMARK    1  A    between atoms: N4_9  and  N5_10 
REMARK    2  A    between atoms: N5_10  and  O1_12 
REMARK    3  A    between atoms: C4_14  and  C5_15 
REMARK    4  A    between atoms: C5_15  and  C6_16 
REMARK    5  A    between atoms: C6_16  and  N6_17 
ROOT
HETATM    1  N1  UNL     1      22.672  22.827  14.208  1.00  0.00    -0.374 N 
ATOM      2  H11 UNL     1      22.472  22.051  13.578  1.00  0.00     0.158 HD
ATOM      3  H12 UNL     1      22.443  23.790  13.962  1.00  0.00     0.158 HD
HETATM    4  C1  UNL     1      23.225  22.561  15.333  1.00  0.00     0.184 C 
HETATM    5  N2  UNL     1      23.503  23.642  16.211  1.00  0.00    -0.064 NA
HETATM    6  N3  UNL     1      23.543  21.221  15.676  1.00  0.00    -0.352 N 
HETATM    7  C2  UNL     1      24.908  20.798  15.553  1.00  0.00     0.147 C 
HETATM    8  C3  UNL     1      25.083  19.377  15.131  1.00  0.00     0.165 C 
HETATM    9  N4  UNL     1      23.968  18.558  15.527  1.00  0.00    -0.301 N 
HETATM   10  C4  UNL     1      22.641  19.053  15.290  1.00  0.00     0.123 C 
HETATM   11  C7  UNL     1      22.496  20.312  16.139  1.00  0.00     0.152 C 
ENDROOT
BRANCH  10  12
HETATM   12  C5  UNL     1      21.645  18.006  15.661  1.00  0.00     0.056 C 
BRANCH  12  13
HETATM   13  C6  UNL     1      20.227  18.498  15.681  1.00  0.00     0.231 C 
BRANCH  13  14
HETATM   14  N6  UNL     1      19.858  18.834  14.314  1.00  0.00    -0.079 N 
ATOM     15  H63 UNL     1      18.939  19.273  14.248  1.00  0.00     0.274 HD
ATOM     16  H62 UNL     1      20.403  19.608  13.934  1.00  0.00     0.274 HD
ATOM     17  H61 UNL     1      19.933  17.984  13.755  1.00  0.00     0.274 HD
ENDBRANCH  13  14
ENDBRANCH  12  13
ENDBRANCH  10  12
BRANCH   9  18
HETATM   18  N5  UNL     1      24.143  17.325  16.121  1.00  0.00    -0.212 N 
ATOM     19  H5  UNL     1      23.333  16.834  16.502  1.00  0.00     0.215 HD
BRANCH  18  20
HETATM   20  O1  UNL     1      25.252  16.807  16.202  1.00  0.00    -0.275 OA
ATOM     21  H1  UNL     1      25.390  16.011  16.702  1.00  0.00     0.246 HD
ENDBRANCH  18  20
ENDBRANCH   9  18
TORSDOF 5
ENDMDL
MODEL 3
REMARK VINA RESULT: -6.311160952      1.640      3.651
REMARK  5 active torsions:
REMARK  status: ('A' for Active; 'I' for Inactive)
REMARK       I    between atoms: C1_4  and  N3_6 
REMARK    1  A    between atoms: N4_9  and  N5_10 
REMARK    2  A    between atoms: N5_10  and  O1_12 
REMARK    3  A    between atoms: C4_14  and  C5_15 
REMARK    4  A    between atoms: C5_15  and  C6_16 
REMARK    5  A    between atoms: C6_16  and  N6_17 
ROOT
HETATM    1  N1  UNL     1      23.597  22.610  14.653  1.00  0.00    -0.374 N 
ATOM      2  H11 UNL     1      23.182  22.122  13.860  1.00  0.00     0.158 HD
ATOM      3  H12 UNL     1      23.900  23.582  14.585  1.00  0.00     0.158 HD
HETATM    4  C1  UNL     1      23.730  21.966  15.753  1.00  0.00     0.184 C 
HETATM    5  N2  UNL     1      24.308  22.646  16.857  1.00  0.00    -0.064 NA
HETATM    6  N3  UNL     1      23.308  20.614  15.847  1.00  0.00    -0.352 N 
HETATM    7  C2  UNL     1      24.308  19.588  15.788  1.00  0.00     0.147 C 
HETATM    8  C3  UNL     1      23.873  18.334  15.106  1.00  0.00     0.165 C 
HETATM    9  N4  UNL     1      22.451  18.135  15.204  1.00  0.00    -0.301 N 
HETATM   10  C4  UNL     1      21.587  19.249  14.932  1.00  0.00     0.123 C 
HETATM   11  C7  UNL     1      21.889  20.296  16.000  1.00  0.00     0.152 C 
ENDROOT
BRANCH  10  12
HETATM   12  C5  UNL     1      20.165  18.799  14.972  1.00  0.00     0.056 C 
BRANCH  12  13
HETATM   13  C6  UNL     1      19.236  19.648  14.154  1.00  0.00     0.231 C 
BRANCH  13  14
HETATM   14  N6  UNL     1      20.045  20.627  13.444  1.00  0.00    -0.079 N 
ATOM     15  H63 UNL     1      21.047  20.489  13.581  1.00  0.00     0.274 HD
ATOM     16  H62 UNL     1      20.028  20.497  12.432  1.00  0.00     0.274 HD
ATOM     17  H61 UNL     1      19.730  21.555  13.729  1.00  0.00     0.274 HD
ENDBRANCH  13  14
ENDBRANCH  12  13
ENDBRANCH  10  12
BRANCH   9  18
HETATM   18  N5  UNL     1      21.907  16.915  15.550  1.00  0.00    -0.212 N 
ATOM     19  H5  UNL     1      20.970  16.675  15.224  1.00  0.00     0.215 HD
BRANCH  18  20
HETATM   20  O1  UNL     1      22.527  16.113  16.241  1.00  0.00    -0.275 OA
ATOM     21  H1  UNL     1      22.155  15.269  16.470  1.00  0.00     0.246 HD
ENDBRANCH  18  20
ENDBRANCH   9  18
TORSDOF 5
ENDMDL
MODEL 4
REMARK VINA RESULT: -5.789547178      1.724      3.596
REMARK  5 active torsions:
REMARK  status: ('A' for Active; 'I' for Inactive)
REMARK       I    between atoms: C1_4  and  N3_6 
REMARK    1  A    between atoms: N4_9  and  N5_10 
REMARK    2  A    between atoms: N5_10  and  O1_12 
REMARK    3  A    between atoms: C4_14  and  C5_15 
REMARK    4  A    between atoms: C5_15  and  C6_16 
REMARK    5  A    between atoms: C6_16  and  N6_17 
ROOT
HETATM    1  N1  UNL     1      24.622  21.478  14.717  1.00  0.00    -0.374 N 
ATOM      2  H11 UNL     1      24.307  20.842  13.986  1.00  0.00     0.158 HD
ATOM      3  H12 UNL     1      25.063  22.371  14.497  1.00  0.00     0.158 HD
HETATM    4  C1  UNL     1      24.449  21.125  15.937  1.00  0.00     0.184 C 
HETATM    5  N2  UNL     1      24.887  22.011  16.956  1.00  0.00    -0.064 NA
HETATM    6  N3  UNL     1      23.836  19.882  16.243  1.00  0.00    -0.352 N 
HETATM    7  C2  UNL     1      24.678  18.793  16.645  1.00  0.00     0.147 C 
HETATM    8  C3  UNL     1      24.217  17.449  16.191  1.00  0.00     0.165 C 
HETATM    9  N4  UNL     1      22.790  17.403  16.012  1.00  0.00    -0.301 N 
HETATM   10  C4  UNL     1      22.155  18.480  15.307  1.00  0.00     0.123 C 
HETATM   11  C7  UNL     1      22.384  19.734  16.145  1.00  0.00     0.152 C 
ENDROOT
BRANCH  10  12
HETATM   12  C5  UNL     1      20.705  18.177  15.132  1.00  0.00     0.056 C 
BRANCH  12  13
HETATM   13  C6  UNL     1      19.875  19.374  14.772  1.00  0.00     0.231 C 
BRANCH  13  14
HETATM   14  N6  UNL     1      20.374  19.893  13.508  1.00  0.00    -0.079 N 
ATOM     15  H63 UNL     1      20.512  20.904  13.521  1.00  0.00     0.274 HD
ATOM     16  H62 UNL     1      21.342  19.628  13.324  1.00  0.00     0.274 HD
ATOM     17  H61 UNL     1      19.734  19.590  12.774  1.00  0.00     0.274 HD
ENDBRANCH  13  14
ENDBRANCH  12  13
ENDBRANCH  10  12
BRANCH   9  18
HETATM   18  N5  UNL     1      22.027  16.361  16.499  1.00  0.00    -0.212 N 
ATOM     19  H5  UNL     1      21.086  16.549  16.846  1.00  0.00     0.215 HD
BRANCH  18  20
HETATM   20  O1  UNL     1      22.456  15.211  16.523  1.00  0.00    -0.275 OA
ATOM     21  H1  UNL     1      22.347  14.659  17.288  1.00  0.00     0.246 HD
ENDBRANCH  18  20
ENDBRANCH   9  18
TORSDOF 5
ENDMDL
MODEL 5
REMARK VINA RESULT: -5.622888674      1.962      3.097
REMARK  5 active torsions:
REMARK  status: ('A' for Active; 'I' for Inactive)
REMARK       I    between atoms: C1_4  and  N3_6 
REMARK    1  A    between atoms: N4_9  and  N5_10 
REMARK    2  A    between atoms: N5_10  and  O1_12 
REMARK    3  A    between atoms: C4_14  and  C5_15 
REMARK    4  A    between atoms: C5_15  and  C6_16 
REMARK    5  A    between atoms: C6_16  and  N6_17 
ROOT
HETATM    1  N1  UNL     1      22.515  22.873  14.265  1.00  0.00    -0.374 N 
ATOM      2  H11 UNL     1      22.358  22.008  13.749  1.00  0.00     0.158 HD
ATOM      3  H12 UNL     1      22.126  23.762  13.950  1.00  0.00     0.158 HD
HETATM    4  C1  UNL     1      23.220  22.817  15.333  1.00  0.00     0.184 C 
HETATM    5  N2  UNL     1      23.437  24.021  16.052  1.00  0.00    -0.064 NA
HETATM    6  N3  UNL     1      23.760  21.579  15.771  1.00  0.00    -0.352 N 
HETATM    7  C2  UNL     1      25.149  21.323  15.522  1.00  0.00     0.147 C 
HETATM    8  C3  UNL     1      25.476  19.896  15.231  1.00  0.00     0.165 C 
HETATM    9  N4  UNL     1      24.538  18.994  15.846  1.00  0.00    -0.301 N 
HETATM   10  C4  UNL     1      23.137  19.283  15.727  1.00  0.00     0.123 C 
HETATM   11  C7  UNL     1      22.910  20.605  16.453  1.00  0.00     0.152 C 
ENDROOT
BRANCH  10  12
HETATM   12  C5  UNL     1      22.346  18.169  16.327  1.00  0.00     0.056 C 
BRANCH  12  13
HETATM   13  C6  UNL     1      21.583  17.357  15.321  1.00  0.00     0.231 C 
BRANCH  13  14
HETATM   14  N6  UNL     1      22.078  17.714  14.000  1.00  0.00    -0.079 N 
ATOM     15  H63 UNL     1      22.391  18.683  13.942  1.00  0.00     0.274 HD
ATOM     16  H62 UNL     1      22.969  17.271  13.777  1.00  0.00     0.274 HD
ATOM     17  H61 UNL     1      21.345  17.493  13.325  1.00  0.00     0.274 HD
ENDBRANCH  13  14
ENDBRANCH  12  13
ENDBRANCH  10  12
BRANCH   9  18
HETATM   18  N5  UNL     1      24.950  17.874  16.538  1.00  0.00    -0.212 N 
ATOM     19  H5  UNL     1      24.750  17.801  17.536  1.00  0.00     0.215 HD
BRANCH  18  20
HETATM   20  O1  UNL     1      25.553  16.963  15.979  1.00  0.00    -0.275 OA
ATOM     21  H1  UNL     1      25.187  16.088  15.926  1.00  0.00     0.246 HD
ENDBRANCH  18  20
ENDBRANCH   9  18
TORSDOF 5
ENDMDL
