MODEL 1
REMARK VINA RESULT: -9.156667531      0.000      0.000
REMARK  10 active torsions:
REMARK  status: ('A' for Active; 'I' for Inactive)
REMARK    1  A    between atoms: C1_2  and  C2_3 
REMARK       I    between atoms: C1_2  and  N2_15 
REMARK    2  A    between atoms: C2_3  and  N1_4 
REMARK       I    between atoms: N1_4  and  C3_6 
REMARK    3  A    between atoms: C3_6  and  O3_8 
REMARK    4  A    between atoms: O3_8  and  C4_9 
REMARK    5  A    between atoms: N2_15  and  C10_17 
REMARK    6  A    between atoms: C10_17  and  C11_18 
REMARK    7  A    between atoms: C10_17  and  C18_25 
REMARK    8  A    between atoms: C11_18  and  C12_19 
REMARK    9  A    between atoms: C18_25  and  O4_26 
REMARK   10  A    between atoms: C18_25  and  O5_28 
ROOT
HETATM    1  O1  UNL     1      -0.939   0.719   7.383  1.00  0.00    -0.272 OA
HETATM    2  C1  UNL     1      -1.899   1.289   6.750  1.00  0.00     0.235 C 
HETATM    3  N2  UNL     1      -3.071   0.590   6.575  1.00  0.00    -0.350 N 
ATOM      4  H2  UNL     1      -3.845   1.029   6.075  1.00  0.00     0.163 HD
ENDROOT
BRANCH   3   5
HETATM    5  C10 UNL     1      -3.231  -0.763   7.088  1.00  0.00     0.143 C 
BRANCH   5   6
HETATM    6  C11 UNL     1      -4.157  -1.569   6.232  1.00  0.00     0.068 C 
BRANCH   6   7
HETATM    7  C12 UNL     1      -3.535  -2.659   5.479  1.00  0.00    -0.056 A 
HETATM    8  C13 UNL     1      -4.213  -3.472   4.594  1.00  0.00     0.007 A 
HETATM    9  C14 UNL     1      -3.535  -4.472   3.938  1.00  0.00     0.001 A 
HETATM   10  C15 UNL     1      -2.190  -4.676   4.149  1.00  0.00     0.000 A 
HETATM   11  C16 UNL     1      -1.487  -3.865   5.037  1.00  0.00     0.001 A 
HETATM   12  C17 UNL     1      -2.166  -2.864   5.694  1.00  0.00     0.007 A 
ENDBRANCH   6   7
ENDBRANCH   5   6
BRANCH   5  13
HETATM   13  C18 UNL     1      -3.505  -0.803   8.553  1.00  0.00     0.276 C 
BRANCH  13  14
HETATM   14  O4  UNL     1      -2.411  -0.835   9.375  1.00  0.00    -0.369 OA
ATOM     15  H4  UNL     1      -2.376  -0.175  10.056  1.00  0.00     0.212 HD
ENDBRANCH  13  14
BRANCH  13  16
HETATM   16  O5  UNL     1      -4.338   0.292   8.845  1.00  0.00    -0.369 OA
ATOM     17  H5  UNL     1      -4.917   0.021   9.547  1.00  0.00     0.212 HD
ENDBRANCH  13  16
ENDBRANCH   5  13
ENDBRANCH   3   5
BRANCH   2  18
HETATM   18  C2  UNL     1      -1.631   2.641   6.279  1.00  0.00     0.227 C 
BRANCH  18  19
HETATM   19  N1  UNL     1      -1.788   2.782   4.869  1.00  0.00    -0.328 N 
HETATM   20  C3  UNL     1      -0.631   2.667   4.050  1.00  0.00     0.366 C 
HETATM   21  O2  UNL     1       0.514   2.448   4.537  1.00  0.00    -0.238 OA
ATOM     22  H1  UNL     1      -2.705   2.961   4.458  1.00  0.00     0.165 HD
BRANCH  20  23
HETATM   23  O3  UNL     1      -0.762   2.798   2.695  1.00  0.00    -0.262 OA
BRANCH  23  24
HETATM   24  C4  UNL     1      -1.024   3.984   2.051  1.00  0.00     0.081 A 
HETATM   25  C5  UNL     1       0.031   4.805   1.727  1.00  0.00     0.037 A 
HETATM   26  C6  UNL     1      -0.202   5.997   1.081  1.00  0.00     0.003 A 
HETATM   27  C7  UNL     1      -1.467   6.415   0.737  1.00  0.00     0.000 A 
HETATM   28  C8  UNL     1      -2.527   5.580   1.068  1.00  0.00     0.003 A 
HETATM   29  C9  UNL     1      -2.298   4.384   1.716  1.00  0.00     0.037 A 
ENDBRANCH  23  24
ENDBRANCH  20  23
ENDBRANCH  18  19
ENDBRANCH   2  18
TORSDOF 10
ENDMDL
MODEL 2
REMARK VINA RESULT: -8.529526079      1.191      2.100
REMARK  10 active torsions:
REMARK  status: ('A' for Active; 'I' for Inactive)
REMARK    1  A    between atoms: C1_2  and  C2_3 
REMARK       I    between atoms: C1_2  and  N2_15 
REMARK    2  A    between atoms: C2_3  and  N1_4 
REMARK       I    between atoms: N1_4  and  C3_6 
REMARK    3  A    between atoms: C3_6  and  O3_8 
REMARK    4  A    between atoms: O3_8  and  C4_9 
REMARK    5  A    between atoms: N2_15  and  C10_17 
REMARK    6  A    between atoms: C10_17  and  C11_18 
REMARK    7  A    between atoms: C10_17  and  C18_25 
REMARK    8  A    between atoms: C11_18  and  C12_19 
REMARK    9  A    between atoms: C18_25  and  O4_26 
REMARK   10  A    between atoms: C18_25  and  O5_28 
ROOT
HETATM    1  O1  UNL     1      -1.050   1.596   6.362  1.00  0.00    -0.272 OA
HETATM    2  C1  UNL     1      -1.678   1.113   5.353  1.00  0.00     0.235 C 
HETATM    3  N2  UNL     1      -2.630   0.145   5.579  1.00  0.00    -0.350 N 
ATOM      4  H2  UNL     1      -3.139  -0.250   4.788  1.00  0.00     0.163 HD
ENDROOT
BRANCH   3   5
HETATM    5  C10 UNL     1      -2.926  -0.328   6.924  1.00  0.00     0.143 C 
BRANCH   5   6
HETATM    6  C11 UNL     1      -3.716  -1.599   6.898  1.00  0.00     0.068 C 
BRANCH   6   7
HETATM    7  C12 UNL     1      -3.242  -2.619   5.961  1.00  0.00    -0.056 A 
HETATM    8  C13 UNL     1      -1.937  -3.062   5.896  1.00  0.00     0.007 A 
HETATM    9  C14 UNL     1      -1.593  -4.023   4.975  1.00  0.00     0.001 A 
HETATM   10  C15 UNL     1      -2.530  -4.552   4.117  1.00  0.00     0.000 A 
HETATM   11  C16 UNL     1      -3.853  -4.120   4.168  1.00  0.00     0.001 A 
HETATM   12  C17 UNL     1      -4.197  -3.157   5.088  1.00  0.00     0.007 A 
ENDBRANCH   6   7
ENDBRANCH   5   6
BRANCH   5  13
HETATM   13  C18 UNL     1      -3.453   0.743   7.817  1.00  0.00     0.276 C 
BRANCH  13  14
HETATM   14  O4  UNL     1      -4.155   1.749   7.209  1.00  0.00    -0.369 OA
ATOM     15  H4  UNL     1      -3.643   2.472   6.865  1.00  0.00     0.212 HD
ENDBRANCH  13  14
BRANCH  13  16
HETATM   16  O5  UNL     1      -4.217   0.108   8.812  1.00  0.00    -0.369 OA
ATOM     17  H5  UNL     1      -4.860   0.739   9.112  1.00  0.00     0.212 HD
ENDBRANCH  13  16
ENDBRANCH   5  13
ENDBRANCH   3   5
BRANCH   2  18
HETATM   18  C2  UNL     1      -1.302   1.655   4.055  1.00  0.00     0.227 C 
BRANCH  18  19
HETATM   19  N1  UNL     1      -1.801   2.972   3.833  1.00  0.00    -0.328 N 
HETATM   20  C3  UNL     1      -1.030   3.854   3.026  1.00  0.00     0.366 C 
HETATM   21  O2  UNL     1       0.069   3.503   2.513  1.00  0.00    -0.238 OA
ATOM     22  H1  UNL     1      -2.686   3.274   4.241  1.00  0.00     0.165 HD
BRANCH  20  23
HETATM   23  O3  UNL     1      -1.493   5.121   2.801  1.00  0.00    -0.262 OA
BRANCH  23  24
HETATM   24  C4  UNL     1      -1.800   5.626   1.560  1.00  0.00     0.081 A 
HETATM   25  C5  UNL     1      -3.093   5.515   1.104  1.00  0.00     0.037 A 
HETATM   26  C6  UNL     1      -3.429   6.013  -0.134  1.00  0.00     0.003 A 
HETATM   27  C7  UNL     1      -2.512   6.630  -0.954  1.00  0.00     0.000 A 
HETATM   28  C8  UNL     1      -1.209   6.739  -0.487  1.00  0.00     0.003 A 
HETATM   29  C9  UNL     1      -0.867   6.241   0.754  1.00  0.00     0.037 A 
ENDBRANCH  23  24
ENDBRANCH  20  23
ENDBRANCH  18  19
ENDBRANCH   2  18
TORSDOF 10
ENDMDL
MODEL 3
REMARK VINA RESULT: -8.394452320      1.386      2.190
REMARK  10 active torsions:
REMARK  status: ('A' for Active; 'I' for Inactive)
REMARK    1  A    between atoms: C1_2  and  C2_3 
REMARK       I    between atoms: C1_2  and  N2_15 
REMARK    2  A    between atoms: C2_3  and  N1_4 
REMARK       I    between atoms: N1_4  and  C3_6 
REMARK    3  A    between atoms: C3_6  and  O3_8 
REMARK    4  A    between atoms: O3_8  and  C4_9 
REMARK    5  A    between atoms: N2_15  and  C10_17 
REMARK    6  A    between atoms: C10_17  and  C11_18 
REMARK    7  A    between atoms: C10_17  and  C18_25 
REMARK    8  A    between atoms: C11_18  and  C12_19 
REMARK    9  A    between atoms: C18_25  and  O4_26 
REMARK   10  A    between atoms: C18_25  and  O5_28 
ROOT
HETATM    1  O1  UNL     1      -0.976   1.391   5.813  1.00  0.00    -0.272 OA
HETATM    2  C1  UNL     1      -1.979   1.173   5.043  1.00  0.00     0.235 C 
HETATM    3  N2  UNL     1      -2.994   0.367   5.506  1.00  0.00    -0.350 N 
ATOM      4  H2  UNL     1      -3.800   0.184   4.907  1.00  0.00     0.163 HD
ENDROOT
BRANCH   3   5
HETATM    5  C10 UNL     1      -2.943  -0.230   6.833  1.00  0.00     0.143 C 
BRANCH   5   6
HETATM    6  C11 UNL     1      -3.671  -1.537   6.876  1.00  0.00     0.068 C 
BRANCH   6   7
HETATM    7  C12 UNL     1      -3.179  -2.564   5.956  1.00  0.00    -0.056 A 
HETATM    8  C13 UNL     1      -1.862  -2.965   5.880  1.00  0.00     0.007 A 
HETATM    9  C14 UNL     1      -1.501  -3.938   4.977  1.00  0.00     0.001 A 
HETATM   10  C15 UNL     1      -2.434  -4.519   4.149  1.00  0.00     0.000 A 
HETATM   11  C16 UNL     1      -3.770  -4.130   4.212  1.00  0.00     0.001 A 
HETATM   12  C17 UNL     1      -4.130  -3.155   5.115  1.00  0.00     0.007 A 
ENDBRANCH   6   7
ENDBRANCH   5   6
BRANCH   5  13
HETATM   13  C18 UNL     1      -3.280   0.734   7.920  1.00  0.00     0.276 C 
BRANCH  13  14
HETATM   14  O4  UNL     1      -4.202   0.314   8.840  1.00  0.00    -0.369 OA
ATOM     15  H4  UNL     1      -4.913   0.914   9.029  1.00  0.00     0.212 HD
ENDBRANCH  13  14
BRANCH  13  16
HETATM   16  O5  UNL     1      -2.068   1.101   8.533  1.00  0.00    -0.369 OA
ATOM     17  H5  UNL     1      -1.995   2.045   8.457  1.00  0.00     0.212 HD
ENDBRANCH  13  16
ENDBRANCH   5  13
ENDBRANCH   3   5
BRANCH   2  18
HETATM   18  C2  UNL     1      -1.926   1.816   3.738  1.00  0.00     0.227 C 
BRANCH  18  19
HETATM   19  N1  UNL     1      -0.914   2.816   3.648  1.00  0.00    -0.328 N 
HETATM   20  C3  UNL     1      -1.079   3.853   2.689  1.00  0.00     0.366 C 
HETATM   21  O2  UNL     1      -2.085   3.906   1.927  1.00  0.00    -0.238 OA
ATOM     22  H1  UNL     1      -0.094   2.789   4.255  1.00  0.00     0.165 HD
BRANCH  20  23
HETATM   23  O3  UNL     1      -0.120   4.823   2.589  1.00  0.00    -0.262 OA
BRANCH  23  24
HETATM   24  C4  UNL     1      -0.311   6.046   1.991  1.00  0.00     0.081 A 
HETATM   25  C5  UNL     1      -0.532   7.143   2.791  1.00  0.00     0.037 A 
HETATM   26  C6  UNL     1      -0.725   8.380   2.219  1.00  0.00     0.003 A 
HETATM   27  C7  UNL     1      -0.708   8.574   0.857  1.00  0.00     0.000 A 
HETATM   28  C8  UNL     1      -0.485   7.461   0.056  1.00  0.00     0.003 A 
HETATM   29  C9  UNL     1      -0.291   6.219   0.625  1.00  0.00     0.037 A 
ENDBRANCH  23  24
ENDBRANCH  20  23
ENDBRANCH  18  19
ENDBRANCH   2  18
TORSDOF 10
ENDMDL
MODEL 4
REMARK VINA RESULT: -8.329655540      1.118      7.812
REMARK  10 active torsions:
REMARK  status: ('A' for Active; 'I' for Inactive)
REMARK    1  A    between atoms: C1_2  and  C2_3 
REMARK       I    between atoms: C1_2  and  N2_15 
REMARK    2  A    between atoms: C2_3  and  N1_4 
REMARK       I    between atoms: N1_4  and  C3_6 
REMARK    3  A    between atoms: C3_6  and  O3_8 
REMARK    4  A    between atoms: O3_8  and  C4_9 
REMARK    5  A    between atoms: N2_15  and  C10_17 
REMARK    6  A    between atoms: C10_17  and  C11_18 
REMARK    7  A    between atoms: C10_17  and  C18_25 
REMARK    8  A    between atoms: C11_18  and  C12_19 
REMARK    9  A    between atoms: C18_25  and  O4_26 
REMARK   10  A    between atoms: C18_25  and  O5_28 
ROOT
HETATM    1  O1  UNL     1      -1.083   2.538   6.833  1.00  0.00    -0.272 OA
HETATM    2  C1  UNL     1      -2.152   1.992   6.379  1.00  0.00     0.235 C 
HETATM    3  N2  UNL     1      -2.330   1.940   5.015  1.00  0.00    -0.350 N 
ATOM      4  H2  UNL     1      -3.174   1.509   4.637  1.00  0.00     0.163 HD
ENDROOT
BRANCH   3   5
HETATM    5  C10 UNL     1      -1.339   2.488   4.100  1.00  0.00     0.143 C 
BRANCH   5   6
HETATM    6  C11 UNL     1      -1.937   2.798   2.763  1.00  0.00     0.068 C 
BRANCH   6   7
HETATM    7  C12 UNL     1      -1.508   4.058   2.155  1.00  0.00    -0.056 A 
HETATM    8  C13 UNL     1      -0.209   4.521   2.175  1.00  0.00     0.007 A 
HETATM    9  C14 UNL     1       0.091   5.722   1.576  1.00  0.00     0.001 A 
HETATM   10  C15 UNL     1      -0.884   6.470   0.957  1.00  0.00     0.000 A 
HETATM   11  C16 UNL     1      -2.202   6.019   0.925  1.00  0.00     0.001 A 
HETATM   12  C17 UNL     1      -2.502   4.818   1.525  1.00  0.00     0.007 A 
ENDBRANCH   6   7
ENDBRANCH   5   6
BRANCH   5  13
HETATM   13  C18 UNL     1      -0.071   1.703   4.074  1.00  0.00     0.276 C 
BRANCH  13  14
HETATM   14  O4  UNL     1       0.226   1.067   2.899  1.00  0.00    -0.369 OA
ATOM     15  H4  UNL     1       1.144   0.887   2.738  1.00  0.00     0.212 HD
ENDBRANCH  13  14
BRANCH  13  16
HETATM   16  O5  UNL     1       0.960   2.577   4.465  1.00  0.00    -0.369 OA
ATOM     17  H5  UNL     1       1.739   2.048   4.588  1.00  0.00     0.212 HD
ENDBRANCH  13  16
ENDBRANCH   5  13
ENDBRANCH   3   5
BRANCH   2  18
HETATM   18  C2  UNL     1      -3.076   1.480   7.381  1.00  0.00     0.227 C 
BRANCH  18  19
HETATM   19  N1  UNL     1      -3.735   0.283   6.975  1.00  0.00    -0.328 N 
HETATM   20  C3  UNL     1      -3.134  -0.961   7.310  1.00  0.00     0.366 C 
HETATM   21  O2  UNL     1      -2.046  -1.028   7.948  1.00  0.00    -0.238 OA
ATOM     22  H1  UNL     1      -4.614   0.318   6.458  1.00  0.00     0.165 HD
BRANCH  20  23
HETATM   23  O3  UNL     1      -3.753  -2.120   6.930  1.00  0.00    -0.262 OA
BRANCH  23  24
HETATM   24  C4  UNL     1      -3.308  -2.944   5.923  1.00  0.00     0.081 A 
HETATM   25  C5  UNL     1      -1.971  -3.258   5.871  1.00  0.00     0.037 A 
HETATM   26  C6  UNL     1      -1.499  -4.082   4.875  1.00  0.00     0.003 A 
HETATM   27  C7  UNL     1      -2.321  -4.616   3.908  1.00  0.00     0.000 A 
HETATM   28  C8  UNL     1      -3.670  -4.294   3.969  1.00  0.00     0.003 A 
HETATM   29  C9  UNL     1      -4.148  -3.468   4.966  1.00  0.00     0.037 A 
ENDBRANCH  23  24
ENDBRANCH  20  23
ENDBRANCH  18  19
ENDBRANCH   2  18
TORSDOF 10
ENDMDL
MODEL 5
REMARK VINA RESULT: -8.326597022      1.418      1.994
REMARK  10 active torsions:
REMARK  status: ('A' for Active; 'I' for Inactive)
REMARK    1  A    between atoms: C1_2  and  C2_3 
REMARK       I    between atoms: C1_2  and  N2_15 
REMARK    2  A    between atoms: C2_3  and  N1_4 
REMARK       I    between atoms: N1_4  and  C3_6 
REMARK    3  A    between atoms: C3_6  and  O3_8 
REMARK    4  A    between atoms: O3_8  and  C4_9 
REMARK    5  A    between atoms: N2_15  and  C10_17 
REMARK    6  A    between atoms: C10_17  and  C11_18 
REMARK    7  A    between atoms: C10_17  and  C18_25 
REMARK    8  A    between atoms: C11_18  and  C12_19 
REMARK    9  A    between atoms: C18_25  and  O4_26 
REMARK   10  A    between atoms: C18_25  and  O5_28 
ROOT
HETATM    1  O1  UNL     1      -0.893   2.280   5.811  1.00  0.00    -0.272 OA
HETATM    2  C1  UNL     1      -1.584   1.534   5.028  1.00  0.00     0.235 C 
HETATM    3  N2  UNL     1      -2.325   0.515   5.581  1.00  0.00    -0.350 N 
ATOM      4  H2  UNL     1      -2.881  -0.087   4.973  1.00  0.00     0.163 HD
ENDROOT
BRANCH   3   5
HETATM    5  C10 UNL     1      -2.334   0.279   7.018  1.00  0.00     0.143 C 
BRANCH   5   6
HETATM    6  C11 UNL     1      -2.186  -1.176   7.336  1.00  0.00     0.068 C 
BRANCH   6   7
HETATM    7  C12 UNL     1      -2.743  -2.100   6.346  1.00  0.00    -0.056 A 
HETATM    8  C13 UNL     1      -4.068  -2.112   5.963  1.00  0.00     0.007 A 
HETATM    9  C14 UNL     1      -4.493  -3.024   5.026  1.00  0.00     0.001 A 
HETATM   10  C15 UNL     1      -3.618  -3.925   4.463  1.00  0.00     0.000 A 
HETATM   11  C16 UNL     1      -2.276  -3.927   4.835  1.00  0.00     0.001 A 
HETATM   12  C17 UNL     1      -1.851  -3.015   5.774  1.00  0.00     0.007 A 
ENDBRANCH   6   7
ENDBRANCH   5   6
BRANCH   5  13
HETATM   13  C18 UNL     1      -3.445   0.984   7.719  1.00  0.00     0.276 C 
BRANCH  13  14
HETATM   14  O4  UNL     1      -4.156   0.246   8.626  1.00  0.00    -0.369 OA
ATOM     15  H4  UNL     1      -3.707   0.022   9.432  1.00  0.00     0.212 HD
ENDBRANCH  13  14
BRANCH  13  16
HETATM   16  O5  UNL     1      -2.893   2.135   8.309  1.00  0.00    -0.369 OA
ATOM     17  H5  UNL     1      -3.598   2.578   8.765  1.00  0.00     0.212 HD
ENDBRANCH  13  16
ENDBRANCH   5  13
ENDBRANCH   3   5
BRANCH   2  18
HETATM   18  C2  UNL     1      -1.500   1.857   3.610  1.00  0.00     0.227 C 
BRANCH  18  19
HETATM   19  N1  UNL     1      -1.924   3.186   3.314  1.00  0.00    -0.328 N 
HETATM   20  C3  UNL     1      -0.976   4.081   2.746  1.00  0.00     0.366 C 
HETATM   21  O2  UNL     1       0.214   3.732   2.505  1.00  0.00    -0.238 OA
ATOM     22  H1  UNL     1      -2.881   3.486   3.503  1.00  0.00     0.165 HD
BRANCH  20  23
HETATM   23  O3  UNL     1      -1.364   5.360   2.453  1.00  0.00    -0.262 OA
BRANCH  23  24
HETATM   24  C4  UNL     1      -1.847   5.764   1.231  1.00  0.00     0.081 A 
HETATM   25  C5  UNL     1      -0.985   6.379   0.353  1.00  0.00     0.037 A 
HETATM   26  C6  UNL     1      -1.441   6.793  -0.878  1.00  0.00     0.003 A 
HETATM   27  C7  UNL     1      -2.746   6.617  -1.278  1.00  0.00     0.000 A 
HETATM   28  C8  UNL     1      -3.610   5.995  -0.385  1.00  0.00     0.003 A 
HETATM   29  C9  UNL     1      -3.157   5.579   0.849  1.00  0.00     0.037 A 
ENDBRANCH  23  24
ENDBRANCH  20  23
ENDBRANCH  18  19
ENDBRANCH   2  18
TORSDOF 10
ENDMDL
