MODEL 1
REMARK VINA RESULT: -8.158443588      0.000      0.000
REMARK  14 active torsions:
REMARK  status: ('A' for Active; 'I' for Inactive)
REMARK    1  A    between atoms: C6_9  and  C7_10 
REMARK    2  A    between atoms: C7_10  and  C8_11 
REMARK    3  A    between atoms: C8_11  and  C9_12 
REMARK    4  A    between atoms: C9_12  and  C10_13 
REMARK    5  A    between atoms: C10_13  and  N2_14 
REMARK    6  A    between atoms: N2_14  and  C11_16 
REMARK    7  A    between atoms: C11_16  and  C12_17 
REMARK    8  A    between atoms: C12_17  and  C13_18 
REMARK    9  A    between atoms: C13_18  and  C14_19 
REMARK   10  A    between atoms: C14_19  and  C15_20 
REMARK   11  A    between atoms: C15_20  and  N3_21 
REMARK   12  A    between atoms: N3_21  and  C16_23 
REMARK   13  A    between atoms: C16_23  and  C17_24 
REMARK   14  A    between atoms: C17_24  and  C18_25 
ROOT
HETATM    1  C14 UNL     1       7.823  23.273  19.665  1.00  0.00     0.023 C 
ENDROOT
BRANCH   1   2
HETATM    2  C13 UNL     1       8.205  21.860  19.375  1.00  0.00     0.030 C 
BRANCH   2   3
HETATM    3  C12 UNL     1       7.118  20.946  19.051  1.00  0.00    -0.010 C 
BRANCH   3   4
HETATM    4  C11 UNL     1       6.697  19.829  19.906  1.00  0.00     0.079 C 
BRANCH   4   5
HETATM    5  N2  UNL     1       6.944  19.909  21.285  1.00  0.00    -0.399 N 
ATOM      6  H2  UNL     1       7.734  19.460  21.750  1.00  0.00     0.158 HD
BRANCH   5   7
HETATM    7  C10 UNL     1       5.929  20.715  21.981  1.00  0.00     0.119 C 
BRANCH   7   8
HETATM    8  C9  UNL     1       6.533  21.604  23.040  1.00  0.00     0.020 C 
BRANCH   8   9
HETATM    9  C8  UNL     1       6.108  23.023  22.941  1.00  0.00     0.002 C 
BRANCH   9  10
HETATM   10  C7  UNL     1       6.340  23.737  24.241  1.00  0.00     0.010 C 
BRANCH  10  11
HETATM   11  C6  UNL     1       7.315  23.004  25.092  1.00  0.00     0.031 C 
HETATM   12  C1  UNL     1       8.657  23.682  25.126  1.00  0.00    -0.016 C 
HETATM   13  N1  UNL     1       9.504  23.428  24.200  1.00  0.00    -0.405 N 
HETATM   14  C2  UNL     1       8.964  24.616  26.219  1.00  0.00     0.052 C 
ATOM     15  H12 UNL     1      10.414  23.888  24.223  1.00  0.00     0.155 HD
ATOM     16  H11 UNL     1       9.290  22.780  23.442  1.00  0.00     0.155 HD
HETATM   17  C3  UNL     1       7.758  25.199  26.884  1.00  0.00     0.006 C 
HETATM   18  C4  UNL     1       6.662  24.219  27.157  1.00  0.00     0.001 C 
HETATM   19  C5  UNL     1       6.891  22.858  26.527  1.00  0.00     0.010 C 
ENDBRANCH  10  11
ENDBRANCH   9  10
ENDBRANCH   8   9
ENDBRANCH   7   8
ENDBRANCH   5   7
ENDBRANCH   4   5
ENDBRANCH   3   4
ENDBRANCH   2   3
ENDBRANCH   1   2
BRANCH   1  20
HETATM   20  C15 UNL     1       8.904  23.910  20.527  1.00  0.00     0.119 C 
BRANCH  20  21
HETATM   21  N3  UNL     1       9.478  25.015  19.828  1.00  0.00    -0.402 N 
ATOM     22  H3  UNL     1      10.412  25.351  20.064  1.00  0.00     0.158 HD
BRANCH  21  23
HETATM   23  C16 UNL     1       8.743  25.624  18.823  1.00  0.00     0.060 C 
BRANCH  23  24
HETATM   24  C17 UNL     1       8.293  27.015  19.038  1.00  0.00     0.086 C 
BRANCH  24  25
HETATM   25  C18 UNL     1       7.061  27.081  19.845  1.00  0.00    -0.010 A 
HETATM   26  C19 UNL     1       5.776  27.105  19.392  1.00  0.00    -0.042 A 
HETATM   27  C20 UNL     1       4.733  27.266  20.292  1.00  0.00    -0.049 A 
HETATM   28  C28 UNL     1       5.467  26.883  17.941  1.00  0.00     0.040 C 
HETATM   29  C21 UNL     1       5.008  27.403  21.654  1.00  0.00     0.047 A 
HETATM   30  C25 UNL     1       3.310  27.307  19.919  1.00  0.00     0.039 C 
HETATM   31  C22 UNL     1       6.301  27.376  22.118  1.00  0.00     0.106 A 
HETATM   32  C23 UNL     1       7.323  27.219  21.237  1.00  0.00     0.112 A 
HETATM   33  O2  UNL     1       6.866  27.485  23.406  1.00  0.00    -0.323 OA
HETATM   34  O1  UNL     1       8.509  27.229  21.977  1.00  0.00    -0.322 OA
HETATM   35  C24 UNL     1       8.131  26.862  23.312  1.00  0.00     0.352 C 
HETATM   36  C26 UNL     1       3.138  27.311  18.428  1.00  0.00     0.005 C 
HETATM   37  C27 UNL     1       4.075  26.258  17.848  1.00  0.00     0.005 C 
ENDBRANCH  24  25
ENDBRANCH  23  24
ENDBRANCH  21  23
ENDBRANCH  20  21
ENDBRANCH   1  20
TORSDOF 14
ENDMDL
MODEL 2
REMARK VINA RESULT: -8.096972111      2.108      5.722
REMARK  14 active torsions:
REMARK  status: ('A' for Active; 'I' for Inactive)
REMARK    1  A    between atoms: C6_9  and  C7_10 
REMARK    2  A    between atoms: C7_10  and  C8_11 
REMARK    3  A    between atoms: C8_11  and  C9_12 
REMARK    4  A    between atoms: C9_12  and  C10_13 
REMARK    5  A    between atoms: C10_13  and  N2_14 
REMARK    6  A    between atoms: N2_14  and  C11_16 
REMARK    7  A    between atoms: C11_16  and  C12_17 
REMARK    8  A    between atoms: C12_17  and  C13_18 
REMARK    9  A    between atoms: C13_18  and  C14_19 
REMARK   10  A    between atoms: C14_19  and  C15_20 
REMARK   11  A    between atoms: C15_20  and  N3_21 
REMARK   12  A    between atoms: N3_21  and  C16_23 
REMARK   13  A    between atoms: C16_23  and  C17_24 
REMARK   14  A    between atoms: C17_24  and  C18_25 
ROOT
HETATM    1  C14 UNL     1       8.277  25.675  24.747  1.00  0.00     0.023 C 
ENDROOT
BRANCH   1   2
HETATM    2  C13 UNL     1       8.421  25.571  26.230  1.00  0.00     0.030 C 
BRANCH   2   3
HETATM    3  C12 UNL     1       7.374  24.844  26.934  1.00  0.00    -0.010 C 
BRANCH   3   4
HETATM    4  C11 UNL     1       7.574  23.555  27.608  1.00  0.00     0.079 C 
BRANCH   4   5
HETATM    5  N2  UNL     1       6.945  22.417  27.081  1.00  0.00    -0.399 N 
ATOM      6  H2  UNL     1       6.252  21.863  27.585  1.00  0.00     0.158 HD
BRANCH   5   7
HETATM    7  C10 UNL     1       7.403  22.117  25.715  1.00  0.00     0.119 C 
BRANCH   7   8
HETATM    8  C9  UNL     1       6.255  21.971  24.747  1.00  0.00     0.020 C 
BRANCH   8   9
HETATM    9  C8  UNL     1       6.494  22.628  23.437  1.00  0.00     0.002 C 
BRANCH   9  10
HETATM   10  C7  UNL     1       5.959  21.783  22.316  1.00  0.00     0.010 C 
BRANCH  10  11
HETATM   11  C6  UNL     1       6.544  20.417  22.344  1.00  0.00     0.031 C 
HETATM   12  C1  UNL     1       5.745  19.444  21.522  1.00  0.00    -0.016 C 
HETATM   13  N1  UNL     1       4.740  18.859  22.057  1.00  0.00    -0.405 N 
HETATM   14  C2  UNL     1       6.139  19.184  20.129  1.00  0.00     0.052 C 
ATOM     15  H12 UNL     1       4.197  18.199  21.500  1.00  0.00     0.155 HD
ATOM     16  H11 UNL     1       4.467  19.039  23.023  1.00  0.00     0.155 HD
HETATM   17  C3  UNL     1       6.948  20.278  19.508  1.00  0.00     0.006 C 
HETATM   18  C4  UNL     1       8.017  20.839  20.390  1.00  0.00     0.001 C 
HETATM   19  C5  UNL     1       7.952  20.340  21.821  1.00  0.00     0.010 C 
ENDBRANCH  10  11
ENDBRANCH   9  10
ENDBRANCH   8   9
ENDBRANCH   7   8
ENDBRANCH   5   7
ENDBRANCH   4   5
ENDBRANCH   3   4
ENDBRANCH   2   3
ENDBRANCH   1   2
BRANCH   1  20
HETATM   20  C15 UNL     1       6.830  26.009  24.414  1.00  0.00     0.119 C 
BRANCH  20  21
HETATM   21  N3  UNL     1       6.791  27.149  23.557  1.00  0.00    -0.402 N 
ATOM     22  H3  UNL     1       7.510  27.872  23.620  1.00  0.00     0.158 HD
BRANCH  21  23
HETATM   23  C16 UNL     1       5.760  27.258  22.636  1.00  0.00     0.060 C 
BRANCH  23  24
HETATM   24  C17 UNL     1       5.374  26.048  21.882  1.00  0.00     0.086 C 
BRANCH  24  25
HETATM   25  C18 UNL     1       5.958  26.028  20.528  1.00  0.00    -0.010 A 
HETATM   26  C19 UNL     1       7.223  25.664  20.178  1.00  0.00    -0.042 A 
HETATM   27  C20 UNL     1       7.637  25.799  18.861  1.00  0.00    -0.049 A 
HETATM   28  C28 UNL     1       8.152  25.048  21.181  1.00  0.00     0.040 C 
HETATM   29  C21 UNL     1       6.755  26.305  17.906  1.00  0.00     0.047 A 
HETATM   30  C25 UNL     1       8.977  25.439  18.368  1.00  0.00     0.039 C 
HETATM   31  C22 UNL     1       5.476  26.672  18.251  1.00  0.00     0.106 A 
HETATM   32  C23 UNL     1       5.070  26.542  19.541  1.00  0.00     0.112 A 
HETATM   33  O2  UNL     1       4.393  27.199  17.518  1.00  0.00    -0.323 OA
HETATM   34  O1  UNL     1       3.746  26.983  19.601  1.00  0.00    -0.322 OA
HETATM   35  C24 UNL     1       3.240  26.864  18.263  1.00  0.00     0.352 C 
HETATM   36  C26 UNL     1       9.888  25.057  19.499  1.00  0.00     0.005 C 
HETATM   37  C27 UNL     1       9.114  24.130  20.428  1.00  0.00     0.005 C 
ENDBRANCH  24  25
ENDBRANCH  23  24
ENDBRANCH  21  23
ENDBRANCH  20  21
ENDBRANCH   1  20
TORSDOF 14
ENDMDL
MODEL 3
REMARK VINA RESULT: -8.071881265      1.382      2.118
REMARK  14 active torsions:
REMARK  status: ('A' for Active; 'I' for Inactive)
REMARK    1  A    between atoms: C6_9  and  C7_10 
REMARK    2  A    between atoms: C7_10  and  C8_11 
REMARK    3  A    between atoms: C8_11  and  C9_12 
REMARK    4  A    between atoms: C9_12  and  C10_13 
REMARK    5  A    between atoms: C10_13  and  N2_14 
REMARK    6  A    between atoms: N2_14  and  C11_16 
REMARK    7  A    between atoms: C11_16  and  C12_17 
REMARK    8  A    between atoms: C12_17  and  C13_18 
REMARK    9  A    between atoms: C13_18  and  C14_19 
REMARK   10  A    between atoms: C14_19  and  C15_20 
REMARK   11  A    between atoms: C15_20  and  N3_21 
REMARK   12  A    between atoms: N3_21  and  C16_23 
REMARK   13  A    between atoms: C16_23  and  C17_24 
REMARK   14  A    between atoms: C17_24  and  C18_25 
ROOT
HETATM    1  C14 UNL     1       7.912  23.352  19.474  1.00  0.00     0.023 C 
ENDROOT
BRANCH   1   2
HETATM    2  C13 UNL     1       8.245  21.907  19.296  1.00  0.00     0.030 C 
BRANCH   2   3
HETATM    3  C12 UNL     1       7.119  20.995  19.149  1.00  0.00    -0.010 C 
BRANCH   3   4
HETATM    4  C11 UNL     1       7.059  19.656  19.748  1.00  0.00     0.079 C 
BRANCH   4   5
HETATM    5  N2  UNL     1       8.251  18.927  19.884  1.00  0.00    -0.399 N 
ATOM      6  H2  UNL     1       8.987  18.902  19.179  1.00  0.00     0.158 HD
BRANCH   5   7
HETATM    7  C10 UNL     1       8.312  18.205  21.165  1.00  0.00     0.119 C 
BRANCH   7   8
HETATM    8  C9  UNL     1       7.888  19.066  22.328  1.00  0.00     0.020 C 
BRANCH   8   9
HETATM    9  C8  UNL     1       8.899  20.082  22.717  1.00  0.00     0.002 C 
BRANCH   9  10
HETATM   10  C7  UNL     1       8.248  21.417  22.943  1.00  0.00     0.010 C 
BRANCH  10  11
HETATM   11  C6  UNL     1       6.803  21.265  23.260  1.00  0.00     0.031 C 
HETATM   12  C1  UNL     1       6.518  21.495  24.718  1.00  0.00    -0.016 C 
HETATM   13  N1  UNL     1       6.644  20.519  25.537  1.00  0.00    -0.405 N 
HETATM   14  C2  UNL     1       6.099  22.831  25.168  1.00  0.00     0.052 C 
ATOM     15  H12 UNL     1       6.451  20.675  26.526  1.00  0.00     0.155 HD
ATOM     16  H11 UNL     1       6.935  19.592  25.224  1.00  0.00     0.155 HD
HETATM   17  C3  UNL     1       6.499  23.940  24.248  1.00  0.00     0.006 C 
HETATM   18  C4  UNL     1       6.292  23.650  22.795  1.00  0.00     0.001 C 
HETATM   19  C5  UNL     1       5.906  22.211  22.509  1.00  0.00     0.010 C 
ENDBRANCH  10  11
ENDBRANCH   9  10
ENDBRANCH   8   9
ENDBRANCH   7   8
ENDBRANCH   5   7
ENDBRANCH   4   5
ENDBRANCH   3   4
ENDBRANCH   2   3
ENDBRANCH   1   2
BRANCH   1  20
HETATM   20  C15 UNL     1       8.967  23.995  20.364  1.00  0.00     0.119 C 
BRANCH  20  21
HETATM   21  N3  UNL     1       9.516  25.134  19.702  1.00  0.00    -0.402 N 
ATOM     22  H3  UNL     1      10.441  25.485  19.952  1.00  0.00     0.158 HD
BRANCH  21  23
HETATM   23  C16 UNL     1       8.770  25.756  18.713  1.00  0.00     0.060 C 
BRANCH  23  24
HETATM   24  C17 UNL     1       8.299  27.134  18.962  1.00  0.00     0.086 C 
BRANCH  24  25
HETATM   25  C18 UNL     1       7.087  27.164  19.801  1.00  0.00    -0.010 A 
HETATM   26  C19 UNL     1       5.791  27.154  19.382  1.00  0.00    -0.042 A 
HETATM   27  C20 UNL     1       4.768  27.284  20.309  1.00  0.00    -0.049 A 
HETATM   28  C28 UNL     1       5.450  26.928  17.939  1.00  0.00     0.040 C 
HETATM   29  C21 UNL     1       5.074  27.424  21.664  1.00  0.00     0.047 A 
HETATM   30  C25 UNL     1       3.335  27.287  19.973  1.00  0.00     0.039 C 
HETATM   31  C22 UNL     1       6.380  27.431  22.094  1.00  0.00     0.106 A 
HETATM   32  C23 UNL     1       7.382  27.305  21.186  1.00  0.00     0.112 A 
HETATM   33  O2  UNL     1       6.975  27.552  23.367  1.00  0.00    -0.323 OA
HETATM   34  O1  UNL     1       8.586  27.346  21.895  1.00  0.00    -0.322 OA
HETATM   35  C24 UNL     1       8.253  26.965  23.238  1.00  0.00     0.352 C 
HETATM   36  C26 UNL     1       3.124  27.290  18.487  1.00  0.00     0.005 C 
HETATM   37  C27 UNL     1       4.074  26.266  17.880  1.00  0.00     0.005 C 
ENDBRANCH  24  25
ENDBRANCH  23  24
ENDBRANCH  21  23
ENDBRANCH  20  21
ENDBRANCH   1  20
TORSDOF 14
ENDMDL
MODEL 4
REMARK VINA RESULT: -8.043724348      3.000      7.616
REMARK  14 active torsions:
REMARK  status: ('A' for Active; 'I' for Inactive)
REMARK    1  A    between atoms: C6_9  and  C7_10 
REMARK    2  A    between atoms: C7_10  and  C8_11 
REMARK    3  A    between atoms: C8_11  and  C9_12 
REMARK    4  A    between atoms: C9_12  and  C10_13 
REMARK    5  A    between atoms: C10_13  and  N2_14 
REMARK    6  A    between atoms: N2_14  and  C11_16 
REMARK    7  A    between atoms: C11_16  and  C12_17 
REMARK    8  A    between atoms: C12_17  and  C13_18 
REMARK    9  A    between atoms: C13_18  and  C14_19 
REMARK   10  A    between atoms: C14_19  and  C15_20 
REMARK   11  A    between atoms: C15_20  and  N3_21 
REMARK   12  A    between atoms: N3_21  and  C16_23 
REMARK   13  A    between atoms: C16_23  and  C17_24 
REMARK   14  A    between atoms: C17_24  and  C18_25 
ROOT
HETATM    1  C14 UNL     1       5.955  23.902  23.636  1.00  0.00     0.023 C 
ENDROOT
BRANCH   1   2
HETATM    2  C13 UNL     1       5.972  25.175  22.857  1.00  0.00     0.030 C 
BRANCH   2   3
HETATM    3  C12 UNL     1       6.685  26.294  23.457  1.00  0.00    -0.010 C 
BRANCH   3   4
HETATM    4  C11 UNL     1       6.775  27.632  22.858  1.00  0.00     0.079 C 
BRANCH   4   5
HETATM    5  N2  UNL     1       8.016  28.286  22.860  1.00  0.00    -0.399 N 
ATOM      6  H2  UNL     1       8.499  28.591  23.706  1.00  0.00     0.158 HD
BRANCH   5   7
HETATM    7  C10 UNL     1       8.539  28.480  21.498  1.00  0.00     0.119 C 
BRANCH   7   8
HETATM    8  C9  UNL     1       8.199  27.328  20.586  1.00  0.00     0.020 C 
BRANCH   8   9
HETATM    9  C8  UNL     1       8.166  27.697  19.148  1.00  0.00     0.002 C 
BRANCH   9  10
HETATM   10  C7  UNL     1       6.865  27.279  18.524  1.00  0.00     0.010 C 
BRANCH  10  11
HETATM   11  C6  UNL     1       5.784  28.253  18.829  1.00  0.00     0.031 C 
HETATM   12  C1  UNL     1       4.851  28.443  17.665  1.00  0.00    -0.016 C 
HETATM   13  N1  UNL     1       5.155  29.295  16.759  1.00  0.00    -0.405 N 
HETATM   14  C2  UNL     1       3.614  27.651  17.597  1.00  0.00     0.052 C 
ATOM     15  H12 UNL     1       4.522  29.424  15.969  1.00  0.00     0.155 HD
ATOM     16  H11 UNL     1       6.013  29.844  16.806  1.00  0.00     0.155 HD
HETATM   17  C3  UNL     1       3.655  26.383  18.389  1.00  0.00     0.006 C 
HETATM   18  C4  UNL     1       4.266  26.517  19.747  1.00  0.00     0.001 C 
HETATM   19  C5  UNL     1       4.916  27.865  19.994  1.00  0.00     0.010 C 
ENDBRANCH  10  11
ENDBRANCH   9  10
ENDBRANCH   8   9
ENDBRANCH   7   8
ENDBRANCH   5   7
ENDBRANCH   4   5
ENDBRANCH   3   4
ENDBRANCH   2   3
ENDBRANCH   1   2
BRANCH   1  20
HETATM   20  C15 UNL     1       6.892  24.041  24.829  1.00  0.00     0.119 C 
BRANCH  20  21
HETATM   21  N3  UNL     1       7.663  22.848  24.967  1.00  0.00    -0.402 N 
ATOM     22  H3  UNL     1       8.398  22.783  25.673  1.00  0.00     0.158 HD
BRANCH  21  23
HETATM   23  C16 UNL     1       7.396  21.778  24.126  1.00  0.00     0.060 C 
BRANCH  23  24
HETATM   24  C17 UNL     1       8.516  21.219  23.340  1.00  0.00     0.086 C 
BRANCH  24  25
HETATM   25  C18 UNL     1       8.150  21.004  21.928  1.00  0.00    -0.010 A 
HETATM   26  C19 UNL     1       8.047  21.945  20.949  1.00  0.00    -0.042 A 
HETATM   27  C20 UNL     1       7.595  21.579  19.690  1.00  0.00    -0.049 A 
HETATM   28  C28 UNL     1       8.488  23.358  21.189  1.00  0.00     0.040 C 
HETATM   29  C21 UNL     1       7.250  20.250  19.437  1.00  0.00     0.047 A 
HETATM   30  C25 UNL     1       7.444  22.506  18.556  1.00  0.00     0.039 C 
HETATM   31  C22 UNL     1       7.354  19.295  20.420  1.00  0.00     0.106 A 
HETATM   32  C23 UNL     1       7.795  19.653  21.653  1.00  0.00     0.112 A 
HETATM   33  O2  UNL     1       7.085  17.911  20.452  1.00  0.00    -0.323 OA
HETATM   34  O1  UNL     1       7.800  18.498  22.439  1.00  0.00    -0.322 OA
HETATM   35  C24 UNL     1       7.868  17.404  21.513  1.00  0.00     0.352 C 
HETATM   36  C26 UNL     1       7.690  23.926  18.979  1.00  0.00     0.005 C 
HETATM   37  C27 UNL     1       8.939  23.943  19.851  1.00  0.00     0.005 C 
ENDBRANCH  24  25
ENDBRANCH  23  24
ENDBRANCH  21  23
ENDBRANCH  20  21
ENDBRANCH   1  20
TORSDOF 14
ENDMDL
MODEL 5
REMARK VINA RESULT: -7.994101345      1.912      6.947
REMARK  14 active torsions:
REMARK  status: ('A' for Active; 'I' for Inactive)
REMARK    1  A    between atoms: C6_9  and  C7_10 
REMARK    2  A    between atoms: C7_10  and  C8_11 
REMARK    3  A    between atoms: C8_11  and  C9_12 
REMARK    4  A    between atoms: C9_12  and  C10_13 
REMARK    5  A    between atoms: C10_13  and  N2_14 
REMARK    6  A    between atoms: N2_14  and  C11_16 
REMARK    7  A    between atoms: C11_16  and  C12_17 
REMARK    8  A    between atoms: C12_17  and  C13_18 
REMARK    9  A    between atoms: C13_18  and  C14_19 
REMARK   10  A    between atoms: C14_19  and  C15_20 
REMARK   11  A    between atoms: C15_20  and  N3_21 
REMARK   12  A    between atoms: N3_21  and  C16_23 
REMARK   13  A    between atoms: C16_23  and  C17_24 
REMARK   14  A    between atoms: C17_24  and  C18_25 
ROOT
HETATM    1  C14 UNL     1       6.865  20.219  21.437  1.00  0.00     0.023 C 
ENDROOT
BRANCH   1   2
HETATM    2  C13 UNL     1       6.715  20.155  19.953  1.00  0.00     0.030 C 
BRANCH   2   3
HETATM    3  C12 UNL     1       7.760  20.796  19.167  1.00  0.00    -0.010 C 
BRANCH   3   4
HETATM    4  C11 UNL     1       7.690  22.177  18.673  1.00  0.00     0.079 C 
BRANCH   4   5
HETATM    5  N2  UNL     1       8.100  23.215  19.524  1.00  0.00    -0.399 N 
ATOM      6  H2  UNL     1       8.687  23.079  20.347  1.00  0.00     0.158 HD
BRANCH   5   7
HETATM    7  C10 UNL     1       7.583  24.522  19.087  1.00  0.00     0.119 C 
BRANCH   7   8
HETATM    8  C9  UNL     1       8.669  25.564  18.995  1.00  0.00     0.020 C 
BRANCH   8   9
HETATM    9  C8  UNL     1       8.158  26.958  18.989  1.00  0.00     0.002 C 
BRANCH   9  10
HETATM   10  C7  UNL     1       6.923  27.065  18.141  1.00  0.00     0.010 C 
BRANCH  10  11
HETATM   11  C6  UNL     1       6.026  28.145  18.630  1.00  0.00     0.031 C 
HETATM   12  C1  UNL     1       4.881  28.398  17.688  1.00  0.00    -0.016 C 
HETATM   13  N1  UNL     1       5.054  29.196  16.702  1.00  0.00    -0.405 N 
HETATM   14  C2  UNL     1       3.594  27.727  17.923  1.00  0.00     0.052 C 
ATOM     15  H12 UNL     1       4.278  29.367  16.063  1.00  0.00     0.155 HD
ATOM     16  H11 UNL     1       5.947  29.661  16.539  1.00  0.00     0.155 HD
HETATM   17  C3  UNL     1       3.694  26.479  18.741  1.00  0.00     0.006 C 
HETATM   18  C4  UNL     1       4.597  26.584  19.929  1.00  0.00     0.001 C 
HETATM   19  C5  UNL     1       5.403  27.868  19.971  1.00  0.00     0.010 C 
ENDBRANCH  10  11
ENDBRANCH   9  10
ENDBRANCH   8   9
ENDBRANCH   7   8
ENDBRANCH   5   7
ENDBRANCH   4   5
ENDBRANCH   3   4
ENDBRANCH   2   3
ENDBRANCH   1   2
BRANCH   1  20
HETATM   20  C15 UNL     1       8.272  19.773  21.811  1.00  0.00     0.119 C 
BRANCH  20  21
HETATM   21  N3  UNL     1       8.828  20.694  22.750  1.00  0.00    -0.402 N 
ATOM     22  H3  UNL     1       9.552  20.395  23.404  1.00  0.00     0.158 HD
BRANCH  21  23
HETATM   23  C16 UNL     1       8.366  22.001  22.757  1.00  0.00     0.060 C 
BRANCH  23  24
HETATM   24  C17 UNL     1       9.314  23.069  23.136  1.00  0.00     0.086 C 
BRANCH  24  25
HETATM   25  C18 UNL     1       8.803  23.899  24.242  1.00  0.00    -0.010 A 
HETATM   26  C19 UNL     1       8.877  23.634  25.577  1.00  0.00    -0.042 A 
HETATM   27  C20 UNL     1       8.254  24.481  26.481  1.00  0.00    -0.049 A 
HETATM   28  C28 UNL     1       9.686  22.480  26.089  1.00  0.00     0.040 C 
HETATM   29  C21 UNL     1       7.558  25.599  26.016  1.00  0.00     0.047 A 
HETATM   30  C25 UNL     1       8.267  24.296  27.941  1.00  0.00     0.039 C 
HETATM   31  C22 UNL     1       7.482  25.873  24.672  1.00  0.00     0.106 A 
HETATM   32  C23 UNL     1       8.091  25.043  23.786  1.00  0.00     0.112 A 
HETATM   33  O2  UNL     1       6.866  26.904  23.931  1.00  0.00    -0.323 OA
HETATM   34  O1  UNL     1       7.853  25.559  22.509  1.00  0.00    -0.322 OA
HETATM   35  C24 UNL     1       7.566  26.951  22.705  1.00  0.00     0.352 C 
HETATM   36  C26 UNL     1       8.903  22.990  28.318  1.00  0.00     0.005 C 
HETATM   37  C27 UNL     1      10.174  22.835  27.493  1.00  0.00     0.005 C 
ENDBRANCH  24  25
ENDBRANCH  23  24
ENDBRANCH  21  23
ENDBRANCH  20  21
ENDBRANCH   1  20
TORSDOF 14
ENDMDL
