MODEL 1
REMARK VINA RESULT: -10.475960888      0.000      0.000
REMARK  13 active torsions:
REMARK  status: ('A' for Active; 'I' for Inactive)
REMARK    1  A    between atoms: C4_4  and  N1_5 
REMARK    2  A    between atoms: N1_5  and  C5_7 
REMARK    3  A    between atoms: C8_10  and  C9_11 
REMARK       I    between atoms: C9_11  and  N2_13 
REMARK    4  A    between atoms: N2_13  and  C10_15 
REMARK    5  A    between atoms: C10_15  and  C11_16 
REMARK    6  A    between atoms: C11_16  and  N3_17 
REMARK    7  A    between atoms: C16_24  and  N5_25 
REMARK    8  A    between atoms: N5_25  and  C17_27 
REMARK    9  A    between atoms: C17_27  and  C18_28 
REMARK   10  A    between atoms: C18_28  and  C19_29 
REMARK   11  A    between atoms: C22_32  and  C23_33 
REMARK   12  A    between atoms: C23_33  and  N6_35 
REMARK   13  A    between atoms: C23_33  and  C25_39 
ROOT
HETATM    1  N5  UNL     1      81.651  30.361  39.370  1.00  0.00    -0.226 N 
ATOM      2  H5  UNL     1      80.642  30.475  39.467  1.00  0.00     0.177 HD
ENDROOT
BRANCH   1   3
HETATM    3  C16 UNL     1      82.414  31.272  39.869  1.00  0.00     0.679 A 
HETATM    4  N4  UNL     1      83.383  30.972  40.764  1.00  0.00    -0.177 N 
HETATM    5  C4  UNL     1      84.189  31.895  41.298  1.00  0.00     0.123 A 
ATOM      6  H4  UNL     1      83.504  29.999  41.043  1.00  0.00     0.186 HD
HETATM    7  C3  UNL     1      84.044  33.212  40.938  1.00  0.00     0.074 A 
HETATM    8  C2  UNL     1      83.063  33.555  40.026  1.00  0.00     0.026 A 
HETATM    9  C1  UNL     1      82.836  34.953  39.577  1.00  0.00     0.069 C 
HETATM   10  N12 UNL     1      82.295  32.566  39.535  1.00  0.00    -0.196 N 
ATOM     11  H12 UNL     1      81.571  32.818  38.861  1.00  0.00     0.184 HD
BRANCH   5  12
HETATM   12  N1  UNL     1      85.095  31.545  42.147  1.00  0.00    -0.342 N 
ATOM     13  H1  UNL     1      85.017  30.639  42.608  1.00  0.00     0.167 HD
BRANCH  12  14
HETATM   14  C5  UNL     1      86.194  32.380  42.457  1.00  0.00     0.033 A 
HETATM   15  C6  UNL     1      87.193  32.643  41.564  1.00  0.00     0.030 A 
HETATM   16  C7  UNL     1      88.265  33.461  41.877  1.00  0.00     0.019 A 
HETATM   17  C8  UNL     1      88.365  34.047  43.113  1.00  0.00     0.032 A 
HETATM   18  C14 UNL     1      87.351  33.786  44.030  1.00  0.00     0.019 A 
HETATM   19  C15 UNL     1      86.285  32.963  43.697  1.00  0.00     0.030 A 
BRANCH  17  20
HETATM   20  C9  UNL     1      89.474  34.906  43.476  1.00  0.00     0.251 C 
HETATM   21  O1  UNL     1      90.406  34.358  44.154  1.00  0.00    -0.268 OA
HETATM   22  N2  UNL     1      89.568  36.274  43.123  1.00  0.00    -0.352 N 
ATOM     23  H2  UNL     1      88.810  36.689  42.582  1.00  0.00     0.163 HD
BRANCH  22  24
HETATM   24  C10 UNL     1      90.678  37.102  43.491  1.00  0.00     0.167 C 
BRANCH  24  25
HETATM   25  C11 UNL     1      90.402  37.884  44.720  1.00  0.00     0.076 C 
BRANCH  25  26
HETATM   26  N3  UNL     1      90.840  37.320  45.929  1.00  0.00    -0.400 N 
HETATM   27  C12 UNL     1      89.937  37.213  47.005  1.00  0.00     0.148 C 
HETATM   28  C13 UNL     1      92.144  36.831  46.061  1.00  0.00     0.148 C 
ENDBRANCH  25  26
ENDBRANCH  24  25
ENDBRANCH  22  24
ENDBRANCH  17  20
ENDBRANCH  12  14
ENDBRANCH   5  12
ENDBRANCH   1   3
BRANCH   1  29
HETATM   29  C17 UNL     1      82.140  29.188  38.680  1.00  0.00     0.144 C 
BRANCH  29  30
HETATM   30  C18 UNL     1      81.051  28.152  38.674  1.00  0.00     0.077 C 
BRANCH  30  31
HETATM   31  C19 UNL     1      80.901  27.484  37.361  1.00  0.00     0.010 A 
HETATM   32  C20 UNL     1      79.657  27.160  36.834  1.00  0.00     0.025 A 
HETATM   33  C21 UNL     1      79.504  26.536  35.613  1.00  0.00     0.013 A 
HETATM   34  C22 UNL     1      80.627  26.221  34.884  1.00  0.00     0.000 A 
HETATM   35  C27 UNL     1      81.854  26.552  35.424  1.00  0.00     0.098 A 
HETATM   36  N11 UNL     1      81.977  27.161  36.620  1.00  0.00    -0.368 N 
ATOM     37  H11 UNL     1      82.909  27.382  36.971  1.00  0.00     0.165 HD
BRANCH  34  38
HETATM   38  C23 UNL     1      80.526  25.549  33.560  1.00  0.00     0.207 C 
HETATM   39  C24 UNL     1      79.201  25.920  32.969  1.00  0.00     0.060 C 
BRANCH  38  40
HETATM   40  N6  UNL     1      81.563  26.051  32.676  1.00  0.00    -0.059 N 
ATOM     41  H63 UNL     1      82.490  25.992  33.099  1.00  0.00     0.276 HD
ATOM     42  H62 UNL     1      81.724  25.431  31.882  1.00  0.00     0.276 HD
ATOM     43  H61 UNL     1      81.334  27.001  32.383  1.00  0.00     0.276 HD
ENDBRANCH  38  40
BRANCH  38  44
HETATM   44  C25 UNL     1      80.675  24.095  33.645  1.00  0.00     0.153 A 
HETATM   45  N7  UNL     1      81.496  23.461  34.500  1.00  0.00    -0.272 N 
HETATM   46  N8  UNL     1      81.406  22.167  34.329  1.00  0.00    -0.131 N 
ATOM     47  H7  UNL     1      82.100  23.921  35.181  1.00  0.00     0.189 HD
HETATM   48  C26 UNL     1      80.527  21.928  33.363  1.00  0.00     0.692 A 
ATOM     49  H8  UNL     1      81.924  21.460  34.851  1.00  0.00     0.205 HD
HETATM   50  N9  UNL     1      80.169  20.770  32.910  1.00  0.00    -0.233 N 
HETATM   51  N10 UNL     1      80.072  23.107  32.936  1.00  0.00    -0.175 N 
ATOM     52  H92 UNL     1      80.517  19.868  33.237  1.00  0.00     0.174 HD
ATOM     53  H91 UNL     1      79.495  20.586  32.169  1.00  0.00     0.174 HD
ATOM     54  H10 UNL     1      79.383  23.243  32.196  1.00  0.00     0.185 HD
ENDBRANCH  38  44
ENDBRANCH  34  38
ENDBRANCH  30  31
ENDBRANCH  29  30
ENDBRANCH   1  29
TORSDOF 13
ENDMDL
MODEL 2
REMARK VINA RESULT: -10.347577356      1.404      1.915
REMARK  13 active torsions:
REMARK  status: ('A' for Active; 'I' for Inactive)
REMARK    1  A    between atoms: C4_4  and  N1_5 
REMARK    2  A    between atoms: N1_5  and  C5_7 
REMARK    3  A    between atoms: C8_10  and  C9_11 
REMARK       I    between atoms: C9_11  and  N2_13 
REMARK    4  A    between atoms: N2_13  and  C10_15 
REMARK    5  A    between atoms: C10_15  and  C11_16 
REMARK    6  A    between atoms: C11_16  and  N3_17 
REMARK    7  A    between atoms: C16_24  and  N5_25 
REMARK    8  A    between atoms: N5_25  and  C17_27 
REMARK    9  A    between atoms: C17_27  and  C18_28 
REMARK   10  A    between atoms: C18_28  and  C19_29 
REMARK   11  A    between atoms: C22_32  and  C23_33 
REMARK   12  A    between atoms: C23_33  and  N6_35 
REMARK   13  A    between atoms: C23_33  and  C25_39 
ROOT
HETATM    1  N5  UNL     1      82.069  30.143  39.840  1.00  0.00    -0.226 N 
ATOM      2  H5  UNL     1      82.347  29.450  40.534  1.00  0.00     0.177 HD
ENDROOT
BRANCH   1   3
HETATM    3  C16 UNL     1      82.306  31.384  40.096  1.00  0.00     0.679 A 
HETATM    4  N4  UNL     1      83.567  31.849  40.248  1.00  0.00    -0.177 N 
HETATM    5  C4  UNL     1      83.843  33.130  40.513  1.00  0.00     0.123 A 
ATOM      6  H4  UNL     1      84.342  31.193  40.156  1.00  0.00     0.186 HD
HETATM    7  C3  UNL     1      82.815  34.032  40.643  1.00  0.00     0.074 A 
HETATM    8  C2  UNL     1      81.513  33.591  40.494  1.00  0.00     0.026 A 
HETATM    9  C1  UNL     1      80.340  34.496  40.613  1.00  0.00     0.069 C 
HETATM   10  N12 UNL     1      81.322  32.287  40.227  1.00  0.00    -0.196 N 
ATOM     11  H12 UNL     1      80.361  31.962  40.116  1.00  0.00     0.184 HD
BRANCH   5  12
HETATM   12  N1  UNL     1      85.067  33.510  40.647  1.00  0.00    -0.342 N 
ATOM     13  H1  UNL     1      85.588  33.803  39.819  1.00  0.00     0.167 HD
BRANCH  12  14
HETATM   14  C5  UNL     1      85.711  33.536  41.906  1.00  0.00     0.033 A 
HETATM   15  C6  UNL     1      85.042  33.333  43.079  1.00  0.00     0.030 A 
HETATM   16  C7  UNL     1      85.681  33.360  44.306  1.00  0.00     0.019 A 
HETATM   17  C8  UNL     1      87.030  33.594  44.392  1.00  0.00     0.032 A 
HETATM   18  C14 UNL     1      87.721  33.802  43.202  1.00  0.00     0.019 A 
HETATM   19  C15 UNL     1      87.062  33.771  41.981  1.00  0.00     0.030 A 
BRANCH  17  20
HETATM   20  C9  UNL     1      87.730  33.633  45.660  1.00  0.00     0.251 C 
HETATM   21  O1  UNL     1      87.153  33.046  46.635  1.00  0.00    -0.268 OA
HETATM   22  N2  UNL     1      88.980  34.268  45.858  1.00  0.00    -0.352 N 
ATOM     23  H2  UNL     1      89.420  34.732  45.063  1.00  0.00     0.163 HD
BRANCH  22  24
HETATM   24  C10 UNL     1      89.655  34.290  47.121  1.00  0.00     0.167 C 
BRANCH  24  25
HETATM   25  C11 UNL     1      91.055  34.760  46.992  1.00  0.00     0.076 C 
BRANCH  25  26
HETATM   26  N3  UNL     1      91.231  36.115  46.665  1.00  0.00    -0.400 N 
HETATM   27  C12 UNL     1      92.336  36.495  45.878  1.00  0.00     0.148 C 
HETATM   28  C13 UNL     1      90.304  37.077  47.078  1.00  0.00     0.148 C 
ENDBRANCH  25  26
ENDBRANCH  24  25
ENDBRANCH  22  24
ENDBRANCH  17  20
ENDBRANCH  12  14
ENDBRANCH   5  12
ENDBRANCH   1   3
BRANCH   1  29
HETATM   29  C17 UNL     1      81.432  29.676  38.628  1.00  0.00     0.144 C 
BRANCH  29  30
HETATM   30  C18 UNL     1      81.205  28.196  38.751  1.00  0.00     0.077 C 
BRANCH  30  31
HETATM   31  C19 UNL     1      81.017  27.533  37.441  1.00  0.00     0.010 A 
HETATM   32  C20 UNL     1      79.758  27.227  36.941  1.00  0.00     0.025 A 
HETATM   33  C21 UNL     1      79.569  26.608  35.723  1.00  0.00     0.013 A 
HETATM   34  C22 UNL     1      80.671  26.279  34.968  1.00  0.00     0.000 A 
HETATM   35  C27 UNL     1      81.914  26.593  35.481  1.00  0.00     0.098 A 
HETATM   36  N11 UNL     1      82.072  27.197  36.675  1.00  0.00    -0.368 N 
ATOM     37  H11 UNL     1      83.014  27.405  37.006  1.00  0.00     0.165 HD
BRANCH  34  38
HETATM   38  C23 UNL     1      80.531  25.612  33.645  1.00  0.00     0.207 C 
HETATM   39  C24 UNL     1      79.195  25.994  33.088  1.00  0.00     0.060 C 
BRANCH  38  40
HETATM   40  N6  UNL     1      81.549  26.108  32.737  1.00  0.00    -0.059 N 
ATOM     41  H63 UNL     1      81.539  27.126  32.667  1.00  0.00     0.276 HD
ATOM     42  H62 UNL     1      82.489  25.997  33.116  1.00  0.00     0.276 HD
ATOM     43  H61 UNL     1      81.446  25.659  31.827  1.00  0.00     0.276 HD
ENDBRANCH  38  40
BRANCH  38  44
HETATM   44  C25 UNL     1      80.671  24.157  33.722  1.00  0.00     0.153 A 
HETATM   45  N7  UNL     1      81.472  23.512  34.588  1.00  0.00    -0.272 N 
HETATM   46  N8  UNL     1      81.378  22.220  34.407  1.00  0.00    -0.131 N 
ATOM     47  H7  UNL     1      82.065  23.964  35.284  1.00  0.00     0.189 HD
HETATM   48  C26 UNL     1      80.517  21.992  33.423  1.00  0.00     0.692 A 
ATOM     49  H8  UNL     1      81.883  21.507  34.934  1.00  0.00     0.205 HD
HETATM   50  N9  UNL     1      80.162  20.840  32.955  1.00  0.00    -0.233 N 
HETATM   51  N10 UNL     1      80.077  23.177  32.995  1.00  0.00    -0.175 N 
ATOM     52  H92 UNL     1      80.499  19.934  33.282  1.00  0.00     0.174 HD
ATOM     53  H91 UNL     1      79.501  20.665  32.199  1.00  0.00     0.174 HD
ATOM     54  H10 UNL     1      79.402  23.322  32.244  1.00  0.00     0.185 HD
ENDBRANCH  38  44
ENDBRANCH  34  38
ENDBRANCH  30  31
ENDBRANCH  29  30
ENDBRANCH   1  29
TORSDOF 13
ENDMDL
MODEL 3
REMARK VINA RESULT: -10.189157693      2.047      2.860
REMARK  13 active torsions:
REMARK  status: ('A' for Active; 'I' for Inactive)
REMARK    1  A    between atoms: C4_4  and  N1_5 
REMARK    2  A    between atoms: N1_5  and  C5_7 
REMARK    3  A    between atoms: C8_10  and  C9_11 
REMARK       I    between atoms: C9_11  and  N2_13 
REMARK    4  A    between atoms: N2_13  and  C10_15 
REMARK    5  A    between atoms: C10_15  and  C11_16 
REMARK    6  A    between atoms: C11_16  and  N3_17 
REMARK    7  A    between atoms: C16_24  and  N5_25 
REMARK    8  A    between atoms: N5_25  and  C17_27 
REMARK    9  A    between atoms: C17_27  and  C18_28 
REMARK   10  A    between atoms: C18_28  and  C19_29 
REMARK   11  A    between atoms: C22_32  and  C23_33 
REMARK   12  A    between atoms: C23_33  and  N6_35 
REMARK   13  A    between atoms: C23_33  and  C25_39 
ROOT
HETATM    1  N5  UNL     1      81.397  31.889  39.660  1.00  0.00    -0.226 N 
ATOM      2  H5  UNL     1      80.422  31.590  39.650  1.00  0.00     0.177 HD
ENDROOT
BRANCH   1   3
HETATM    3  C16 UNL     1      81.676  33.028  40.194  1.00  0.00     0.679 A 
HETATM    4  N4  UNL     1      82.283  33.117  41.399  1.00  0.00    -0.177 N 
HETATM    5  C4  UNL     1      82.584  34.284  41.978  1.00  0.00     0.123 A 
ATOM      6  H4  UNL     1      82.522  32.255  41.889  1.00  0.00     0.186 HD
HETATM    7  C3  UNL     1      82.271  35.458  41.338  1.00  0.00     0.074 A 
HETATM    8  C2  UNL     1      81.649  35.405  40.104  1.00  0.00     0.026 A 
HETATM    9  C1  UNL     1      81.276  36.623  39.339  1.00  0.00     0.069 C 
HETATM   10  N12 UNL     1      81.381  34.191  39.592  1.00  0.00    -0.196 N 
ATOM     11  H12 UNL     1      80.923  34.151  38.681  1.00  0.00     0.184 HD
BRANCH   5  12
HETATM   12  N1  UNL     1      83.165  34.301  43.129  1.00  0.00    -0.342 N 
ATOM     13  H1  UNL     1      82.605  34.486  43.962  1.00  0.00     0.167 HD
BRANCH  12  14
HETATM   14  C5  UNL     1      84.553  34.073  43.272  1.00  0.00     0.033 A 
HETATM   15  C6  UNL     1      85.447  34.323  42.270  1.00  0.00     0.030 A 
HETATM   16  C7  UNL     1      86.804  34.096  42.419  1.00  0.00     0.019 A 
HETATM   17  C8  UNL     1      87.310  33.605  43.596  1.00  0.00     0.032 A 
HETATM   18  C14 UNL     1      86.407  33.347  44.623  1.00  0.00     0.019 A 
HETATM   19  C15 UNL     1      85.050  33.581  44.453  1.00  0.00     0.030 A 
BRANCH  17  20
HETATM   20  C9  UNL     1      88.724  33.352  43.785  1.00  0.00     0.251 C 
HETATM   21  O1  UNL     1      89.077  32.125  43.784  1.00  0.00    -0.268 OA
HETATM   22  N2  UNL     1      89.696  34.366  43.963  1.00  0.00    -0.352 N 
ATOM     23  H2  UNL     1      89.388  35.339  43.962  1.00  0.00     0.163 HD
BRANCH  22  24
HETATM   24  C10 UNL     1      91.090  34.091  44.145  1.00  0.00     0.167 C 
BRANCH  24  25
HETATM   25  C11 UNL     1      91.868  35.326  44.405  1.00  0.00     0.076 C 
BRANCH  25  26
HETATM   26  N3  UNL     1      91.579  36.006  45.599  1.00  0.00    -0.400 N 
HETATM   27  C12 UNL     1      91.336  37.393  45.560  1.00  0.00     0.148 C 
HETATM   28  C13 UNL     1      91.491  35.317  46.813  1.00  0.00     0.148 C 
ENDBRANCH  25  26
ENDBRANCH  24  25
ENDBRANCH  22  24
ENDBRANCH  17  20
ENDBRANCH  12  14
ENDBRANCH   5  12
ENDBRANCH   1   3
BRANCH   1  29
HETATM   29  C17 UNL     1      82.384  31.009  39.075  1.00  0.00     0.144 C 
BRANCH  29  30
HETATM   30  C18 UNL     1      82.408  29.730  39.864  1.00  0.00     0.077 C 
BRANCH  30  31
HETATM   31  C19 UNL     1      82.083  28.543  39.042  1.00  0.00     0.010 A 
HETATM   32  C20 UNL     1      82.913  27.430  38.987  1.00  0.00     0.025 A 
HETATM   33  C21 UNL     1      82.622  26.319  38.225  1.00  0.00     0.013 A 
HETATM   34  C22 UNL     1      81.463  26.307  37.485  1.00  0.00     0.000 A 
HETATM   35  C27 UNL     1      80.649  27.421  37.553  1.00  0.00     0.098 A 
HETATM   36  N11 UNL     1      80.956  28.495  38.306  1.00  0.00    -0.368 N 
ATOM     37  H11 UNL     1      80.319  29.291  38.319  1.00  0.00     0.165 HD
BRANCH  34  38
HETATM   38  C23 UNL     1      81.093  25.135  36.644  1.00  0.00     0.207 C 
HETATM   39  C24 UNL     1      82.139  24.085  36.854  1.00  0.00     0.060 C 
BRANCH  38  40
HETATM   40  N6  UNL     1      79.822  24.593  37.091  1.00  0.00    -0.059 N 
ATOM     41  H63 UNL     1      79.841  24.333  38.077  1.00  0.00     0.276 HD
ATOM     42  H62 UNL     1      79.097  25.308  37.141  1.00  0.00     0.276 HD
ATOM     43  H61 UNL     1      79.553  23.813  36.492  1.00  0.00     0.276 HD
ENDBRANCH  38  40
BRANCH  38  44
HETATM   44  C25 UNL     1      80.963  25.471  35.225  1.00  0.00     0.153 A 
HETATM   45  N7  UNL     1      81.992  25.773  34.415  1.00  0.00    -0.272 N 
HETATM   46  N8  UNL     1      81.553  26.028  33.209  1.00  0.00    -0.131 N 
ATOM     47  H7  UNL     1      82.971  25.799  34.699  1.00  0.00     0.189 HD
HETATM   48  C26 UNL     1      80.231  25.898  33.205  1.00  0.00     0.692 A 
ATOM     49  H8  UNL     1      82.129  26.283  32.407  1.00  0.00     0.205 HD
HETATM   50  N9  UNL     1      79.440  26.069  32.196  1.00  0.00    -0.233 N 
HETATM   51  N10 UNL     1      79.859  25.556  34.439  1.00  0.00    -0.175 N 
ATOM     52  H92 UNL     1      79.724  26.331  31.252  1.00  0.00     0.174 HD
ATOM     53  H91 UNL     1      78.425  25.970  32.192  1.00  0.00     0.174 HD
ATOM     54  H10 UNL     1      78.900  25.385  34.743  1.00  0.00     0.185 HD
ENDBRANCH  38  44
ENDBRANCH  34  38
ENDBRANCH  30  31
ENDBRANCH  29  30
ENDBRANCH   1  29
TORSDOF 13
ENDMDL
MODEL 4
REMARK VINA RESULT: -10.160311382      2.801      3.506
REMARK  13 active torsions:
REMARK  status: ('A' for Active; 'I' for Inactive)
REMARK    1  A    between atoms: C4_4  and  N1_5 
REMARK    2  A    between atoms: N1_5  and  C5_7 
REMARK    3  A    between atoms: C8_10  and  C9_11 
REMARK       I    between atoms: C9_11  and  N2_13 
REMARK    4  A    between atoms: N2_13  and  C10_15 
REMARK    5  A    between atoms: C10_15  and  C11_16 
REMARK    6  A    between atoms: C11_16  and  N3_17 
REMARK    7  A    between atoms: C16_24  and  N5_25 
REMARK    8  A    between atoms: N5_25  and  C17_27 
REMARK    9  A    between atoms: C17_27  and  C18_28 
REMARK   10  A    between atoms: C18_28  and  C19_29 
REMARK   11  A    between atoms: C22_32  and  C23_33 
REMARK   12  A    between atoms: C23_33  and  N6_35 
REMARK   13  A    between atoms: C23_33  and  C25_39 
ROOT
HETATM    1  N5  UNL     1      82.209  30.389  39.889  1.00  0.00    -0.226 N 
ATOM      2  H5  UNL     1      82.603  29.729  40.559  1.00  0.00     0.177 HD
ENDROOT
BRANCH   1   3
HETATM    3  C16 UNL     1      82.377  31.648  40.109  1.00  0.00     0.679 A 
HETATM    4  N4  UNL     1      83.588  32.155  40.435  1.00  0.00    -0.177 N 
HETATM    5  C4  UNL     1      83.793  33.455  40.669  1.00  0.00     0.123 A 
ATOM      6  H4  UNL     1      84.380  31.517  40.506  1.00  0.00     0.186 HD
HETATM    7  C3  UNL     1      82.741  34.334  40.580  1.00  0.00     0.074 A 
HETATM    8  C2  UNL     1      81.488  33.849  40.250  1.00  0.00     0.026 A 
HETATM    9  C1  UNL     1      80.295  34.726  40.128  1.00  0.00     0.069 C 
HETATM   10  N12 UNL     1      81.368  32.529  40.029  1.00  0.00    -0.196 N 
ATOM     11  H12 UNL     1      80.444  32.171  39.784  1.00  0.00     0.184 HD
BRANCH   5  12
HETATM   12  N1  UNL     1      84.972  33.877  40.975  1.00  0.00    -0.342 N 
ATOM     13  H1  UNL     1      85.536  34.333  40.258  1.00  0.00     0.167 HD
BRANCH  12  14
HETATM   14  C5  UNL     1      85.507  33.725  42.276  1.00  0.00     0.033 A 
HETATM   15  C6  UNL     1      84.721  33.616  43.387  1.00  0.00     0.030 A 
HETATM   16  C7  UNL     1      85.254  33.469  44.656  1.00  0.00     0.019 A 
HETATM   17  C8  UNL     1      86.612  33.426  44.848  1.00  0.00     0.032 A 
HETATM   18  C14 UNL     1      87.422  33.536  43.721  1.00  0.00     0.019 A 
HETATM   19  C15 UNL     1      86.868  33.683  42.458  1.00  0.00     0.030 A 
BRANCH  17  20
HETATM   20  C9  UNL     1      87.204  33.277  46.162  1.00  0.00     0.251 C 
HETATM   21  O1  UNL     1      88.398  33.710  46.289  1.00  0.00    -0.268 OA
HETATM   22  N2  UNL     1      86.543  32.695  47.270  1.00  0.00    -0.352 N 
ATOM     23  H2  UNL     1      85.590  32.355  47.142  1.00  0.00     0.163 HD
BRANCH  22  24
HETATM   24  C10 UNL     1      87.148  32.561  48.561  1.00  0.00     0.167 C 
BRANCH  24  25
HETATM   25  C11 UNL     1      86.314  33.163  49.629  1.00  0.00     0.076 C 
BRANCH  25  26
HETATM   26  N3  UNL     1      85.528  32.274  50.381  1.00  0.00    -0.400 N 
HETATM   27  C12 UNL     1      84.125  32.398  50.347  1.00  0.00     0.148 C 
HETATM   28  C13 UNL     1      86.121  31.251  51.128  1.00  0.00     0.148 C 
ENDBRANCH  25  26
ENDBRANCH  24  25
ENDBRANCH  22  24
ENDBRANCH  17  20
ENDBRANCH  12  14
ENDBRANCH   5  12
ENDBRANCH   1   3
BRANCH   1  29
HETATM   29  C17 UNL     1      81.494  29.858  38.749  1.00  0.00     0.144 C 
BRANCH  29  30
HETATM   30  C18 UNL     1      81.345  28.374  38.933  1.00  0.00     0.077 C 
BRANCH  30  31
HETATM   31  C19 UNL     1      81.088  27.661  37.661  1.00  0.00     0.010 A 
HETATM   32  C20 UNL     1      79.804  27.455  37.174  1.00  0.00     0.025 A 
HETATM   33  C21 UNL     1      79.551  26.791  35.992  1.00  0.00     0.013 A 
HETATM   34  C22 UNL     1      80.613  26.312  35.260  1.00  0.00     0.000 A 
HETATM   35  C27 UNL     1      81.883  26.528  35.760  1.00  0.00     0.098 A 
HETATM   36  N11 UNL     1      82.103  27.179  36.918  1.00  0.00    -0.368 N 
ATOM     37  H11 UNL     1      83.062  27.310  37.241  1.00  0.00     0.165 HD
BRANCH  34  38
HETATM   38  C23 UNL     1      80.405  25.590  33.976  1.00  0.00     0.207 C 
HETATM   39  C24 UNL     1      79.103  26.057  33.404  1.00  0.00     0.060 C 
BRANCH  38  40
HETATM   40  N6  UNL     1      81.455  25.946  33.038  1.00  0.00    -0.059 N 
ATOM     41  H63 UNL     1      81.751  26.916  33.144  1.00  0.00     0.276 HD
ATOM     42  H62 UNL     1      82.341  25.496  33.265  1.00  0.00     0.276 HD
ATOM     43  H61 UNL     1      81.151  25.738  32.087  1.00  0.00     0.276 HD
ENDBRANCH  38  40
BRANCH  38  44
HETATM   44  C25 UNL     1      80.419  24.134  34.131  1.00  0.00     0.153 A 
HETATM   45  N7  UNL     1      80.291  23.491  35.304  1.00  0.00    -0.272 N 
HETATM   46  N8  UNL     1      80.346  22.198  35.114  1.00  0.00    -0.131 N 
ATOM     47  H7  UNL     1      80.168  23.945  36.210  1.00  0.00     0.189 HD
HETATM   48  C26 UNL     1      80.509  21.968  33.816  1.00  0.00     0.692 A 
ATOM     49  H8  UNL     1      80.275  21.485  35.840  1.00  0.00     0.205 HD
HETATM   50  N9  UNL     1      80.608  20.814  33.241  1.00  0.00    -0.233 N 
HETATM   51  N10 UNL     1      80.556  23.152  33.204  1.00  0.00    -0.175 N 
ATOM     52  H92 UNL     1      80.573  19.909  33.709  1.00  0.00     0.174 HD
ATOM     53  H91 UNL     1      80.734  20.638  32.244  1.00  0.00     0.174 HD
ATOM     54  H10 UNL     1      80.674  23.296  32.201  1.00  0.00     0.185 HD
ENDBRANCH  38  44
ENDBRANCH  34  38
ENDBRANCH  30  31
ENDBRANCH  29  30
ENDBRANCH   1  29
TORSDOF 13
ENDMDL
MODEL 5
REMARK VINA RESULT: -10.022716611      3.109      4.146
REMARK  13 active torsions:
REMARK  status: ('A' for Active; 'I' for Inactive)
REMARK    1  A    between atoms: C4_4  and  N1_5 
REMARK    2  A    between atoms: N1_5  and  C5_7 
REMARK    3  A    between atoms: C8_10  and  C9_11 
REMARK       I    between atoms: C9_11  and  N2_13 
REMARK    4  A    between atoms: N2_13  and  C10_15 
REMARK    5  A    between atoms: C10_15  and  C11_16 
REMARK    6  A    between atoms: C11_16  and  N3_17 
REMARK    7  A    between atoms: C16_24  and  N5_25 
REMARK    8  A    between atoms: N5_25  and  C17_27 
REMARK    9  A    between atoms: C17_27  and  C18_28 
REMARK   10  A    between atoms: C18_28  and  C19_29 
REMARK   11  A    between atoms: C22_32  and  C23_33 
REMARK   12  A    between atoms: C23_33  and  N6_35 
REMARK   13  A    between atoms: C23_33  and  C25_39 
ROOT
HETATM    1  N5  UNL     1      81.676  31.676  40.324  1.00  0.00    -0.226 N 
ATOM      2  H5  UNL     1      81.051  31.352  41.062  1.00  0.00     0.177 HD
ENDROOT
BRANCH   1   3
HETATM    3  C16 UNL     1      82.210  32.842  40.450  1.00  0.00     0.679 A 
HETATM    4  N4  UNL     1      83.436  33.004  40.999  1.00  0.00    -0.177 N 
HETATM    5  C4  UNL     1      84.015  34.200  41.144  1.00  0.00     0.123 A 
ATOM      6  H4  UNL     1      83.941  32.177  41.317  1.00  0.00     0.186 HD
HETATM    7  C3  UNL     1      83.354  35.329  40.724  1.00  0.00     0.074 A 
HETATM    8  C2  UNL     1      82.099  35.200  40.158  1.00  0.00     0.026 A 
HETATM    9  C1  UNL     1      81.313  36.363  39.673  1.00  0.00     0.069 C 
HETATM   10  N12 UNL     1      81.588  33.961  40.049  1.00  0.00    -0.196 N 
ATOM     11  H12 UNL     1      80.662  33.865  39.631  1.00  0.00     0.184 HD
BRANCH   5  12
HETATM   12  N1  UNL     1      85.186  34.289  41.675  1.00  0.00    -0.342 N 
ATOM     13  H1  UNL     1      85.955  34.663  41.118  1.00  0.00     0.167 HD
BRANCH  12  14
HETATM   14  C5  UNL     1      85.438  33.883  43.006  1.00  0.00     0.033 A 
HETATM   15  C6  UNL     1      86.675  33.493  43.434  1.00  0.00     0.030 A 
HETATM   16  C7  UNL     1      86.912  33.096  44.740  1.00  0.00     0.019 A 
HETATM   17  C8  UNL     1      85.899  33.081  45.665  1.00  0.00     0.032 A 
HETATM   18  C14 UNL     1      84.635  33.477  45.237  1.00  0.00     0.019 A 
HETATM   19  C15 UNL     1      84.418  33.871  43.925  1.00  0.00     0.030 A 
BRANCH  17  20
HETATM   20  C9  UNL     1      86.110  32.668  47.038  1.00  0.00     0.251 C 
HETATM   21  O1  UNL     1      87.124  31.921  47.247  1.00  0.00    -0.268 OA
HETATM   22  N2  UNL     1      85.275  33.044  48.117  1.00  0.00    -0.352 N 
ATOM     23  H2  UNL     1      84.470  33.640  47.924  1.00  0.00     0.163 HD
BRANCH  22  24
HETATM   24  C10 UNL     1      85.506  32.626  49.468  1.00  0.00     0.167 C 
BRANCH  24  25
HETATM   25  C11 UNL     1      86.555  33.440  50.127  1.00  0.00     0.076 C 
BRANCH  25  26
HETATM   26  N3  UNL     1      87.493  32.740  50.903  1.00  0.00    -0.400 N 
HETATM   27  C12 UNL     1      88.608  33.428  51.421  1.00  0.00     0.148 C 
HETATM   28  C13 UNL     1      87.311  31.385  51.197  1.00  0.00     0.148 C 
ENDBRANCH  25  26
ENDBRANCH  24  25
ENDBRANCH  22  24
ENDBRANCH  17  20
ENDBRANCH  12  14
ENDBRANCH   5  12
ENDBRANCH   1   3
BRANCH   1  29
HETATM   29  C17 UNL     1      81.910  30.799  39.197  1.00  0.00     0.144 C 
BRANCH  29  30
HETATM   30  C18 UNL     1      82.526  29.526  39.706  1.00  0.00     0.077 C 
BRANCH  30  31
HETATM   31  C19 UNL     1      82.274  28.371  38.815  1.00  0.00     0.010 A 
HETATM   32  C20 UNL     1      81.053  28.178  38.182  1.00  0.00     0.025 A 
HETATM   33  C21 UNL     1      80.804  27.105  37.351  1.00  0.00     0.013 A 
HETATM   34  C22 UNL     1      81.804  26.186  37.139  1.00  0.00     0.000 A 
HETATM   35  C27 UNL     1      83.012  26.395  37.777  1.00  0.00     0.098 A 
HETATM   36  N11 UNL     1      83.229  27.451  38.584  1.00  0.00    -0.368 N 
ATOM     37  H11 UNL     1      84.140  27.557  39.030  1.00  0.00     0.165 HD
BRANCH  34  38
HETATM   38  C23 UNL     1      81.598  25.008  36.252  1.00  0.00     0.207 C 
HETATM   39  C24 UNL     1      82.869  24.217  36.253  1.00  0.00     0.060 C 
BRANCH  38  40
HETATM   40  N6  UNL     1      80.549  24.164  36.796  1.00  0.00    -0.059 N 
ATOM     41  H63 UNL     1      79.815  24.708  37.250  1.00  0.00     0.276 HD
ATOM     42  H62 UNL     1      79.983  23.735  36.064  1.00  0.00     0.276 HD
ATOM     43  H61 UNL     1      80.957  23.470  37.423  1.00  0.00     0.276 HD
ENDBRANCH  38  40
BRANCH  38  44
HETATM   44  C25 UNL     1      81.211  25.380  34.890  1.00  0.00     0.153 A 
HETATM   45  N7  UNL     1      82.072  25.753  33.928  1.00  0.00    -0.272 N 
HETATM   46  N8  UNL     1      81.422  26.024  32.826  1.00  0.00    -0.131 N 
ATOM     47  H7  UNL     1      83.084  25.816  34.041  1.00  0.00     0.189 HD
HETATM   48  C26 UNL     1      80.126  25.834  33.043  1.00  0.00     0.692 A 
ATOM     49  H8  UNL     1      81.840  26.331  31.948  1.00  0.00     0.205 HD
HETATM   50  N9  UNL     1      79.165  26.000  32.192  1.00  0.00    -0.233 N 
HETATM   51  N10 UNL     1      79.986  25.438  34.309  1.00  0.00    -0.175 N 
ATOM     52  H92 UNL     1      79.272  26.302  31.223  1.00  0.00     0.174 HD
ATOM     53  H91 UNL     1      78.170  25.853  32.358  1.00  0.00     0.174 HD
ATOM     54  H10 UNL     1      79.101  25.214  34.766  1.00  0.00     0.185 HD
ENDBRANCH  38  44
ENDBRANCH  34  38
ENDBRANCH  30  31
ENDBRANCH  29  30
ENDBRANCH   1  29
TORSDOF 13
ENDMDL
