MODEL 1
REMARK VINA RESULT: -7.381212382      0.000      0.000
REMARK  1 active torsions:
REMARK  status: ('A' for Active; 'I' for Inactive)
REMARK    1  A    between atoms: N4_9  and  N5_11 
ROOT
HETATM    1  O1  UNL     1      27.945  64.764  13.510  1.00  0.00    -0.245 OA
HETATM    2  C1  UNL     1      28.510  64.630  12.394  1.00  0.00     0.351 C 
HETATM    3  N1  UNL     1      28.710  63.332  11.855  1.00  0.00    -0.234 N 
ATOM      4  H1  UNL     1      28.776  62.516  12.463  1.00  0.00     0.189 HD
HETATM    5  N2  UNL     1      28.813  63.204  10.466  1.00  0.00    -0.004 NA
HETATM    6  N3  UNL     1      29.701  64.185  10.019  1.00  0.00    -0.114 N 
ATOM      7  H3  UNL     1      30.459  63.916   9.391  1.00  0.00     0.203 HD
HETATM    8  C2  UNL     1      29.582  65.552  10.411  1.00  0.00     0.714 C 
HETATM    9  N4  UNL     1      30.003  66.524   9.709  1.00  0.00    -0.119 N 
ATOM     10  H4  UNL     1      29.889  67.479  10.046  1.00  0.00     0.206 HD
HETATM   11  N6  UNL     1      28.948  65.764  11.673  1.00  0.00    -0.138 N 
ATOM     12  H6  UNL     1      28.815  66.705  12.043  1.00  0.00     0.189 HD
ENDROOT
BRANCH   9  13
HETATM   13  N5  UNL     1      30.632  66.288   8.457  1.00  0.00    -0.175 N 
HETATM   14  C3  UNL     1      30.243  65.740   7.214  1.00  0.00     0.254 C 
HETATM   15  O2  UNL     1      29.371  64.936   6.860  1.00  0.00    -0.271 OA
HETATM   16  C4  UNL     1      31.305  66.533   6.571  1.00  0.00     0.210 C 
HETATM   17  C5  UNL     1      31.916  66.496   7.908  1.00  0.00     0.254 C 
HETATM   18  O3  UNL     1      33.049  66.596   8.392  1.00  0.00    -0.271 OA
ENDBRANCH   9  13
TORSDOF 1
ENDMDL
MODEL 2
REMARK VINA RESULT: -7.096350560      1.926      5.185
REMARK  1 active torsions:
REMARK  status: ('A' for Active; 'I' for Inactive)
REMARK    1  A    between atoms: N4_9  and  N5_11 
ROOT
HETATM    1  O1  UNL     1      31.128  66.955   6.793  1.00  0.00    -0.245 OA
HETATM    2  C1  UNL     1      30.286  66.456   7.583  1.00  0.00     0.351 C 
HETATM    3  N1  UNL     1      28.903  66.726   7.406  1.00  0.00    -0.234 N 
ATOM      4  H1  UNL     1      28.591  67.577   6.938  1.00  0.00     0.189 HD
HETATM    5  N2  UNL     1      27.982  65.792   7.890  1.00  0.00    -0.004 NA
HETATM    6  N3  UNL     1      28.367  65.456   9.190  1.00  0.00    -0.114 N 
ATOM      7  H3  UNL     1      27.669  65.477   9.933  1.00  0.00     0.203 HD
HETATM    8  C2  UNL     1      29.707  65.085   9.511  1.00  0.00     0.714 C 
HETATM    9  N4  UNL     1      30.012  64.333  10.489  1.00  0.00    -0.119 N 
ATOM     10  H4  UNL     1      30.990  64.105  10.667  1.00  0.00     0.206 HD
HETATM   11  N6  UNL     1      30.707  65.626   8.647  1.00  0.00    -0.138 N 
ATOM     12  H6  UNL     1      31.696  65.420   8.793  1.00  0.00     0.189 HD
ENDROOT
BRANCH   9  13
HETATM   13  N5  UNL     1      29.000  63.808  11.336  1.00  0.00    -0.175 N 
HETATM   14  C3  UNL     1      27.902  62.933  11.182  1.00  0.00     0.254 C 
HETATM   15  O2  UNL     1      27.188  62.603  10.225  1.00  0.00    -0.271 OA
HETATM   16  C4  UNL     1      27.998  62.613  12.616  1.00  0.00     0.210 C 
HETATM   17  C5  UNL     1      28.648  63.929  12.698  1.00  0.00     0.254 C 
HETATM   18  O3  UNL     1      28.833  64.799  13.557  1.00  0.00    -0.271 OA
ENDBRANCH   9  13
TORSDOF 1
ENDMDL
MODEL 3
REMARK VINA RESULT: -6.944474734      1.933      5.412
REMARK  1 active torsions:
REMARK  status: ('A' for Active; 'I' for Inactive)
REMARK    1  A    between atoms: N4_9  and  N5_11 
ROOT
HETATM    1  O1  UNL     1      31.218  66.963   6.658  1.00  0.00    -0.245 OA
HETATM    2  C1  UNL     1      30.339  66.507   7.435  1.00  0.00     0.351 C 
HETATM    3  N1  UNL     1      28.973  66.828   7.223  1.00  0.00    -0.234 N 
ATOM      4  H1  UNL     1      28.704  67.684   6.737  1.00  0.00     0.189 HD
HETATM    5  N2  UNL     1      28.005  65.937   7.698  1.00  0.00    -0.004 NA
HETATM    6  N3  UNL     1      28.349  65.605   9.010  1.00  0.00    -0.114 N 
ATOM      7  H3  UNL     1      27.635  65.663   9.737  1.00  0.00     0.203 HD
HETATM    8  C2  UNL     1      29.665  65.186   9.367  1.00  0.00     0.714 C 
HETATM    9  N4  UNL     1      29.919  64.437  10.362  1.00  0.00    -0.119 N 
ATOM     10  H4  UNL     1      30.883  64.174  10.565  1.00  0.00     0.206 HD
HETATM   11  N6  UNL     1      30.705  65.676   8.519  1.00  0.00    -0.138 N 
ATOM     12  H6  UNL     1      31.681  65.434   8.689  1.00  0.00     0.189 HD
ENDROOT
BRANCH   9  13
HETATM   13  N5  UNL     1      28.869  63.963  11.192  1.00  0.00    -0.175 N 
HETATM   14  C3  UNL     1      28.373  64.276  12.477  1.00  0.00     0.254 C 
HETATM   15  O2  UNL     1      28.865  64.786  13.492  1.00  0.00    -0.271 OA
HETATM   16  C4  UNL     1      27.063  63.741  12.065  1.00  0.00     0.210 C 
HETATM   17  C5  UNL     1      27.865  62.975  11.099  1.00  0.00     0.254 C 
HETATM   18  O3  UNL     1      27.755  61.923  10.459  1.00  0.00    -0.271 OA
ENDBRANCH   9  13
TORSDOF 1
ENDMDL
MODEL 4
REMARK VINA RESULT: -6.754235228      1.978      5.159
REMARK  1 active torsions:
REMARK  status: ('A' for Active; 'I' for Inactive)
REMARK    1  A    between atoms: N4_9  and  N5_11 
ROOT
HETATM    1  O1  UNL     1      32.870  66.548   8.340  1.00  0.00    -0.245 OA
HETATM    2  C1  UNL     1      31.672  66.234   8.565  1.00  0.00     0.351 C 
HETATM    3  N1  UNL     1      30.638  66.754   7.744  1.00  0.00    -0.234 N 
ATOM      4  H1  UNL     1      30.756  67.639   7.249  1.00  0.00     0.189 HD
HETATM    5  N2  UNL     1      29.452  66.022   7.633  1.00  0.00    -0.004 NA
HETATM    6  N3  UNL     1      29.067  65.648   8.923  1.00  0.00    -0.114 N 
ATOM      7  H3  UNL     1      28.105  65.817   9.219  1.00  0.00     0.203 HD
HETATM    8  C2  UNL     1      29.975  65.039   9.840  1.00  0.00     0.714 C 
HETATM    9  N4  UNL     1      29.611  64.265  10.780  1.00  0.00    -0.119 N 
ATOM     10  H4  UNL     1      30.310  63.862  11.403  1.00  0.00     0.206 HD
HETATM   11  N6  UNL     1      31.351  65.363   9.631  1.00  0.00    -0.138 N 
ATOM     12  H6  UNL     1      32.078  64.978  10.233  1.00  0.00     0.189 HD
ENDROOT
BRANCH   9  13
HETATM   13  N5  UNL     1      28.237  63.959  10.968  1.00  0.00    -0.175 N 
HETATM   14  C3  UNL     1      27.462  62.780  11.036  1.00  0.00     0.254 C 
HETATM   15  O2  UNL     1      27.596  61.632  10.592  1.00  0.00    -0.271 OA
HETATM   16  C4  UNL     1      26.471  63.518  11.838  1.00  0.00     0.210 C 
HETATM   17  C5  UNL     1      27.049  64.693  11.169  1.00  0.00     0.254 C 
HETATM   18  O3  UNL     1      26.692  65.842  10.883  1.00  0.00    -0.271 OA
ENDBRANCH   9  13
TORSDOF 1
ENDMDL
MODEL 5
REMARK VINA RESULT: -6.749681263      0.757      1.863
REMARK  1 active torsions:
REMARK  status: ('A' for Active; 'I' for Inactive)
REMARK    1  A    between atoms: N4_9  and  N5_11 
ROOT
HETATM    1  O1  UNL     1      28.105  64.463  13.756  1.00  0.00    -0.245 OA
HETATM    2  C1  UNL     1      28.550  64.453  12.579  1.00  0.00     0.351 C 
HETATM    3  N1  UNL     1      28.754  63.218  11.911  1.00  0.00    -0.234 N 
ATOM      4  H1  UNL     1      28.927  62.360  12.435  1.00  0.00     0.189 HD
HETATM    5  N2  UNL     1      28.711  63.209  10.513  1.00  0.00    -0.004 NA
HETATM    6  N3  UNL     1      29.494  64.274  10.062  1.00  0.00    -0.114 N 
ATOM      7  H3  UNL     1      30.191  64.102   9.337  1.00  0.00     0.203 HD
HETATM    8  C2  UNL     1      29.351  65.595  10.582  1.00  0.00     0.714 C 
HETATM    9  N4  UNL     1      29.644  66.644   9.927  1.00  0.00    -0.119 N 
ATOM     10  H4  UNL     1      29.519  67.560  10.357  1.00  0.00     0.206 HD
HETATM   11  N6  UNL     1      28.849  65.666  11.918  1.00  0.00    -0.138 N 
ATOM     12  H6  UNL     1      28.711  66.565  12.380  1.00  0.00     0.189 HD
ENDROOT
BRANCH   9  13
HETATM   13  N5  UNL     1      30.142  66.548   8.601  1.00  0.00    -0.175 N 
HETATM   14  C3  UNL     1      31.415  66.407   8.004  1.00  0.00     0.254 C 
HETATM   15  O2  UNL     1      32.569  66.689   8.354  1.00  0.00    -0.271 OA
HETATM   16  C4  UNL     1      30.761  65.799   6.832  1.00  0.00     0.210 C 
HETATM   17  C5  UNL     1      29.588  66.552   7.302  1.00  0.00     0.254 C 
HETATM   18  O3  UNL     1      28.549  67.011   6.815  1.00  0.00    -0.271 OA
ENDBRANCH   9  13
TORSDOF 1
ENDMDL
