MODEL 1
REMARK VINA RESULT: -5.923605986      0.000      0.000
REMARK  2 active torsions:
REMARK  status: ('A' for Active; 'I' for Inactive)
REMARK    1  A    between atoms: N1_1  and  N2_4 
REMARK       I    between atoms: C1_6  and  N3_7 
REMARK       I    between atoms: C1_6  and  N5_12 
REMARK    2  A    between atoms: N3_7  and  N4_9 
ROOT
HETATM    1  N2  UNL     1      30.511  65.856   7.828  1.00  0.00    -0.136 N 
ATOM      2  H2  UNL     1      29.623  66.048   7.365  1.00  0.00     0.205 HD
HETATM    3  C1  UNL     1      30.480  65.437   9.049  1.00  0.00     0.731 C 
HETATM    4  N3  UNL     1      31.655  65.144   9.777  1.00  0.00    -0.136 N 
ATOM      5  H3  UNL     1      31.617  64.349  10.416  1.00  0.00     0.205 HD
HETATM    6  N5  UNL     1      29.201  65.277   9.649  1.00  0.00    -0.053 N 
HETATM    7  N6  UNL     1      27.862  65.460   9.260  1.00  0.00    -0.106 NA
HETATM    8  C2  UNL     1      27.434  65.287  10.636  1.00  0.00     0.241 C 
HETATM    9  C3  UNL     1      28.794  64.848  10.938  1.00  0.00     0.272 C 
HETATM   10  O1  UNL     1      29.382  64.319  11.904  1.00  0.00    -0.270 OA
ENDROOT
BRANCH   1  11
HETATM   11  N1  UNL     1      31.675  66.062   7.107  1.00  0.00    -0.331 N 
ATOM     12  H12 UNL     1      31.598  66.623   6.259  1.00  0.00     0.177 HD
ATOM     13  H11 UNL     1      32.586  65.690   7.374  1.00  0.00     0.177 HD
ENDBRANCH   1  11
BRANCH   4  14
HETATM   14  N4  UNL     1      32.844  65.830   9.704  1.00  0.00    -0.331 N 
ATOM     15  H42 UNL     1      32.955  66.444   8.898  1.00  0.00     0.177 HD
ATOM     16  H41 UNL     1      33.608  65.777  10.376  1.00  0.00     0.177 HD
ENDBRANCH   4  14
TORSDOF 2
ENDMDL
MODEL 2
REMARK VINA RESULT: -5.864558446      2.537      3.078
REMARK  2 active torsions:
REMARK  status: ('A' for Active; 'I' for Inactive)
REMARK    1  A    between atoms: N1_1  and  N2_4 
REMARK       I    between atoms: C1_6  and  N3_7 
REMARK       I    between atoms: C1_6  and  N5_12 
REMARK    2  A    between atoms: N3_7  and  N4_9 
ROOT
HETATM    1  N2  UNL     1      31.399  65.588   9.541  1.00  0.00    -0.136 N 
ATOM      2  H2  UNL     1      30.758  65.126  10.187  1.00  0.00     0.205 HD
HETATM    3  C1  UNL     1      30.893  66.232   8.542  1.00  0.00     0.731 C 
HETATM    4  N3  UNL     1      31.694  66.905   7.593  1.00  0.00    -0.136 N 
ATOM      5  H3  UNL     1      31.337  67.788   7.228  1.00  0.00     0.205 HD
HETATM    6  N5  UNL     1      29.476  66.243   8.426  1.00  0.00    -0.053 N 
HETATM    7  N6  UNL     1      28.390  65.710   9.144  1.00  0.00    -0.106 NA
HETATM    8  C2  UNL     1      27.493  66.068   8.060  1.00  0.00     0.241 C 
HETATM    9  C3  UNL     1      28.596  66.832   7.483  1.00  0.00     0.272 C 
HETATM   10  O1  UNL     1      28.741  67.657   6.557  1.00  0.00    -0.270 OA
ENDROOT
BRANCH   1  11
HETATM   11  N1  UNL     1      32.756  65.486   9.791  1.00  0.00    -0.331 N 
ATOM     12  H12 UNL     1      33.090  65.855  10.681  1.00  0.00     0.177 HD
ATOM     13  H11 UNL     1      33.427  65.069   9.145  1.00  0.00     0.177 HD
ENDBRANCH   1  11
BRANCH   4  14
HETATM   14  N4  UNL     1      32.912  66.480   7.117  1.00  0.00    -0.331 N 
ATOM     15  H42 UNL     1      33.635  67.196   7.042  1.00  0.00     0.177 HD
ATOM     16  H41 UNL     1      33.148  65.529   6.838  1.00  0.00     0.177 HD
ENDBRANCH   4  14
TORSDOF 2
ENDMDL
MODEL 3
REMARK VINA RESULT: -5.766004053      1.449      1.495
REMARK  2 active torsions:
REMARK  status: ('A' for Active; 'I' for Inactive)
REMARK    1  A    between atoms: N1_1  and  N2_4 
REMARK       I    between atoms: C1_6  and  N3_7 
REMARK       I    between atoms: C1_6  and  N5_12 
REMARK    2  A    between atoms: N3_7  and  N4_9 
ROOT
HETATM    1  N2  UNL     1      30.598  67.074   6.780  1.00  0.00    -0.136 N 
ATOM      2  H2  UNL     1      29.670  67.343   6.452  1.00  0.00     0.205 HD
HETATM    3  C1  UNL     1      30.680  66.415   7.888  1.00  0.00     0.731 C 
HETATM    4  N3  UNL     1      31.917  65.995   8.427  1.00  0.00    -0.136 N 
ATOM      5  H3  UNL     1      31.935  65.086   8.891  1.00  0.00     0.205 HD
HETATM    6  N5  UNL     1      29.463  66.119   8.561  1.00  0.00    -0.053 N 
HETATM    7  N6  UNL     1      28.094  66.360   8.345  1.00  0.00    -0.106 NA
HETATM    8  C2  UNL     1      27.798  65.905   9.692  1.00  0.00     0.241 C 
HETATM    9  C3  UNL     1      29.177  65.431   9.768  1.00  0.00     0.272 C 
HETATM   10  O1  UNL     1      29.852  64.725  10.546  1.00  0.00    -0.270 OA
ENDROOT
BRANCH   1  11
HETATM   11  N1  UNL     1      31.688  67.437   6.010  1.00  0.00    -0.331 N 
ATOM     12  H12 UNL     1      31.580  67.372   4.999  1.00  0.00     0.177 HD
ATOM     13  H11 UNL     1      32.578  67.759   6.393  1.00  0.00     0.177 HD
ENDBRANCH   1  11
BRANCH   4  14
HETATM   14  N4  UNL     1      33.098  66.697   8.383  1.00  0.00    -0.331 N 
ATOM     15  H42 UNL     1      33.048  67.627   7.969  1.00  0.00     0.177 HD
ATOM     16  H41 UNL     1      34.002  66.372   8.725  1.00  0.00     0.177 HD
ENDBRANCH   4  14
TORSDOF 2
ENDMDL
MODEL 4
REMARK VINA RESULT: -5.725349084      2.676      3.517
REMARK  2 active torsions:
REMARK  status: ('A' for Active; 'I' for Inactive)
REMARK    1  A    between atoms: N1_1  and  N2_4 
REMARK       I    between atoms: C1_6  and  N3_7 
REMARK       I    between atoms: C1_6  and  N5_12 
REMARK    2  A    between atoms: N3_7  and  N4_9 
ROOT
HETATM    1  N2  UNL     1      29.373  65.315  10.199  1.00  0.00    -0.136 N 
ATOM      2  H2  UNL     1      28.365  65.264  10.051  1.00  0.00     0.205 HD
HETATM    3  C1  UNL     1      30.094  65.861   9.277  1.00  0.00     0.731 C 
HETATM    4  N3  UNL     1      31.497  65.980   9.387  1.00  0.00    -0.136 N 
ATOM      5  H3  UNL     1      31.921  66.830   9.012  1.00  0.00     0.205 HD
HETATM    6  N5  UNL     1      29.417  66.347   8.125  1.00  0.00    -0.053 N 
HETATM    7  N6  UNL     1      28.087  66.405   7.672  1.00  0.00    -0.106 NA
HETATM    8  C2  UNL     1      28.547  66.810   6.357  1.00  0.00     0.241 C 
HETATM    9  C3  UNL     1      29.873  66.987   6.944  1.00  0.00     0.272 C 
HETATM   10  O1  UNL     1      30.963  67.483   6.590  1.00  0.00    -0.270 OA
ENDROOT
BRANCH   1  11
HETATM   11  N1  UNL     1      29.882  64.796  11.376  1.00  0.00    -0.331 N 
ATOM     12  H12 UNL     1      29.315  64.096  11.854  1.00  0.00     0.177 HD
ATOM     13  H11 UNL     1      30.776  65.071  11.784  1.00  0.00     0.177 HD
ENDBRANCH   1  11
BRANCH   4  14
HETATM   14  N4  UNL     1      32.345  65.058   9.953  1.00  0.00    -0.331 N 
ATOM     15  H42 UNL     1      31.903  64.336  10.521  1.00  0.00     0.177 HD
ATOM     16  H41 UNL     1      33.360  65.037   9.855  1.00  0.00     0.177 HD
ENDBRANCH   4  14
TORSDOF 2
ENDMDL
MODEL 5
REMARK VINA RESULT: -5.724682541      2.006      2.793
REMARK  2 active torsions:
REMARK  status: ('A' for Active; 'I' for Inactive)
REMARK    1  A    between atoms: N1_1  and  N2_4 
REMARK       I    between atoms: C1_6  and  N3_7 
REMARK       I    between atoms: C1_6  and  N5_12 
REMARK    2  A    between atoms: N3_7  and  N4_9 
ROOT
HETATM    1  N2  UNL     1      32.517  66.456   8.634  1.00  0.00    -0.136 N 
ATOM      2  H2  UNL     1      32.732  65.927   9.480  1.00  0.00     0.205 HD
HETATM    3  C1  UNL     1      31.275  66.598   8.309  1.00  0.00     0.731 C 
HETATM    4  N3  UNL     1      30.873  67.313   7.158  1.00  0.00    -0.136 N 
ATOM      5  H3  UNL     1      30.020  67.867   7.232  1.00  0.00     0.205 HD
HETATM    6  N5  UNL     1      30.307  66.001   9.161  1.00  0.00    -0.053 N 
HETATM    7  N6  UNL     1      30.320  65.243  10.346  1.00  0.00    -0.106 NA
HETATM    8  C2  UNL     1      28.907  64.953  10.181  1.00  0.00     0.241 C 
HETATM    9  C3  UNL     1      28.890  65.954   9.117  1.00  0.00     0.272 C 
HETATM   10  O1  UNL     1      28.022  66.540   8.437  1.00  0.00    -0.270 OA
ENDROOT
BRANCH   1  11
HETATM   11  N1  UNL     1      33.574  66.976   7.909  1.00  0.00    -0.331 N 
ATOM     12  H12 UNL     1      33.891  66.436   7.104  1.00  0.00     0.177 HD
ATOM     13  H11 UNL     1      34.044  67.854   8.132  1.00  0.00     0.177 HD
ENDBRANCH   1  11
BRANCH   4  14
HETATM   14  N4  UNL     1      31.526  67.331   5.948  1.00  0.00    -0.331 N 
ATOM     15  H42 UNL     1      32.543  67.389   5.992  1.00  0.00     0.177 HD
ATOM     16  H41 UNL     1      31.086  67.292   5.029  1.00  0.00     0.177 HD
ENDBRANCH   4  14
TORSDOF 2
ENDMDL
