MODEL 1
REMARK VINA RESULT: -6.486086512      0.000      0.000
REMARK  5 active torsions:
REMARK  status: ('A' for Active; 'I' for Inactive)
REMARK    1  A    between atoms: N1_1  and  C1_4 
REMARK    2  A    between atoms: N5_15  and  C5_16 
REMARK    3  A    between atoms: C5_16  and  C6_17 
REMARK    4  A    between atoms: C6_17  and  O2_18 
REMARK    5  A    between atoms: O2_18  and  C7_19 
ROOT
HETATM    1  C1  UNL     1     -11.992 -27.859 -27.056  1.00  0.00     0.134 A 
HETATM    2  N2  UNL     1     -10.662 -28.015 -26.922  1.00  0.00    -0.293 N 
ATOM      3  H2  UNL     1     -10.024 -27.525 -27.549  1.00  0.00     0.172 HD
HETATM    4  C2  UNL     1     -10.181 -28.816 -25.961  1.00  0.00     0.327 A 
HETATM    5  O1  UNL     1      -8.937 -28.962 -25.836  1.00  0.00    -0.247 OA
HETATM    6  N3  UNL     1     -11.053 -29.447 -25.152  1.00  0.00    -0.292 N 
ATOM      7  H3  UNL     1     -10.677 -30.055 -24.424  1.00  0.00     0.172 HD
HETATM    8  C3  UNL     1     -12.382 -29.325 -25.244  1.00  0.00     0.141 A 
HETATM    9  N4  UNL     1     -13.464 -29.801 -24.613  1.00  0.00    -0.336 N 
ATOM     10  H4  UNL     1     -13.449 -30.447 -23.823  1.00  0.00     0.168 HD
HETATM   11  C4  UNL     1     -14.562 -29.300 -25.179  1.00  0.00     0.185 A 
HETATM   12  N5  UNL     1     -14.211 -28.470 -26.211  1.00  0.00    -0.335 N 
HETATM   13  C8  UNL     1     -12.889 -28.498 -26.235  1.00  0.00     0.124 A 
ENDROOT
BRANCH  12  14
HETATM   14  C5  UNL     1     -15.188 -27.807 -26.994  1.00  0.00     0.157 C 
BRANCH  14  15
HETATM   15  C6  UNL     1     -16.416 -27.594 -26.128  1.00  0.00     0.200 C 
BRANCH  15  16
HETATM   16  O2  UNL     1     -17.625 -27.836 -26.757  1.00  0.00    -0.305 OA
BRANCH  16  17
HETATM   17  C7  UNL     1     -18.004 -28.943 -27.463  1.00  0.00     0.372 C 
HETATM   18  N6  UNL     1     -18.202 -30.154 -26.739  1.00  0.00    -0.032 NA
HETATM   19  O3  UNL     1     -18.157 -28.844 -28.694  1.00  0.00    -0.242 OA
ENDBRANCH  16  17
ENDBRANCH  15  16
ENDBRANCH  14  15
ENDBRANCH  12  14
BRANCH   1  20
HETATM   20  N1  UNL     1     -12.442 -27.095 -27.968  1.00  0.00    -0.383 N 
ATOM     21  H12 UNL     1     -12.361 -27.396 -28.939  1.00  0.00     0.157 HD
ATOM     22  H11 UNL     1     -12.873 -26.207 -27.710  1.00  0.00     0.157 HD
ENDBRANCH   1  20
TORSDOF 5
ENDMDL
MODEL 2
REMARK VINA RESULT: -6.483549487      1.766      2.425
REMARK  5 active torsions:
REMARK  status: ('A' for Active; 'I' for Inactive)
REMARK    1  A    between atoms: N1_1  and  C1_4 
REMARK    2  A    between atoms: N5_15  and  C5_16 
REMARK    3  A    between atoms: C5_16  and  C6_17 
REMARK    4  A    between atoms: C6_17  and  O2_18 
REMARK    5  A    between atoms: O2_18  and  C7_19 
ROOT
HETATM    1  C1  UNL     1     -11.960 -27.784 -26.926  1.00  0.00     0.134 A 
HETATM    2  N2  UNL     1     -10.628 -27.944 -26.815  1.00  0.00    -0.293 N 
ATOM      3  H2  UNL     1      -9.997 -27.418 -27.419  1.00  0.00     0.172 HD
HETATM    4  C2  UNL     1     -10.136 -28.798 -25.907  1.00  0.00     0.327 A 
HETATM    5  O1  UNL     1      -8.891 -28.948 -25.804  1.00  0.00    -0.247 OA
HETATM    6  N3  UNL     1     -10.998 -29.477 -25.127  1.00  0.00    -0.292 N 
ATOM      7  H3  UNL     1     -10.614 -30.125 -24.439  1.00  0.00     0.172 HD
HETATM    8  C3  UNL     1     -12.328 -29.353 -25.198  1.00  0.00     0.141 A 
HETATM    9  N4  UNL     1     -13.403 -29.868 -24.584  1.00  0.00    -0.336 N 
ATOM     10  H4  UNL     1     -13.379 -30.557 -23.834  1.00  0.00     0.168 HD
HETATM   11  C4  UNL     1     -14.508 -29.336 -25.109  1.00  0.00     0.185 A 
HETATM   12  N5  UNL     1     -14.169 -28.448 -26.095  1.00  0.00    -0.335 N 
HETATM   13  C8  UNL     1     -12.847 -28.471 -26.134  1.00  0.00     0.124 A 
ENDROOT
BRANCH  12  14
HETATM   14  C5  UNL     1     -15.155 -27.743 -26.827  1.00  0.00     0.157 C 
BRANCH  14  15
HETATM   15  C6  UNL     1     -15.627 -28.637 -27.960  1.00  0.00     0.200 C 
BRANCH  15  16
HETATM   16  O2  UNL     1     -14.830 -28.619 -29.090  1.00  0.00    -0.305 OA
BRANCH  16  17
HETATM   17  C7  UNL     1     -13.992 -29.595 -29.550  1.00  0.00     0.372 C 
HETATM   18  N6  UNL     1     -12.656 -29.222 -29.875  1.00  0.00    -0.032 NA
HETATM   19  O3  UNL     1     -14.429 -30.755 -29.664  1.00  0.00    -0.242 OA
ENDBRANCH  16  17
ENDBRANCH  15  16
ENDBRANCH  14  15
ENDBRANCH  12  14
BRANCH   1  20
HETATM   20  N1  UNL     1     -12.421 -26.969 -27.788  1.00  0.00    -0.383 N 
ATOM     21  H12 UNL     1     -12.010 -26.038 -27.845  1.00  0.00     0.157 HD
ATOM     22  H11 UNL     1     -13.183 -27.263 -28.398  1.00  0.00     0.157 HD
ENDBRANCH   1  20
TORSDOF 5
ENDMDL
MODEL 3
REMARK VINA RESULT: -6.301184160      1.705      2.363
REMARK  5 active torsions:
REMARK  status: ('A' for Active; 'I' for Inactive)
REMARK    1  A    between atoms: N1_1  and  C1_4 
REMARK    2  A    between atoms: N5_15  and  C5_16 
REMARK    3  A    between atoms: C5_16  and  C6_17 
REMARK    4  A    between atoms: C6_17  and  O2_18 
REMARK    5  A    between atoms: O2_18  and  C7_19 
ROOT
HETATM    1  C1  UNL     1     -12.092 -27.813 -27.031  1.00  0.00     0.134 A 
HETATM    2  N2  UNL     1     -10.758 -27.971 -26.940  1.00  0.00    -0.293 N 
ATOM      3  H2  UNL     1     -10.139 -27.468 -27.575  1.00  0.00     0.172 HD
HETATM    4  C2  UNL     1     -10.249 -28.792 -26.011  1.00  0.00     0.327 A 
HETATM    5  O1  UNL     1      -9.002 -28.940 -25.926  1.00  0.00    -0.247 OA
HETATM    6  N3  UNL     1     -11.097 -29.440 -25.189  1.00  0.00    -0.292 N 
ATOM      7  H3  UNL     1     -10.699 -30.063 -24.485  1.00  0.00     0.172 HD
HETATM    8  C3  UNL     1     -12.427 -29.317 -25.239  1.00  0.00     0.141 A 
HETATM    9  N4  UNL     1     -13.490 -29.806 -24.585  1.00  0.00    -0.336 N 
ATOM     10  H4  UNL     1     -13.452 -30.468 -23.810  1.00  0.00     0.168 HD
HETATM   11  C4  UNL     1     -14.605 -29.293 -25.108  1.00  0.00     0.185 A 
HETATM   12  N5  UNL     1     -14.284 -28.442 -26.132  1.00  0.00    -0.335 N 
HETATM   13  C8  UNL     1     -12.964 -28.469 -26.196  1.00  0.00     0.124 A 
ENDROOT
BRANCH  12  14
HETATM   14  C5  UNL     1     -15.285 -27.763 -26.871  1.00  0.00     0.157 C 
BRANCH  14  15
HETATM   15  C6  UNL     1     -16.583 -27.846 -26.089  1.00  0.00     0.200 C 
BRANCH  15  16
HETATM   16  O2  UNL     1     -17.044 -26.641 -25.591  1.00  0.00    -0.305 OA
BRANCH  16  17
HETATM   17  C7  UNL     1     -16.780 -26.071 -24.377  1.00  0.00     0.372 C 
HETATM   18  N6  UNL     1     -17.144 -24.705 -24.195  1.00  0.00    -0.032 NA
HETATM   19  O3  UNL     1     -16.240 -26.763 -23.495  1.00  0.00    -0.242 OA
ENDBRANCH  16  17
ENDBRANCH  15  16
ENDBRANCH  14  15
ENDBRANCH  12  14
BRANCH   1  20
HETATM   20  N1  UNL     1     -12.569 -27.030 -27.912  1.00  0.00    -0.383 N 
ATOM     21  H12 UNL     1     -11.944 -26.670 -28.633  1.00  0.00     0.157 HD
ATOM     22  H11 UNL     1     -13.558 -26.784 -27.881  1.00  0.00     0.157 HD
ENDBRANCH   1  20
TORSDOF 5
ENDMDL
MODEL 4
REMARK VINA RESULT: -6.250079422      2.560      5.695
REMARK  5 active torsions:
REMARK  status: ('A' for Active; 'I' for Inactive)
REMARK    1  A    between atoms: N1_1  and  C1_4 
REMARK    2  A    between atoms: N5_15  and  C5_16 
REMARK    3  A    between atoms: C5_16  and  C6_17 
REMARK    4  A    between atoms: C6_17  and  O2_18 
REMARK    5  A    between atoms: O2_18  and  C7_19 
ROOT
HETATM    1  C1  UNL     1     -13.221 -26.957 -25.515  1.00  0.00     0.134 A 
HETATM    2  N2  UNL     1     -14.136 -26.616 -24.589  1.00  0.00    -0.293 N 
ATOM      3  H2  UNL     1     -13.851 -26.124 -23.743  1.00  0.00     0.172 HD
HETATM    4  C2  UNL     1     -15.425 -26.927 -24.785  1.00  0.00     0.327 A 
HETATM    5  O1  UNL     1     -16.282 -26.609 -23.919  1.00  0.00    -0.247 OA
HETATM    6  N3  UNL     1     -15.767 -27.578 -25.913  1.00  0.00    -0.292 N 
ATOM      7  H3  UNL     1     -16.751 -27.810 -26.053  1.00  0.00     0.172 HD
HETATM    8  C3  UNL     1     -14.897 -27.938 -26.862  1.00  0.00     0.141 A 
HETATM    9  N4  UNL     1     -14.928 -28.565 -28.046  1.00  0.00    -0.336 N 
ATOM     10  H4  UNL     1     -15.765 -28.936 -28.494  1.00  0.00     0.168 HD
HETATM   11  C4  UNL     1     -13.693 -28.628 -28.546  1.00  0.00     0.185 A 
HETATM   12  N5  UNL     1     -12.815 -28.031 -27.681  1.00  0.00    -0.335 N 
HETATM   13  C8  UNL     1     -13.560 -27.620 -26.669  1.00  0.00     0.124 A 
ENDROOT
BRANCH  12  14
HETATM   14  C5  UNL     1     -11.428 -27.965 -27.962  1.00  0.00     0.157 C 
BRANCH  14  15
HETATM   15  C6  UNL     1     -10.791 -29.260 -27.492  1.00  0.00     0.200 C 
BRANCH  15  16
HETATM   16  O2  UNL     1     -10.792 -29.448 -26.122  1.00  0.00    -0.305 OA
BRANCH  16  17
HETATM   17  C7  UNL     1      -9.722 -29.493 -25.273  1.00  0.00     0.372 C 
HETATM   18  N6  UNL     1      -9.259 -30.775 -24.858  1.00  0.00    -0.032 NA
HETATM   19  O3  UNL     1      -9.204 -28.423 -24.904  1.00  0.00    -0.242 OA
ENDBRANCH  16  17
ENDBRANCH  15  16
ENDBRANCH  14  15
ENDBRANCH  12  14
BRANCH   1  20
HETATM   20  N1  UNL     1     -12.000 -26.656 -25.325  1.00  0.00    -0.383 N 
ATOM     21  H12 UNL     1     -11.751 -26.143 -24.480  1.00  0.00     0.157 HD
ATOM     22  H11 UNL     1     -11.302 -26.935 -26.014  1.00  0.00     0.157 HD
ENDBRANCH   1  20
TORSDOF 5
ENDMDL
MODEL 5
REMARK VINA RESULT: -6.225126910      1.162      2.346
REMARK  5 active torsions:
REMARK  status: ('A' for Active; 'I' for Inactive)
REMARK    1  A    between atoms: N1_1  and  C1_4 
REMARK    2  A    between atoms: N5_15  and  C5_16 
REMARK    3  A    between atoms: C5_16  and  C6_17 
REMARK    4  A    between atoms: C6_17  and  O2_18 
REMARK    5  A    between atoms: O2_18  and  C7_19 
ROOT
HETATM    1  C1  UNL     1     -12.263 -29.436 -25.367  1.00  0.00     0.134 A 
HETATM    2  N2  UNL     1     -11.096 -30.058 -25.118  1.00  0.00    -0.293 N 
ATOM      3  H2  UNL     1     -11.039 -30.765 -24.385  1.00  0.00     0.172 HD
HETATM    4  C2  UNL     1     -10.009 -29.744 -25.837  1.00  0.00     0.327 A 
HETATM    5  O1  UNL     1      -8.918 -30.325 -25.603  1.00  0.00    -0.247 OA
HETATM    6  N3  UNL     1     -10.121 -28.805 -26.796  1.00  0.00    -0.292 N 
ATOM      7  H3  UNL     1      -9.288 -28.572 -27.338  1.00  0.00     0.172 HD
HETATM    8  C3  UNL     1     -11.256 -28.159 -27.082  1.00  0.00     0.141 A 
HETATM    9  N4  UNL     1     -11.667 -27.216 -27.941  1.00  0.00    -0.336 N 
ATOM     10  H4  UNL     1     -11.081 -26.757 -28.637  1.00  0.00     0.168 HD
HETATM   11  C4  UNL     1     -12.964 -26.973 -27.743  1.00  0.00     0.185 A 
HETATM   12  N5  UNL     1     -13.432 -27.767 -26.730  1.00  0.00    -0.335 N 
HETATM   13  C8  UNL     1     -12.386 -28.478 -26.343  1.00  0.00     0.124 A 
ENDROOT
BRANCH  12  14
HETATM   14  C5  UNL     1     -14.783 -27.707 -26.306  1.00  0.00     0.157 C 
BRANCH  14  15
HETATM   15  C6  UNL     1     -15.648 -28.288 -27.409  1.00  0.00     0.200 C 
BRANCH  15  16
HETATM   16  O2  UNL     1     -16.799 -28.922 -26.978  1.00  0.00    -0.305 OA
BRANCH  16  17
HETATM   17  C7  UNL     1     -17.971 -29.101 -27.657  1.00  0.00     0.372 C 
HETATM   18  N6  UNL     1     -17.982 -30.048 -28.722  1.00  0.00    -0.032 NA
HETATM   19  O3  UNL     1     -18.967 -28.435 -27.318  1.00  0.00    -0.242 OA
ENDBRANCH  16  17
ENDBRANCH  15  16
ENDBRANCH  14  15
ENDBRANCH  12  14
BRANCH   1  20
HETATM   20  N1  UNL     1     -13.291 -29.741 -24.683  1.00  0.00    -0.383 N 
ATOM     21  H12 UNL     1     -13.889 -30.498 -25.014  1.00  0.00     0.157 HD
ATOM     22  H11 UNL     1     -13.492 -29.228 -23.825  1.00  0.00     0.157 HD
ENDBRANCH   1  20
TORSDOF 5
ENDMDL
