MODEL 1
REMARK VINA RESULT: -7.891045132      0.000      0.000
REMARK  18 active torsions:
REMARK  status: ('A' for Active; 'I' for Inactive)
REMARK    1  A    between atoms: N1_1  and  C1_5 
REMARK    2  A    between atoms: C1_5  and  C2_6 
REMARK    3  A    between atoms: C2_6  and  C3_7 
REMARK    4  A    between atoms: C3_7  and  C4_8 
REMARK    5  A    between atoms: C4_8  and  C5_9 
REMARK    6  A    between atoms: C5_9  and  C6_10 
REMARK    7  A    between atoms: C6_10  and  C7_11 
REMARK    8  A    between atoms: C7_11  and  C8_12 
REMARK    9  A    between atoms: C8_12  and  C9_13 
REMARK   10  A    between atoms: C9_13  and  C10_14 
REMARK   11  A    between atoms: C10_14  and  C11_15 
REMARK   12  A    between atoms: C11_15  and  C12_16 
REMARK   13  A    between atoms: C12_16  and  C13_17 
REMARK   14  A    between atoms: C13_17  and  C14_18 
REMARK   15  A    between atoms: C14_18  and  C15_19 
REMARK   16  A    between atoms: C15_19  and  N2_20 
REMARK   17  A    between atoms: N2_20  and  C16_23 
REMARK   18  A    between atoms: C16_23  and  C17_24 
ROOT
HETATM    1  C11 UNL     1     -15.825   0.900   3.744  1.00  0.00     0.000 C 
ENDROOT
BRANCH   1   2
HETATM    2  C10 UNL     1     -16.000   2.295   3.210  1.00  0.00     0.000 C 
BRANCH   2   3
HETATM    3  C9  UNL     1     -16.258   2.253   1.727  1.00  0.00     0.000 C 
BRANCH   3   4
HETATM    4  C8  UNL     1     -15.058   2.685   0.929  1.00  0.00     0.000 C 
BRANCH   4   5
HETATM    5  C7  UNL     1     -14.690   4.116   1.125  1.00  0.00     0.000 C 
BRANCH   5   6
HETATM    6  C6  UNL     1     -15.380   5.043   0.157  1.00  0.00     0.000 C 
BRANCH   6   7
HETATM    7  C5  UNL     1     -14.414   6.031  -0.448  1.00  0.00     0.000 C 
BRANCH   7   8
HETATM    8  C4  UNL     1     -14.043   5.711  -1.857  1.00  0.00     0.000 C 
BRANCH   8   9
HETATM    9  C3  UNL     1     -12.542   5.634  -2.042  1.00  0.00     0.002 C 
BRANCH   9  10
HETATM   10  C2  UNL     1     -12.071   4.201  -2.161  1.00  0.00     0.027 C 
BRANCH  10  11
HETATM   11  C1  UNL     1     -13.202   3.296  -2.560  1.00  0.00     0.229 C 
BRANCH  11  12
HETATM   12  N1  UNL     1     -12.884   2.635  -3.790  1.00  0.00    -0.079 N 
ATOM     13  H13 UNL     1     -13.355   3.063  -4.588  1.00  0.00     0.274 HD
ATOM     14  H12 UNL     1     -11.921   2.804  -4.079  1.00  0.00     0.274 HD
ATOM     15  H11 UNL     1     -13.091   1.640  -3.711  1.00  0.00     0.274 HD
ENDBRANCH  11  12
ENDBRANCH  10  11
ENDBRANCH   9  10
ENDBRANCH   8   9
ENDBRANCH   7   8
ENDBRANCH   6   7
ENDBRANCH   5   6
ENDBRANCH   4   5
ENDBRANCH   3   4
ENDBRANCH   2   3
ENDBRANCH   1   2
BRANCH   1  16
HETATM   16  C12 UNL     1     -17.069   0.335   4.342  1.00  0.00     0.000 C 
BRANCH  16  17
HETATM   17  C13 UNL     1     -16.706  -0.590   5.480  1.00  0.00     0.002 C 
BRANCH  17  18
HETATM   18  C14 UNL     1     -15.631  -1.575   5.142  1.00  0.00     0.027 C 
BRANCH  18  19
HETATM   19  C15 UNL     1     -16.253  -2.900   4.743  1.00  0.00     0.232 C 
BRANCH  19  20
HETATM   20  N2  UNL     1     -15.483  -4.004   5.226  1.00  0.00    -0.071 N 
ATOM     21  H22 UNL     1     -15.880  -4.897   4.932  1.00  0.00     0.277 HD
ATOM     22  H21 UNL     1     -14.582  -4.072   4.753  1.00  0.00     0.277 HD
BRANCH  20  23
HETATM   23  C16 UNL     1     -15.329  -3.937   6.649  1.00  0.00     0.270 C 
BRANCH  23  24
HETATM   24  C17 UNL     1     -13.933  -4.272   7.073  1.00  0.00    -0.033 A 
HETATM   25  C18 UNL     1     -12.849  -3.480   6.751  1.00  0.00     0.009 A 
HETATM   26  C19 UNL     1     -11.561  -3.809   7.155  1.00  0.00     0.001 A 
HETATM   27  C20 UNL     1     -11.339  -4.956   7.899  1.00  0.00     0.000 A 
HETATM   28  C21 UNL     1     -12.421  -5.759   8.228  1.00  0.00     0.001 A 
HETATM   29  C22 UNL     1     -13.693  -5.409   7.814  1.00  0.00     0.009 A 
ENDBRANCH  23  24
ENDBRANCH  20  23
ENDBRANCH  19  20
ENDBRANCH  18  19
ENDBRANCH  17  18
ENDBRANCH  16  17
ENDBRANCH   1  16
TORSDOF 18
ENDMDL
MODEL 2
REMARK VINA RESULT: -7.867658435      1.682     10.075
REMARK  18 active torsions:
REMARK  status: ('A' for Active; 'I' for Inactive)
REMARK    1  A    between atoms: N1_1  and  C1_5 
REMARK    2  A    between atoms: C1_5  and  C2_6 
REMARK    3  A    between atoms: C2_6  and  C3_7 
REMARK    4  A    between atoms: C3_7  and  C4_8 
REMARK    5  A    between atoms: C4_8  and  C5_9 
REMARK    6  A    between atoms: C5_9  and  C6_10 
REMARK    7  A    between atoms: C6_10  and  C7_11 
REMARK    8  A    between atoms: C7_11  and  C8_12 
REMARK    9  A    between atoms: C8_12  and  C9_13 
REMARK   10  A    between atoms: C9_13  and  C10_14 
REMARK   11  A    between atoms: C10_14  and  C11_15 
REMARK   12  A    between atoms: C11_15  and  C12_16 
REMARK   13  A    between atoms: C12_16  and  C13_17 
REMARK   14  A    between atoms: C13_17  and  C14_18 
REMARK   15  A    between atoms: C14_18  and  C15_19 
REMARK   16  A    between atoms: C15_19  and  N2_20 
REMARK   17  A    between atoms: N2_20  and  C16_23 
REMARK   18  A    between atoms: C16_23  and  C17_24 
ROOT
HETATM    1  C11 UNL     1     -16.226   2.169   2.105  1.00  0.00     0.000 C 
ENDROOT
BRANCH   1   2
HETATM    2  C10 UNL     1     -15.901   2.039   3.568  1.00  0.00     0.000 C 
BRANCH   2   3
HETATM    3  C9  UNL     1     -15.838   0.585   3.956  1.00  0.00     0.000 C 
BRANCH   3   4
HETATM    4  C8  UNL     1     -17.115   0.113   4.595  1.00  0.00     0.000 C 
BRANCH   4   5
HETATM    5  C7  UNL     1     -16.921  -0.983   5.587  1.00  0.00     0.000 C 
BRANCH   5   6
HETATM    6  C6  UNL     1     -15.752  -0.749   6.508  1.00  0.00     0.000 C 
BRANCH   6   7
HETATM    7  C5  UNL     1     -14.906  -1.988   6.657  1.00  0.00     0.000 C 
BRANCH   7   8
HETATM    8  C4  UNL     1     -14.688  -2.717   5.374  1.00  0.00     0.000 C 
BRANCH   8   9
HETATM    9  C3  UNL     1     -14.982  -4.196   5.509  1.00  0.00     0.002 C 
BRANCH   9  10
HETATM   10  C2  UNL     1     -14.341  -4.778   6.750  1.00  0.00     0.027 C 
BRANCH  10  11
HETATM   11  C1  UNL     1     -13.685  -6.096   6.447  1.00  0.00     0.229 C 
BRANCH  11  12
HETATM   12  N1  UNL     1     -13.832  -6.403   5.056  1.00  0.00    -0.079 N 
ATOM     13  H13 UNL     1     -14.402  -7.236   4.905  1.00  0.00     0.274 HD
ATOM     14  H12 UNL     1     -14.425  -5.728   4.574  1.00  0.00     0.274 HD
ATOM     15  H11 UNL     1     -12.913  -6.483   4.621  1.00  0.00     0.274 HD
ENDBRANCH  11  12
ENDBRANCH  10  11
ENDBRANCH   9  10
ENDBRANCH   8   9
ENDBRANCH   7   8
ENDBRANCH   6   7
ENDBRANCH   5   6
ENDBRANCH   4   5
ENDBRANCH   3   4
ENDBRANCH   2   3
ENDBRANCH   1   2
BRANCH   1  16
HETATM   16  C12 UNL     1     -15.050   2.540   1.267  1.00  0.00     0.000 C 
BRANCH  16  17
HETATM   17  C13 UNL     1     -14.894   4.043   1.253  1.00  0.00     0.002 C 
BRANCH  17  18
HETATM   18  C14 UNL     1     -15.414   4.695   0.011  1.00  0.00     0.027 C 
BRANCH  18  19
HETATM   19  C15 UNL     1     -14.603   5.940  -0.296  1.00  0.00     0.232 C 
BRANCH  19  20
HETATM   20  N2  UNL     1     -13.572   5.670  -1.249  1.00  0.00    -0.071 N 
ATOM     21  H22 UNL     1     -13.433   6.455  -1.885  1.00  0.00     0.277 HD
ATOM     22  H21 UNL     1     -12.650   5.658  -0.814  1.00  0.00     0.277 HD
BRANCH  20  23
HETATM   23  C16 UNL     1     -13.837   4.454  -1.958  1.00  0.00     0.270 C 
BRANCH  23  24
HETATM   24  C17 UNL     1     -12.679   3.509  -1.893  1.00  0.00    -0.033 A 
HETATM   25  C18 UNL     1     -12.041   3.195  -0.710  1.00  0.00     0.009 A 
HETATM   26  C19 UNL     1     -10.967   2.315  -0.671  1.00  0.00     0.001 A 
HETATM   27  C20 UNL     1     -10.510   1.728  -1.840  1.00  0.00     0.000 A 
HETATM   28  C21 UNL     1     -11.142   2.036  -3.034  1.00  0.00     0.001 A 
HETATM   29  C22 UNL     1     -12.209   2.915  -3.045  1.00  0.00     0.009 A 
ENDBRANCH  23  24
ENDBRANCH  20  23
ENDBRANCH  19  20
ENDBRANCH  18  19
ENDBRANCH  17  18
ENDBRANCH  16  17
ENDBRANCH   1  16
TORSDOF 18
ENDMDL
MODEL 3
REMARK VINA RESULT: -7.829265706      1.091      1.955
REMARK  18 active torsions:
REMARK  status: ('A' for Active; 'I' for Inactive)
REMARK    1  A    between atoms: N1_1  and  C1_5 
REMARK    2  A    between atoms: C1_5  and  C2_6 
REMARK    3  A    between atoms: C2_6  and  C3_7 
REMARK    4  A    between atoms: C3_7  and  C4_8 
REMARK    5  A    between atoms: C4_8  and  C5_9 
REMARK    6  A    between atoms: C5_9  and  C6_10 
REMARK    7  A    between atoms: C6_10  and  C7_11 
REMARK    8  A    between atoms: C7_11  and  C8_12 
REMARK    9  A    between atoms: C8_12  and  C9_13 
REMARK   10  A    between atoms: C9_13  and  C10_14 
REMARK   11  A    between atoms: C10_14  and  C11_15 
REMARK   12  A    between atoms: C11_15  and  C12_16 
REMARK   13  A    between atoms: C12_16  and  C13_17 
REMARK   14  A    between atoms: C13_17  and  C14_18 
REMARK   15  A    between atoms: C14_18  and  C15_19 
REMARK   16  A    between atoms: C15_19  and  N2_20 
REMARK   17  A    between atoms: N2_20  and  C16_23 
REMARK   18  A    between atoms: C16_23  and  C17_24 
ROOT
HETATM    1  C11 UNL     1     -15.535   2.139   2.174  1.00  0.00     0.000 C 
ENDROOT
BRANCH   1   2
HETATM    2  C10 UNL     1     -16.603   2.592   1.216  1.00  0.00     0.000 C 
BRANCH   2   3
HETATM    3  C9  UNL     1     -15.978   3.307   0.047  1.00  0.00     0.000 C 
BRANCH   3   4
HETATM    4  C8  UNL     1     -14.894   4.258   0.477  1.00  0.00     0.000 C 
BRANCH   4   5
HETATM    5  C7  UNL     1     -15.188   5.685   0.162  1.00  0.00     0.000 C 
BRANCH   5   6
HETATM    6  C6  UNL     1     -14.111   6.345  -0.660  1.00  0.00     0.000 C 
BRANCH   6   7
HETATM    7  C5  UNL     1     -13.853   5.594  -1.942  1.00  0.00     0.000 C 
BRANCH   7   8
HETATM    8  C4  UNL     1     -12.447   5.116  -2.078  1.00  0.00     0.000 C 
BRANCH   8   9
HETATM    9  C3  UNL     1     -12.383   3.644  -2.427  1.00  0.00     0.002 C 
BRANCH   9  10
HETATM   10  C2  UNL     1     -11.602   2.862  -1.394  1.00  0.00     0.027 C 
BRANCH  10  11
HETATM   11  C1  UNL     1     -10.597   1.959  -2.051  1.00  0.00     0.229 C 
BRANCH  11  12
HETATM   12  N1  UNL     1     -10.635   2.143  -3.471  1.00  0.00    -0.079 N 
ATOM     13  H13 UNL     1      -9.781   1.815  -3.923  1.00  0.00     0.274 HD
ATOM     14  H12 UNL     1     -11.294   1.509  -3.922  1.00  0.00     0.274 HD
ATOM     15  H11 UNL     1     -10.833   3.119  -3.688  1.00  0.00     0.274 HD
ENDBRANCH  11  12
ENDBRANCH  10  11
ENDBRANCH   9  10
ENDBRANCH   8   9
ENDBRANCH   7   8
ENDBRANCH   6   7
ENDBRANCH   5   6
ENDBRANCH   4   5
ENDBRANCH   3   4
ENDBRANCH   2   3
ENDBRANCH   1   2
BRANCH   1  16
HETATM   16  C12 UNL     1     -16.050   1.868   3.548  1.00  0.00     0.000 C 
BRANCH  16  17
HETATM   17  C13 UNL     1     -15.737   0.440   3.931  1.00  0.00     0.002 C 
BRANCH  17  18
HETATM   18  C14 UNL     1     -16.538  -0.067   5.089  1.00  0.00     0.027 C 
BRANCH  18  19
HETATM   19  C15 UNL     1     -16.479  -1.582   5.132  1.00  0.00     0.232 C 
BRANCH  19  20
HETATM   20  N2  UNL     1     -15.208  -2.042   5.601  1.00  0.00    -0.071 N 
ATOM     21  H22 UNL     1     -14.617  -2.361   4.833  1.00  0.00     0.277 HD
ATOM     22  H21 UNL     1     -14.627  -1.271   5.933  1.00  0.00     0.277 HD
BRANCH  20  23
HETATM   23  C16 UNL     1     -15.367  -3.053   6.602  1.00  0.00     0.270 C 
BRANCH  23  24
HETATM   24  C17 UNL     1     -14.055  -3.660   6.992  1.00  0.00    -0.033 A 
HETATM   25  C18 UNL     1     -13.965  -4.831   7.716  1.00  0.00     0.009 A 
HETATM   26  C19 UNL     1     -12.737  -5.378   8.069  1.00  0.00     0.001 A 
HETATM   27  C20 UNL     1     -11.563  -4.744   7.693  1.00  0.00     0.000 A 
HETATM   28  C21 UNL     1     -11.642  -3.567   6.966  1.00  0.00     0.001 A 
HETATM   29  C22 UNL     1     -12.877  -3.045   6.627  1.00  0.00     0.009 A 
ENDBRANCH  23  24
ENDBRANCH  20  23
ENDBRANCH  19  20
ENDBRANCH  18  19
ENDBRANCH  17  18
ENDBRANCH  16  17
ENDBRANCH   1  16
TORSDOF 18
ENDMDL
MODEL 4
REMARK VINA RESULT: -7.740783745      1.836     10.045
REMARK  18 active torsions:
REMARK  status: ('A' for Active; 'I' for Inactive)
REMARK    1  A    between atoms: N1_1  and  C1_5 
REMARK    2  A    between atoms: C1_5  and  C2_6 
REMARK    3  A    between atoms: C2_6  and  C3_7 
REMARK    4  A    between atoms: C3_7  and  C4_8 
REMARK    5  A    between atoms: C4_8  and  C5_9 
REMARK    6  A    between atoms: C5_9  and  C6_10 
REMARK    7  A    between atoms: C6_10  and  C7_11 
REMARK    8  A    between atoms: C7_11  and  C8_12 
REMARK    9  A    between atoms: C8_12  and  C9_13 
REMARK   10  A    between atoms: C9_13  and  C10_14 
REMARK   11  A    between atoms: C10_14  and  C11_15 
REMARK   12  A    between atoms: C11_15  and  C12_16 
REMARK   13  A    between atoms: C12_16  and  C13_17 
REMARK   14  A    between atoms: C13_17  and  C14_18 
REMARK   15  A    between atoms: C14_18  and  C15_19 
REMARK   16  A    between atoms: C15_19  and  N2_20 
REMARK   17  A    between atoms: N2_20  and  C16_23 
REMARK   18  A    between atoms: C16_23  and  C17_24 
ROOT
HETATM    1  C11 UNL     1     -15.182   3.196   1.732  1.00  0.00     0.000 C 
ENDROOT
BRANCH   1   2
HETATM    2  C10 UNL     1     -15.874   1.934   2.169  1.00  0.00     0.000 C 
BRANCH   2   3
HETATM    3  C9  UNL     1     -16.003   1.908   3.669  1.00  0.00     0.000 C 
BRANCH   3   4
HETATM    4  C8  UNL     1     -15.852   0.520   4.229  1.00  0.00     0.000 C 
BRANCH   4   5
HETATM    5  C7  UNL     1     -17.143  -0.112   4.624  1.00  0.00     0.000 C 
BRANCH   5   6
HETATM    6  C6  UNL     1     -17.178  -0.535   6.070  1.00  0.00     0.000 C 
BRANCH   6   7
HETATM    7  C5  UNL     1     -16.064   0.103   6.862  1.00  0.00     0.000 C 
BRANCH   7   8
HETATM    8  C4  UNL     1     -15.235  -0.879   7.620  1.00  0.00     0.000 C 
BRANCH   8   9
HETATM    9  C3  UNL     1     -15.545  -2.306   7.220  1.00  0.00     0.002 C 
BRANCH   9  10
HETATM   10  C2  UNL     1     -14.379  -2.946   6.499  1.00  0.00     0.027 C 
BRANCH  10  11
HETATM   11  C1  UNL     1     -14.595  -2.934   5.013  1.00  0.00     0.229 C 
BRANCH  11  12
HETATM   12  N1  UNL     1     -15.820  -3.604   4.694  1.00  0.00    -0.079 N 
ATOM     13  H13 UNL     1     -15.927  -3.751   3.690  1.00  0.00     0.274 HD
ATOM     14  H12 UNL     1     -15.809  -4.581   4.986  1.00  0.00     0.274 HD
ATOM     15  H11 UNL     1     -16.607  -3.094   5.093  1.00  0.00     0.274 HD
ENDBRANCH  11  12
ENDBRANCH  10  11
ENDBRANCH   9  10
ENDBRANCH   8   9
ENDBRANCH   7   8
ENDBRANCH   6   7
ENDBRANCH   5   6
ENDBRANCH   4   5
ENDBRANCH   3   4
ENDBRANCH   2   3
ENDBRANCH   1   2
BRANCH   1  16
HETATM   16  C12 UNL     1     -14.497   3.068   0.413  1.00  0.00     0.000 C 
BRANCH  16  17
HETATM   17  C13 UNL     1     -15.031   4.116  -0.535  1.00  0.00     0.002 C 
BRANCH  17  18
HETATM   18  C14 UNL     1     -14.960   5.512   0.000  1.00  0.00     0.027 C 
BRANCH  18  19
HETATM   19  C15 UNL     1     -14.199   6.398  -0.968  1.00  0.00     0.232 C 
BRANCH  19  20
HETATM   20  N2  UNL     1     -13.608   5.632  -2.022  1.00  0.00    -0.071 N 
ATOM     21  H22 UNL     1     -14.008   4.696  -2.076  1.00  0.00     0.277 HD
ATOM     22  H21 UNL     1     -13.890   5.975  -2.940  1.00  0.00     0.277 HD
BRANCH  20  23
HETATM   23  C16 UNL     1     -12.183   5.591  -1.887  1.00  0.00     0.270 C 
BRANCH  23  24
HETATM   24  C17 UNL     1     -11.647   4.207  -2.074  1.00  0.00    -0.033 A 
HETATM   25  C18 UNL     1     -12.251   3.282  -2.901  1.00  0.00     0.009 A 
HETATM   26  C19 UNL     1     -11.737   2.001  -3.062  1.00  0.00     0.001 A 
HETATM   27  C20 UNL     1     -10.590   1.624  -2.382  1.00  0.00     0.000 A 
HETATM   28  C21 UNL     1      -9.974   2.545  -1.548  1.00  0.00     0.001 A 
HETATM   29  C22 UNL     1     -10.506   3.814  -1.407  1.00  0.00     0.009 A 
ENDBRANCH  23  24
ENDBRANCH  20  23
ENDBRANCH  19  20
ENDBRANCH  18  19
ENDBRANCH  17  18
ENDBRANCH  16  17
ENDBRANCH   1  16
TORSDOF 18
ENDMDL
MODEL 5
REMARK VINA RESULT: -7.731901864      1.061      1.351
REMARK  18 active torsions:
REMARK  status: ('A' for Active; 'I' for Inactive)
REMARK    1  A    between atoms: N1_1  and  C1_5 
REMARK    2  A    between atoms: C1_5  and  C2_6 
REMARK    3  A    between atoms: C2_6  and  C3_7 
REMARK    4  A    between atoms: C3_7  and  C4_8 
REMARK    5  A    between atoms: C4_8  and  C5_9 
REMARK    6  A    between atoms: C5_9  and  C6_10 
REMARK    7  A    between atoms: C6_10  and  C7_11 
REMARK    8  A    between atoms: C7_11  and  C8_12 
REMARK    9  A    between atoms: C8_12  and  C9_13 
REMARK   10  A    between atoms: C9_13  and  C10_14 
REMARK   11  A    between atoms: C10_14  and  C11_15 
REMARK   12  A    between atoms: C11_15  and  C12_16 
REMARK   13  A    between atoms: C12_16  and  C13_17 
REMARK   14  A    between atoms: C13_17  and  C14_18 
REMARK   15  A    between atoms: C14_18  and  C15_19 
REMARK   16  A    between atoms: C15_19  and  N2_20 
REMARK   17  A    between atoms: N2_20  and  C16_23 
REMARK   18  A    between atoms: C16_23  and  C17_24 
ROOT
HETATM    1  C11 UNL     1     -15.815   1.801   3.383  1.00  0.00     0.000 C 
ENDROOT
BRANCH   1   2
HETATM    2  C10 UNL     1     -16.282   2.241   2.022  1.00  0.00     0.000 C 
BRANCH   2   3
HETATM    3  C9  UNL     1     -15.099   2.588   1.157  1.00  0.00     0.000 C 
BRANCH   3   4
HETATM    4  C8  UNL     1     -14.845   4.070   1.111  1.00  0.00     0.000 C 
BRANCH   4   5
HETATM    5  C7  UNL     1     -14.934   4.652  -0.258  1.00  0.00     0.000 C 
BRANCH   5   6
HETATM    6  C6  UNL     1     -14.514   6.098  -0.317  1.00  0.00     0.000 C 
BRANCH   6   7
HETATM    7  C5  UNL     1     -13.471   6.330  -1.380  1.00  0.00     0.000 C 
BRANCH   7   8
HETATM    8  C4  UNL     1     -13.234   5.141  -2.250  1.00  0.00     0.000 C 
BRANCH   8   9
HETATM    9  C3  UNL     1     -11.819   4.620  -2.118  1.00  0.00     0.002 C 
BRANCH   9  10
HETATM   10  C2  UNL     1     -11.790   3.250  -1.475  1.00  0.00     0.027 C 
BRANCH  10  11
HETATM   11  C1  UNL     1     -10.868   2.327  -2.219  1.00  0.00     0.229 C 
BRANCH  11  12
HETATM   12  N1  UNL     1     -11.078   2.464  -3.630  1.00  0.00    -0.079 N 
ATOM     13  H13 UNL     1     -11.591   1.673  -4.020  1.00  0.00     0.274 HD
ATOM     14  H12 UNL     1     -11.751   3.199  -3.847  1.00  0.00     0.274 HD
ATOM     15  H11 UNL     1     -10.185   2.612  -4.099  1.00  0.00     0.274 HD
ENDBRANCH  11  12
ENDBRANCH  10  11
ENDBRANCH   9  10
ENDBRANCH   8   9
ENDBRANCH   7   8
ENDBRANCH   6   7
ENDBRANCH   5   6
ENDBRANCH   4   5
ENDBRANCH   3   4
ENDBRANCH   2   3
ENDBRANCH   1   2
BRANCH   1  16
HETATM   16  C12 UNL     1     -16.663   0.731   3.983  1.00  0.00     0.000 C 
BRANCH  16  17
HETATM   17  C13 UNL     1     -15.783  -0.276   4.685  1.00  0.00     0.002 C 
BRANCH  17  18
HETATM   18  C14 UNL     1     -16.088  -0.437   6.142  1.00  0.00     0.027 C 
BRANCH  18  19
HETATM   19  C15 UNL     1     -16.458  -1.879   6.434  1.00  0.00     0.232 C 
BRANCH  19  20
HETATM   20  N2  UNL     1     -15.689  -2.406   7.518  1.00  0.00    -0.071 N 
ATOM     21  H22 UNL     1     -14.822  -1.886   7.651  1.00  0.00     0.277 HD
ATOM     22  H21 UNL     1     -16.125  -2.214   8.419  1.00  0.00     0.277 HD
BRANCH  20  23
HETATM   23  C16 UNL     1     -15.444  -3.806   7.338  1.00  0.00     0.270 C 
BRANCH  23  24
HETATM   24  C17 UNL     1     -13.990  -4.137   7.469  1.00  0.00    -0.033 A 
HETATM   25  C18 UNL     1     -13.002  -3.409   6.838  1.00  0.00     0.009 A 
HETATM   26  C19 UNL     1     -11.658  -3.733   6.973  1.00  0.00     0.001 A 
HETATM   27  C20 UNL     1     -11.281  -4.812   7.757  1.00  0.00     0.000 A 
HETATM   28  C21 UNL     1     -12.265  -5.551   8.395  1.00  0.00     0.001 A 
HETATM   29  C22 UNL     1     -13.595  -5.207   8.244  1.00  0.00     0.009 A 
ENDBRANCH  23  24
ENDBRANCH  20  23
ENDBRANCH  19  20
ENDBRANCH  18  19
ENDBRANCH  17  18
ENDBRANCH  16  17
ENDBRANCH   1  16
TORSDOF 18
ENDMDL
