MODEL 1
REMARK VINA RESULT: -7.468766186      0.000      0.000
REMARK  14 active torsions:
REMARK  status: ('A' for Active; 'I' for Inactive)
REMARK    1  A    between atoms: N1_1  and  C1_4 
REMARK    2  A    between atoms: C3_6  and  N2_7 
REMARK    3  A    between atoms: N2_7  and  C4_9 
REMARK    4  A    between atoms: C4_9  and  C5_10 
REMARK    5  A    between atoms: C5_10  and  O1_11 
REMARK    6  A    between atoms: O1_11  and  C6_12 
REMARK    7  A    between atoms: C6_12  and  C7_13 
REMARK    8  A    between atoms: C7_13  and  N3_14 
REMARK    9  A    between atoms: N3_14  and  C8_16 
REMARK   10  A    between atoms: C9_17  and  O2_18 
REMARK   11  A    between atoms: N4_20  and  O3_21 
REMARK   12  A    between atoms: C10_23  and  C11_24 
REMARK   13  A    between atoms: C11_24  and  O4_25 
REMARK   14  A    between atoms: C12_29  and  N6_30 
ROOT
HETATM    1  C4  UNL     1      35.691  53.284  18.418  1.00  0.00     0.147 C 
ENDROOT
BRANCH   1   2
HETATM    2  N2  UNL     1      35.673  52.459  19.585  1.00  0.00    -0.374 N 
ATOM      3  H2  UNL     1      36.245  52.738  20.382  1.00  0.00     0.161 HD
BRANCH   2   4
HETATM    4  C3  UNL     1      34.911  51.286  19.695  1.00  0.00     0.120 A 
HETATM    5  C2  UNL     1      34.308  50.903  20.873  1.00  0.00     0.097 A 
HETATM    6  C1  UNL     1      33.570  49.747  20.938  1.00  0.00     0.118 A 
HETATM    7  N7  UNL     1      33.407  48.951  19.870  1.00  0.00    -0.177 N 
HETATM    8  C12 UNL     1      34.002  49.336  18.726  1.00  0.00     0.678 A 
ATOM      9  H7  UNL     1      32.858  48.093  19.923  1.00  0.00     0.185 HD
HETATM   10  N5  UNL     1      34.729  50.462  18.629  1.00  0.00    -0.177 N 
ATOM     11  H5  UNL     1      35.156  50.704  17.735  1.00  0.00     0.185 HD
BRANCH   6  12
HETATM   12  N1  UNL     1      33.034  49.445  22.063  1.00  0.00    -0.385 N 
ATOM     13  H12 UNL     1      33.537  49.605  22.936  1.00  0.00     0.157 HD
ATOM     14  H11 UNL     1      32.097  49.043  22.049  1.00  0.00     0.157 HD
ENDBRANCH   6  12
BRANCH   8  15
HETATM   15  N6  UNL     1      33.839  48.561  17.698  1.00  0.00    -0.234 N 
ATOM     16  H62 UNL     1      32.908  48.167  17.567  1.00  0.00     0.174 HD
ATOM     17  H61 UNL     1      34.614  48.368  17.063  1.00  0.00     0.174 HD
ENDBRANCH   8  15
ENDBRANCH   2   4
ENDBRANCH   1   2
BRANCH   1  18
HETATM   18  C5  UNL     1      37.134  53.623  18.004  1.00  0.00     0.187 C 
BRANCH  18  19
HETATM   19  O1  UNL     1      37.113  53.643  16.620  1.00  0.00    -0.388 OA
BRANCH  19  20
HETATM   20  C6  UNL     1      36.799  54.858  16.102  1.00  0.00     0.186 C 
BRANCH  20  21
HETATM   21  C7  UNL     1      36.147  54.848  14.740  1.00  0.00     0.140 C 
BRANCH  21  22
HETATM   22  N3  UNL     1      34.832  54.265  14.838  1.00  0.00    -0.410 N 
ATOM     23  H3  UNL     1      34.273  54.326  15.688  1.00  0.00     0.153 HD
BRANCH  22  24
HETATM   24  C8  UNL     1      34.363  53.599  13.670  1.00  0.00     0.144 C 
HETATM   25  C9  UNL     1      32.908  53.347  13.500  1.00  0.00     0.242 C 
HETATM   26  N4  UNL     1      33.103  51.900  13.426  1.00  0.00    -0.160 NA
HETATM   27  C10 UNL     1      34.479  52.094  13.804  1.00  0.00     0.138 C 
BRANCH  25  28
HETATM   28  O2  UNL     1      32.097  53.706  14.573  1.00  0.00    -0.377 OA
ATOM     29  H2  UNL     1      31.712  54.574  14.532  1.00  0.00     0.211 HD
ENDBRANCH  25  28
BRANCH  26  30
HETATM   30  O3  UNL     1      32.886  51.352  12.224  1.00  0.00    -0.310 OA
ATOM     31  H3  UNL     1      33.546  50.735  11.933  1.00  0.00     0.237 HD
ENDBRANCH  26  30
BRANCH  27  32
HETATM   32  C11 UNL     1      34.744  51.571  15.185  1.00  0.00     0.188 C 
BRANCH  32  33
HETATM   33  O4  UNL     1      34.316  50.259  15.356  1.00  0.00    -0.399 OA
ATOM     34  H4  UNL     1      33.403  50.200  15.613  1.00  0.00     0.209 HD
ENDBRANCH  32  33
ENDBRANCH  27  32
ENDBRANCH  22  24
ENDBRANCH  21  22
ENDBRANCH  20  21
ENDBRANCH  19  20
ENDBRANCH  18  19
ENDBRANCH   1  18
TORSDOF 14
ENDMDL
MODEL 2
REMARK VINA RESULT: -7.427731720      1.418      1.973
REMARK  14 active torsions:
REMARK  status: ('A' for Active; 'I' for Inactive)
REMARK    1  A    between atoms: N1_1  and  C1_4 
REMARK    2  A    between atoms: C3_6  and  N2_7 
REMARK    3  A    between atoms: N2_7  and  C4_9 
REMARK    4  A    between atoms: C4_9  and  C5_10 
REMARK    5  A    between atoms: C5_10  and  O1_11 
REMARK    6  A    between atoms: O1_11  and  C6_12 
REMARK    7  A    between atoms: C6_12  and  C7_13 
REMARK    8  A    between atoms: C7_13  and  N3_14 
REMARK    9  A    between atoms: N3_14  and  C8_16 
REMARK   10  A    between atoms: C9_17  and  O2_18 
REMARK   11  A    between atoms: N4_20  and  O3_21 
REMARK   12  A    between atoms: C10_23  and  C11_24 
REMARK   13  A    between atoms: C11_24  and  O4_25 
REMARK   14  A    between atoms: C12_29  and  N6_30 
ROOT
HETATM    1  C4  UNL     1      35.248  53.683  17.964  1.00  0.00     0.147 C 
ENDROOT
BRANCH   1   2
HETATM    2  N2  UNL     1      34.879  53.718  19.344  1.00  0.00    -0.374 N 
ATOM      3  H2  UNL     1      34.808  54.627  19.801  1.00  0.00     0.161 HD
BRANCH   2   4
HETATM    4  C3  UNL     1      34.610  52.570  20.105  1.00  0.00     0.120 A 
HETATM    5  C2  UNL     1      35.375  51.428  20.018  1.00  0.00     0.097 A 
HETATM    6  C1  UNL     1      35.077  50.326  20.781  1.00  0.00     0.118 A 
HETATM    7  N7  UNL     1      34.041  50.315  21.633  1.00  0.00    -0.177 N 
HETATM    8  C12 UNL     1      33.302  51.436  21.709  1.00  0.00     0.678 A 
ATOM      9  H7  UNL     1      33.823  49.494  22.198  1.00  0.00     0.185 HD
HETATM   10  N5  UNL     1      33.567  52.532  20.976  1.00  0.00    -0.177 N 
ATOM     11  H5  UNL     1      32.972  53.354  21.077  1.00  0.00     0.185 HD
BRANCH   6  12
HETATM   12  N1  UNL     1      35.827  49.293  20.654  1.00  0.00    -0.385 N 
ATOM     13  H12 UNL     1      35.490  48.465  20.162  1.00  0.00     0.157 HD
ATOM     14  H11 UNL     1      36.761  49.333  21.060  1.00  0.00     0.157 HD
ENDBRANCH   6  12
BRANCH   8  15
HETATM   15  N6  UNL     1      32.302  51.418  22.536  1.00  0.00    -0.234 N 
ATOM     16  H62 UNL     1      32.296  52.135  23.261  1.00  0.00     0.174 HD
ATOM     17  H61 UNL     1      31.568  50.715  22.450  1.00  0.00     0.174 HD
ENDBRANCH   8  15
ENDBRANCH   2   4
ENDBRANCH   1   2
BRANCH   1  18
HETATM   18  C5  UNL     1      36.727  54.063  17.778  1.00  0.00     0.187 C 
BRANCH  18  19
HETATM   19  O1  UNL     1      36.977  53.876  16.429  1.00  0.00    -0.388 OA
BRANCH  19  20
HETATM   20  C6  UNL     1      36.837  55.007  15.692  1.00  0.00     0.186 C 
BRANCH  20  21
HETATM   21  C7  UNL     1      36.150  54.846  14.357  1.00  0.00     0.140 C 
BRANCH  21  22
HETATM   22  N3  UNL     1      34.839  54.279  14.553  1.00  0.00    -0.410 N 
ATOM     23  H3  UNL     1      34.338  54.363  15.438  1.00  0.00     0.153 HD
BRANCH  22  24
HETATM   24  C8  UNL     1      34.288  53.594  13.434  1.00  0.00     0.144 C 
HETATM   25  C9  UNL     1      32.827  53.327  13.379  1.00  0.00     0.242 C 
HETATM   26  N4  UNL     1      33.029  51.881  13.308  1.00  0.00    -0.160 NA
HETATM   27  C10 UNL     1      34.428  52.092  13.577  1.00  0.00     0.138 C 
BRANCH  25  28
HETATM   28  O2  UNL     1      32.097  53.693  14.507  1.00  0.00    -0.377 OA
ATOM     29  H2  UNL     1      31.684  52.984  14.984  1.00  0.00     0.211 HD
ENDBRANCH  25  28
BRANCH  26  30
HETATM   30  O3  UNL     1      32.725  51.316  12.133  1.00  0.00    -0.310 OA
ATOM     31  H3  UNL     1      32.847  50.375  12.090  1.00  0.00     0.237 HD
ENDBRANCH  26  30
BRANCH  27  32
HETATM   32  C11 UNL     1      34.803  51.588  14.939  1.00  0.00     0.188 C 
BRANCH  32  33
HETATM   33  O4  UNL     1      36.171  51.375  15.077  1.00  0.00    -0.399 OA
ATOM     34  H4  UNL     1      36.674  52.180  15.057  1.00  0.00     0.209 HD
ENDBRANCH  32  33
ENDBRANCH  27  32
ENDBRANCH  22  24
ENDBRANCH  21  22
ENDBRANCH  20  21
ENDBRANCH  19  20
ENDBRANCH  18  19
ENDBRANCH   1  18
TORSDOF 14
ENDMDL
MODEL 3
REMARK VINA RESULT: -7.350763590      1.359      1.525
REMARK  14 active torsions:
REMARK  status: ('A' for Active; 'I' for Inactive)
REMARK    1  A    between atoms: N1_1  and  C1_4 
REMARK    2  A    between atoms: C3_6  and  N2_7 
REMARK    3  A    between atoms: N2_7  and  C4_9 
REMARK    4  A    between atoms: C4_9  and  C5_10 
REMARK    5  A    between atoms: C5_10  and  O1_11 
REMARK    6  A    between atoms: O1_11  and  C6_12 
REMARK    7  A    between atoms: C6_12  and  C7_13 
REMARK    8  A    between atoms: C7_13  and  N3_14 
REMARK    9  A    between atoms: N3_14  and  C8_16 
REMARK   10  A    between atoms: C9_17  and  O2_18 
REMARK   11  A    between atoms: N4_20  and  O3_21 
REMARK   12  A    between atoms: C10_23  and  C11_24 
REMARK   13  A    between atoms: C11_24  and  O4_25 
REMARK   14  A    between atoms: C12_29  and  N6_30 
ROOT
HETATM    1  C4  UNL     1      35.670  53.762  18.338  1.00  0.00     0.147 C 
ENDROOT
BRANCH   1   2
HETATM    2  N2  UNL     1      35.034  52.483  18.362  1.00  0.00    -0.374 N 
ATOM      3  H2  UNL     1      34.772  52.058  17.472  1.00  0.00     0.161 HD
BRANCH   2   4
HETATM    4  C3  UNL     1      34.750  51.779  19.542  1.00  0.00     0.120 A 
HETATM    5  C2  UNL     1      33.666  52.077  20.338  1.00  0.00     0.097 A 
HETATM    6  C1  UNL     1      33.423  51.363  21.486  1.00  0.00     0.118 A 
HETATM    7  N7  UNL     1      34.222  50.357  21.876  1.00  0.00    -0.177 N 
HETATM    8  C12 UNL     1      35.276  50.077  21.089  1.00  0.00     0.678 A 
ATOM      9  H7  UNL     1      34.038  49.830  22.729  1.00  0.00     0.185 HD
HETATM   10  N5  UNL     1      35.541  50.756  19.959  1.00  0.00    -0.177 N 
ATOM     11  H5  UNL     1      36.356  50.498  19.403  1.00  0.00     0.185 HD
BRANCH   6  12
HETATM   12  N1  UNL     1      32.399  51.690  22.185  1.00  0.00    -0.385 N 
ATOM     13  H12 UNL     1      32.220  52.666  22.419  1.00  0.00     0.157 HD
ATOM     14  H11 UNL     1      31.778  50.941  22.493  1.00  0.00     0.157 HD
ENDBRANCH   6  12
BRANCH   8  15
HETATM   15  N6  UNL     1      36.043  49.103  21.472  1.00  0.00    -0.234 N 
ATOM     16  H62 UNL     1      35.868  48.191  21.049  1.00  0.00     0.174 HD
ATOM     17  H61 UNL     1      36.779  49.259  22.162  1.00  0.00     0.174 HD
ENDBRANCH   8  15
ENDBRANCH   2   4
ENDBRANCH   1   2
BRANCH   1  18
HETATM   18  C5  UNL     1      37.142  53.639  17.907  1.00  0.00     0.187 C 
BRANCH  18  19
HETATM   19  O1  UNL     1      37.110  53.641  16.522  1.00  0.00    -0.388 OA
BRANCH  19  20
HETATM   20  C6  UNL     1      36.808  54.854  15.991  1.00  0.00     0.186 C 
BRANCH  20  21
HETATM   21  C7  UNL     1      36.113  54.833  14.651  1.00  0.00     0.140 C 
BRANCH  21  22
HETATM   22  N3  UNL     1      34.845  54.158  14.774  1.00  0.00    -0.410 N 
ATOM     23  H3  UNL     1      34.319  54.146  15.648  1.00  0.00     0.153 HD
BRANCH  22  24
HETATM   24  C8  UNL     1      34.373  53.510  13.598  1.00  0.00     0.144 C 
HETATM   25  C9  UNL     1      32.915  53.292  13.411  1.00  0.00     0.242 C 
HETATM   26  N4  UNL     1      33.077  51.841  13.331  1.00  0.00    -0.160 NA
HETATM   27  C10 UNL     1      34.453  52.002  13.725  1.00  0.00     0.138 C 
BRANCH  25  28
HETATM   28  O2  UNL     1      32.100  53.664  14.477  1.00  0.00    -0.377 OA
ATOM     29  H2  UNL     1      31.457  54.338  14.294  1.00  0.00     0.211 HD
ENDBRANCH  25  28
BRANCH  26  30
HETATM   30  O3  UNL     1      32.860  51.305  12.124  1.00  0.00    -0.310 OA
ATOM     31  H3  UNL     1      32.950  51.903  11.391  1.00  0.00     0.237 HD
ENDBRANCH  26  30
BRANCH  27  32
HETATM   32  C11 UNL     1      34.691  51.465  15.105  1.00  0.00     0.188 C 
BRANCH  32  33
HETATM   33  O4  UNL     1      36.042  51.325  15.403  1.00  0.00    -0.399 OA
ATOM     34  H4  UNL     1      36.306  51.828  16.165  1.00  0.00     0.209 HD
ENDBRANCH  32  33
ENDBRANCH  27  32
ENDBRANCH  22  24
ENDBRANCH  21  22
ENDBRANCH  20  21
ENDBRANCH  19  20
ENDBRANCH  18  19
ENDBRANCH   1  18
TORSDOF 14
ENDMDL
MODEL 4
REMARK VINA RESULT: -7.214802818      2.391      4.847
REMARK  14 active torsions:
REMARK  status: ('A' for Active; 'I' for Inactive)
REMARK    1  A    between atoms: N1_1  and  C1_4 
REMARK    2  A    between atoms: C3_6  and  N2_7 
REMARK    3  A    between atoms: N2_7  and  C4_9 
REMARK    4  A    between atoms: C4_9  and  C5_10 
REMARK    5  A    between atoms: C5_10  and  O1_11 
REMARK    6  A    between atoms: O1_11  and  C6_12 
REMARK    7  A    between atoms: C6_12  and  C7_13 
REMARK    8  A    between atoms: C7_13  and  N3_14 
REMARK    9  A    between atoms: N3_14  and  C8_16 
REMARK   10  A    between atoms: C9_17  and  O2_18 
REMARK   11  A    between atoms: N4_20  and  O3_21 
REMARK   12  A    between atoms: C10_23  and  C11_24 
REMARK   13  A    between atoms: C11_24  and  O4_25 
REMARK   14  A    between atoms: C12_29  and  N6_30 
ROOT
HETATM    1  C4  UNL     1      33.655  48.767  17.514  1.00  0.00     0.147 C 
ENDROOT
BRANCH   1   2
HETATM    2  N2  UNL     1      34.453  48.442  18.654  1.00  0.00    -0.374 N 
ATOM      3  H2  UNL     1      35.000  47.581  18.629  1.00  0.00     0.161 HD
BRANCH   2   4
HETATM    4  C3  UNL     1      34.526  49.240  19.805  1.00  0.00     0.120 A 
HETATM    5  C2  UNL     1      33.415  49.829  20.368  1.00  0.00     0.097 A 
HETATM    6  C1  UNL     1      33.530  50.604  21.496  1.00  0.00     0.118 A 
HETATM    7  N7  UNL     1      34.714  50.818  22.090  1.00  0.00    -0.177 N 
HETATM    8  C12 UNL     1      35.791  50.238  21.530  1.00  0.00     0.678 A 
ATOM      9  H7  UNL     1      34.795  51.394  22.928  1.00  0.00     0.185 HD
HETATM   10  N5  UNL     1      35.712  49.473  20.427  1.00  0.00    -0.177 N 
ATOM     11  H5  UNL     1      36.563  49.058  20.047  1.00  0.00     0.185 HD
BRANCH   6  12
HETATM   12  N1  UNL     1      32.459  51.125  21.973  1.00  0.00    -0.385 N 
ATOM     13  H12 UNL     1      31.637  51.253  21.381  1.00  0.00     0.157 HD
ATOM     14  H11 UNL     1      32.463  51.403  22.954  1.00  0.00     0.157 HD
ENDBRANCH   6  12
BRANCH   8  15
HETATM   15  N6  UNL     1      36.932  50.449  22.110  1.00  0.00    -0.234 N 
ATOM     16  H62 UNL     1      37.749  50.502  21.503  1.00  0.00     0.174 HD
ATOM     17  H61 UNL     1      36.989  50.554  23.124  1.00  0.00     0.174 HD
ENDBRANCH   8  15
ENDBRANCH   2   4
ENDBRANCH   1   2
BRANCH   1  18
HETATM   18  C5  UNL     1      34.536  49.188  16.325  1.00  0.00     0.187 C 
BRANCH  18  19
HETATM   19  O1  UNL     1      34.526  50.572  16.346  1.00  0.00    -0.388 OA
BRANCH  19  20
HETATM   20  C6  UNL     1      35.046  51.133  15.224  1.00  0.00     0.186 C 
BRANCH  20  21
HETATM   21  C7  UNL     1      35.615  52.523  15.381  1.00  0.00     0.140 C 
BRANCH  21  22
HETATM   22  N3  UNL     1      36.214  52.655  16.686  1.00  0.00    -0.410 N 
ATOM     23  H3  UNL     1      36.326  51.860  17.315  1.00  0.00     0.153 HD
BRANCH  22  24
HETATM   24  C8  UNL     1      36.640  53.966  17.041  1.00  0.00     0.144 C 
HETATM   25  C9  UNL     1      38.030  54.185  17.521  1.00  0.00     0.242 C 
HETATM   26  N4  UNL     1      37.571  54.718  18.802  1.00  0.00    -0.160 NA
HETATM   27  C10 UNL     1      36.231  54.320  18.456  1.00  0.00     0.138 C 
BRANCH  25  28
HETATM   28  O2  UNL     1      38.806  53.040  17.684  1.00  0.00    -0.377 OA
ATOM     29  H2  UNL     1      38.341  52.256  17.949  1.00  0.00     0.211 HD
ENDBRANCH  25  28
BRANCH  26  30
HETATM   30  O3  UNL     1      37.776  56.028  18.985  1.00  0.00    -0.310 OA
ATOM     31  H3  UNL     1      37.673  56.336  19.877  1.00  0.00     0.237 HD
ENDBRANCH  26  30
BRANCH  27  32
HETATM   32  C11 UNL     1      35.762  53.182  19.314  1.00  0.00     0.188 C 
BRANCH  32  33
HETATM   33  O4  UNL     1      34.811  53.570  20.252  1.00  0.00    -0.399 OA
ATOM     34  H4  UNL     1      35.125  54.251  20.836  1.00  0.00     0.209 HD
ENDBRANCH  32  33
ENDBRANCH  27  32
ENDBRANCH  22  24
ENDBRANCH  21  22
ENDBRANCH  20  21
ENDBRANCH  19  20
ENDBRANCH  18  19
ENDBRANCH   1  18
TORSDOF 14
ENDMDL
MODEL 5
REMARK VINA RESULT: -7.140337447      2.654      6.324
REMARK  14 active torsions:
REMARK  status: ('A' for Active; 'I' for Inactive)
REMARK    1  A    between atoms: N1_1  and  C1_4 
REMARK    2  A    between atoms: C3_6  and  N2_7 
REMARK    3  A    between atoms: N2_7  and  C4_9 
REMARK    4  A    between atoms: C4_9  and  C5_10 
REMARK    5  A    between atoms: C5_10  and  O1_11 
REMARK    6  A    between atoms: O1_11  and  C6_12 
REMARK    7  A    between atoms: C6_12  and  C7_13 
REMARK    8  A    between atoms: C7_13  and  N3_14 
REMARK    9  A    between atoms: N3_14  and  C8_16 
REMARK   10  A    between atoms: C9_17  and  O2_18 
REMARK   11  A    between atoms: N4_20  and  O3_21 
REMARK   12  A    between atoms: C10_23  and  C11_24 
REMARK   13  A    between atoms: C11_24  and  O4_25 
REMARK   14  A    between atoms: C12_29  and  N6_30 
ROOT
HETATM    1  C4  UNL     1      35.855  51.462  15.193  1.00  0.00     0.147 C 
ENDROOT
BRANCH   1   2
HETATM    2  N2  UNL     1      35.605  52.839  15.481  1.00  0.00    -0.374 N 
ATOM      3  H2  UNL     1      35.265  53.435  14.726  1.00  0.00     0.161 HD
BRANCH   2   4
HETATM    4  C3  UNL     1      35.802  53.417  16.744  1.00  0.00     0.120 A 
HETATM    5  C2  UNL     1      36.775  54.363  16.981  1.00  0.00     0.097 A 
HETATM    6  C1  UNL     1      36.935  54.904  18.233  1.00  0.00     0.118 A 
HETATM    7  N7  UNL     1      36.160  54.538  19.266  1.00  0.00    -0.177 N 
HETATM    8  C12 UNL     1      35.215  53.613  19.021  1.00  0.00     0.678 A 
ATOM      9  H7  UNL     1      36.283  54.943  20.195  1.00  0.00     0.185 HD
HETATM   10  N5  UNL     1      35.032  53.065  17.807  1.00  0.00    -0.177 N 
ATOM     11  H5  UNL     1      34.298  52.369  17.681  1.00  0.00     0.185 HD
BRANCH   6  12
HETATM   12  N1  UNL     1      37.859  55.780  18.390  1.00  0.00    -0.385 N 
ATOM     13  H12 UNL     1      38.825  55.492  18.546  1.00  0.00     0.157 HD
ATOM     14  H11 UNL     1      37.590  56.763  18.353  1.00  0.00     0.157 HD
ENDBRANCH   6  12
BRANCH   8  15
HETATM   15  N6  UNL     1      34.469  53.266  20.025  1.00  0.00    -0.234 N 
ATOM     16  H62 UNL     1      33.477  53.131  19.831  1.00  0.00     0.174 HD
ATOM     17  H61 UNL     1      34.872  53.137  20.953  1.00  0.00     0.174 HD
ENDBRANCH   8  15
ENDBRANCH   2   4
ENDBRANCH   1   2
BRANCH   1  18
HETATM   18  C5  UNL     1      34.552  50.645  15.232  1.00  0.00     0.187 C 
BRANCH  18  19
HETATM   19  O1  UNL     1      34.547  50.041  16.478  1.00  0.00    -0.388 OA
BRANCH  19  20
HETATM   20  C6  UNL     1      34.172  48.737  16.445  1.00  0.00     0.186 C 
BRANCH  20  21
HETATM   21  C7  UNL     1      34.477  47.929  17.684  1.00  0.00     0.140 C 
BRANCH  21  22
HETATM   22  N3  UNL     1      34.664  48.816  18.805  1.00  0.00    -0.410 N 
ATOM     23  H3  UNL     1      35.526  49.343  18.942  1.00  0.00     0.153 HD
BRANCH  22  24
HETATM   24  C8  UNL     1      33.568  48.909  19.709  1.00  0.00     0.144 C 
HETATM   25  C9  UNL     1      32.661  50.084  19.648  1.00  0.00     0.242 C 
HETATM   26  N4  UNL     1      32.957  50.466  21.028  1.00  0.00    -0.160 NA
HETATM   27  C10 UNL     1      33.999  49.472  21.049  1.00  0.00     0.138 C 
BRANCH  25  28
HETATM   28  O2  UNL     1      33.017  51.085  18.747  1.00  0.00    -0.377 OA
ATOM     29  H2  UNL     1      32.910  50.873  17.827  1.00  0.00     0.211 HD
ENDBRANCH  25  28
BRANCH  26  30
HETATM   30  O3  UNL     1      31.954  50.296  21.898  1.00  0.00    -0.310 OA
ATOM     31  H3  UNL     1      31.764  51.045  22.451  1.00  0.00     0.237 HD
ENDBRANCH  26  30
BRANCH  27  32
HETATM   32  C11 UNL     1      35.357  50.107  21.094  1.00  0.00     0.188 C 
BRANCH  32  33
HETATM   33  O4  UNL     1      35.489  51.025  22.131  1.00  0.00    -0.399 OA
ATOM     34  H4  UNL     1      34.959  51.803  22.004  1.00  0.00     0.209 HD
ENDBRANCH  32  33
ENDBRANCH  27  32
ENDBRANCH  22  24
ENDBRANCH  21  22
ENDBRANCH  20  21
ENDBRANCH  19  20
ENDBRANCH  18  19
ENDBRANCH   1  18
TORSDOF 14
ENDMDL
