MODEL 1
REMARK VINA RESULT: -7.714928638      0.000      0.000
REMARK  12 active torsions:
REMARK  status: ('A' for Active; 'I' for Inactive)
REMARK    1  A    between atoms: C2_2  and  N1_3 
REMARK    2  A    between atoms: C2_2  and  C8_12 
REMARK       I    between atoms: N1_3  and  C3_5 
REMARK    3  A    between atoms: C3_5  and  O2_7 
REMARK    4  A    between atoms: O2_7  and  C4_8 
REMARK       I    between atoms: C8_12  and  N2_14 
REMARK    5  A    between atoms: C12_18  and  C13_19 
REMARK       I    between atoms: C13_19  and  N3_21 
REMARK    6  A    between atoms: N3_21  and  C14_23 
REMARK    7  A    between atoms: C14_23  and  C15_24 
REMARK    8  A    between atoms: C14_23  and  C20_29 
REMARK    9  A    between atoms: C15_24  and  C16_25 
REMARK   10  A    between atoms: C20_29  and  C22_31 
REMARK   11  A    between atoms: C22_31  and  O5_32 
REMARK   12  A    between atoms: N4_34  and  O6_36 
ROOT
HETATM    1  C13 UNL     1      28.260  27.252  17.316  1.00  0.00     0.245 C 
HETATM    2  O4  UNL     1      28.784  27.797  18.312  1.00  0.00    -0.271 OA
HETATM    3  N3  UNL     1      26.848  27.274  17.275  1.00  0.00    -0.325 N 
ATOM      4  H3  UNL     1      26.393  26.828  16.478  1.00  0.00     0.169 HD
ENDROOT
BRANCH   1   5
HETATM    5  C12 UNL     1      29.126  26.661  16.307  1.00  0.00     0.179 C 
HETATM    6  N2  UNL     1      29.090  25.218  16.211  1.00  0.00    -0.337 N 
HETATM    7  C8  UNL     1      29.546  24.341  17.226  1.00  0.00     0.243 C 
HETATM    8  C9  UNL     1      28.555  24.866  14.926  1.00  0.00     0.127 C 
HETATM    9  O3  UNL     1      29.915  24.858  18.346  1.00  0.00    -0.271 OA
HETATM   10  C10 UNL     1      28.676  26.074  14.009  1.00  0.00     0.022 C 
HETATM   11  C11 UNL     1      28.767  27.221  14.951  1.00  0.00     0.037 C 
BRANCH   7  12
HETATM   12  C2  UNL     1      29.651  22.875  17.147  1.00  0.00     0.175 C 
HETATM   13  C1  UNL     1      28.453  22.082  17.430  1.00  0.00     0.042 C 
BRANCH  12  14
HETATM   14  N1  UNL     1      30.864  22.453  17.827  1.00  0.00    -0.324 N 
HETATM   15  C3  UNL     1      32.175  22.527  17.323  1.00  0.00     0.362 C 
HETATM   16  O1  UNL     1      32.465  22.980  16.194  1.00  0.00    -0.238 OA
ATOM     17  H1  UNL     1      30.753  22.065  18.764  1.00  0.00     0.165 HD
BRANCH  15  18
HETATM   18  O2  UNL     1      33.229  22.076  18.107  1.00  0.00    -0.294 OA
BRANCH  18  19
HETATM   19  C4  UNL     1      33.674  22.674  19.297  1.00  0.00     0.061 C 
HETATM   20  C5  UNL     1      35.201  22.507  19.327  1.00  0.00     0.046 C 
HETATM   21  C6  UNL     1      33.370  24.142  19.346  1.00  0.00     0.046 C 
HETATM   22  C7  UNL     1      33.100  21.977  20.520  1.00  0.00     0.046 C 
ENDBRANCH  18  19
ENDBRANCH  15  18
ENDBRANCH  12  14
ENDBRANCH   7  12
ENDBRANCH   1   5
BRANCH   3  23
HETATM   23  C14 UNL     1      25.992  27.885  18.283  1.00  0.00     0.042 C 
BRANCH  23  24
HETATM   24  C15 UNL     1      25.472  26.961  19.274  1.00  0.00     0.012 C 
BRANCH  24  25
HETATM   25  C16 UNL     1      26.091  26.556  20.520  1.00  0.00    -0.032 C 
HETATM   26  C17 UNL     1      27.102  27.445  21.186  1.00  0.00     0.019 C 
HETATM   27  C18 UNL     1      25.155  26.089  21.611  1.00  0.00     0.019 C 
HETATM   28  C19 UNL     1      26.920  25.285  20.177  1.00  0.00     0.019 C 
ENDBRANCH  24  25
ENDBRANCH  23  24
BRANCH  23  29
HETATM   29  C20 UNL     1      25.160  28.979  17.711  1.00  0.00     0.017 C 
HETATM   30  C21 UNL     1      24.879  28.988  16.264  1.00  0.00     0.055 C 
BRANCH  29  31
HETATM   31  C22 UNL     1      24.062  29.379  18.606  1.00  0.00     0.168 C 
HETATM   32  N4  UNL     1      24.243  29.940  19.736  1.00  0.00    -0.247 N 
ATOM     33  H4  UNL     1      25.203  30.118  20.027  1.00  0.00     0.196 HD
BRANCH  31  34
HETATM   34  O5  UNL     1      22.714  29.160  18.241  1.00  0.00    -0.344 OA
ATOM     35  H5  UNL     1      22.285  28.335  18.435  1.00  0.00     0.219 HD
ENDBRANCH  31  34
BRANCH  32  36
HETATM   36  O6  UNL     1      23.235  30.323  20.592  1.00  0.00    -0.288 OA
ATOM     37  H6  UNL     1      22.323  30.422  20.343  1.00  0.00     0.244 HD
ENDBRANCH  32  36
ENDBRANCH  29  31
ENDBRANCH  23  29
ENDBRANCH   3  23
TORSDOF 12
ENDMDL
MODEL 2
REMARK VINA RESULT: -7.690626955      3.242      8.846
REMARK  12 active torsions:
REMARK  status: ('A' for Active; 'I' for Inactive)
REMARK    1  A    between atoms: C2_2  and  N1_3 
REMARK    2  A    between atoms: C2_2  and  C8_12 
REMARK       I    between atoms: N1_3  and  C3_5 
REMARK    3  A    between atoms: C3_5  and  O2_7 
REMARK    4  A    between atoms: O2_7  and  C4_8 
REMARK       I    between atoms: C8_12  and  N2_14 
REMARK    5  A    between atoms: C12_18  and  C13_19 
REMARK       I    between atoms: C13_19  and  N3_21 
REMARK    6  A    between atoms: N3_21  and  C14_23 
REMARK    7  A    between atoms: C14_23  and  C15_24 
REMARK    8  A    between atoms: C14_23  and  C20_29 
REMARK    9  A    between atoms: C15_24  and  C16_25 
REMARK   10  A    between atoms: C20_29  and  C22_31 
REMARK   11  A    between atoms: C22_31  and  O5_32 
REMARK   12  A    between atoms: N4_34  and  O6_36 
ROOT
HETATM    1  C13 UNL     1      26.716  27.162  19.185  1.00  0.00     0.245 C 
HETATM    2  O4  UNL     1      26.085  26.107  18.953  1.00  0.00    -0.271 OA
HETATM    3  N3  UNL     1      27.722  27.495  18.251  1.00  0.00    -0.325 N 
ATOM      4  H3  UNL     1      28.259  28.345  18.420  1.00  0.00     0.169 HD
ENDROOT
BRANCH   1   5
HETATM    5  C12 UNL     1      26.366  27.940  20.364  1.00  0.00     0.179 C 
HETATM    6  N2  UNL     1      24.963  28.251  20.523  1.00  0.00    -0.337 N 
HETATM    7  C8  UNL     1      24.232  29.098  19.654  1.00  0.00     0.243 C 
HETATM    8  C9  UNL     1      24.486  27.587  21.703  1.00  0.00     0.127 C 
HETATM    9  O3  UNL     1      24.826  29.532  18.598  1.00  0.00    -0.271 OA
HETATM   10  C10 UNL     1      25.684  27.222  22.566  1.00  0.00     0.022 C 
HETATM   11  C11 UNL     1      26.816  27.199  21.602  1.00  0.00     0.037 C 
BRANCH   7  12
HETATM   12  C2  UNL     1      22.842  29.552  19.824  1.00  0.00     0.175 C 
HETATM   13  C1  UNL     1      22.292  30.474  18.826  1.00  0.00     0.042 C 
BRANCH  12  14
HETATM   14  N1  UNL     1      22.636  29.926  21.212  1.00  0.00    -0.324 N 
HETATM   15  C3  UNL     1      21.460  29.747  21.961  1.00  0.00     0.362 C 
HETATM   16  O1  UNL     1      20.416  29.225  21.509  1.00  0.00    -0.238 OA
ATOM     17  H1  UNL     1      23.423  30.364  21.692  1.00  0.00     0.165 HD
BRANCH  15  18
HETATM   18  O2  UNL     1      21.428  30.165  23.286  1.00  0.00    -0.294 OA
BRANCH  18  19
HETATM   19  C4  UNL     1      21.954  29.455  24.377  1.00  0.00     0.061 C 
HETATM   20  C5  UNL     1      21.151  29.892  25.612  1.00  0.00     0.046 C 
HETATM   21  C6  UNL     1      21.794  27.971  24.224  1.00  0.00     0.046 C 
HETATM   22  C7  UNL     1      23.414  29.804  24.617  1.00  0.00     0.046 C 
ENDBRANCH  18  19
ENDBRANCH  15  18
ENDBRANCH  12  14
ENDBRANCH   7  12
ENDBRANCH   1   5
BRANCH   3  23
HETATM   23  C14 UNL     1      28.050  26.717  17.064  1.00  0.00     0.042 C 
BRANCH  23  24
HETATM   24  C15 UNL     1      29.024  25.663  17.283  1.00  0.00     0.012 C 
BRANCH  24  25
HETATM   25  C16 UNL     1      28.880  24.249  17.002  1.00  0.00    -0.032 C 
HETATM   26  C17 UNL     1      27.894  23.422  17.776  1.00  0.00     0.019 C 
HETATM   27  C18 UNL     1      28.701  23.870  15.550  1.00  0.00     0.019 C 
HETATM   28  C19 UNL     1      30.245  23.608  17.385  1.00  0.00     0.019 C 
ENDBRANCH  24  25
ENDBRANCH  23  24
BRANCH  23  29
HETATM   29  C20 UNL     1      28.062  27.560  15.837  1.00  0.00     0.017 C 
HETATM   30  C21 UNL     1      29.061  27.290  14.787  1.00  0.00     0.055 C 
BRANCH  29  31
HETATM   31  C22 UNL     1      26.708  27.925  15.391  1.00  0.00     0.168 C 
HETATM   32  N4  UNL     1      25.822  28.422  16.161  1.00  0.00    -0.247 N 
ATOM     33  H4  UNL     1      26.075  28.573  17.137  1.00  0.00     0.196 HD
BRANCH  31  34
HETATM   34  O5  UNL     1      26.315  27.741  14.046  1.00  0.00    -0.344 OA
ATOM     35  H5  UNL     1      26.542  26.948  13.576  1.00  0.00     0.219 HD
ENDBRANCH  31  34
BRANCH  32  36
HETATM   36  O6  UNL     1      24.549  28.770  15.769  1.00  0.00    -0.288 OA
ATOM     37  H6  UNL     1      24.023  29.447  16.179  1.00  0.00     0.244 HD
ENDBRANCH  32  36
ENDBRANCH  29  31
ENDBRANCH  23  29
ENDBRANCH   3  23
TORSDOF 12
ENDMDL
MODEL 3
REMARK VINA RESULT: -7.621943529      3.271      9.251
REMARK  12 active torsions:
REMARK  status: ('A' for Active; 'I' for Inactive)
REMARK    1  A    between atoms: C2_2  and  N1_3 
REMARK    2  A    between atoms: C2_2  and  C8_12 
REMARK       I    between atoms: N1_3  and  C3_5 
REMARK    3  A    between atoms: C3_5  and  O2_7 
REMARK    4  A    between atoms: O2_7  and  C4_8 
REMARK       I    between atoms: C8_12  and  N2_14 
REMARK    5  A    between atoms: C12_18  and  C13_19 
REMARK       I    between atoms: C13_19  and  N3_21 
REMARK    6  A    between atoms: N3_21  and  C14_23 
REMARK    7  A    between atoms: C14_23  and  C15_24 
REMARK    8  A    between atoms: C14_23  and  C20_29 
REMARK    9  A    between atoms: C15_24  and  C16_25 
REMARK   10  A    between atoms: C20_29  and  C22_31 
REMARK   11  A    between atoms: C22_31  and  O5_32 
REMARK   12  A    between atoms: N4_34  and  O6_36 
ROOT
HETATM    1  C13 UNL     1      26.717  27.183  19.220  1.00  0.00     0.245 C 
HETATM    2  O4  UNL     1      26.054  26.148  18.989  1.00  0.00    -0.271 OA
HETATM    3  N3  UNL     1      27.720  27.495  18.276  1.00  0.00    -0.325 N 
ATOM      4  H3  UNL     1      28.284  28.328  18.445  1.00  0.00     0.169 HD
ENDROOT
BRANCH   1   5
HETATM    5  C12 UNL     1      26.405  27.961  20.410  1.00  0.00     0.179 C 
HETATM    6  N2  UNL     1      25.013  28.310  20.589  1.00  0.00    -0.337 N 
HETATM    7  C8  UNL     1      24.296  29.185  19.736  1.00  0.00     0.243 C 
HETATM    8  C9  UNL     1      24.532  27.651  21.770  1.00  0.00     0.127 C 
HETATM    9  O3  UNL     1      24.888  29.610  18.676  1.00  0.00    -0.271 OA
HETATM   10  C10 UNL     1      25.731  27.245  22.615  1.00  0.00     0.022 C 
HETATM   11  C11 UNL     1      26.849  27.198  21.636  1.00  0.00     0.037 C 
BRANCH   7  12
HETATM   12  C2  UNL     1      22.922  29.677  19.927  1.00  0.00     0.175 C 
HETATM   13  C1  UNL     1      22.246  30.295  18.783  1.00  0.00     0.042 C 
BRANCH  12  14
HETATM   14  N1  UNL     1      22.856  30.417  21.175  1.00  0.00    -0.324 N 
HETATM   15  C3  UNL     1      21.843  30.332  22.147  1.00  0.00     0.362 C 
HETATM   16  O1  UNL     1      20.845  29.583  22.051  1.00  0.00    -0.238 OA
ATOM     17  H1  UNL     1      23.622  31.063  21.366  1.00  0.00     0.165 HD
BRANCH  15  18
HETATM   18  O2  UNL     1      21.932  31.114  23.291  1.00  0.00    -0.294 OA
BRANCH  18  19
HETATM   19  C4  UNL     1      21.737  32.504  23.345  1.00  0.00     0.061 C 
HETATM   20  C5  UNL     1      20.998  32.792  24.661  1.00  0.00     0.046 C 
HETATM   21  C6  UNL     1      23.031  33.262  23.367  1.00  0.00     0.046 C 
HETATM   22  C7  UNL     1      20.863  32.989  22.199  1.00  0.00     0.046 C 
ENDBRANCH  18  19
ENDBRANCH  15  18
ENDBRANCH  12  14
ENDBRANCH   7  12
ENDBRANCH   1   5
BRANCH   3  23
HETATM   23  C14 UNL     1      28.012  26.717  17.079  1.00  0.00     0.042 C 
BRANCH  23  24
HETATM   24  C15 UNL     1      28.970  25.644  17.274  1.00  0.00     0.012 C 
BRANCH  24  25
HETATM   25  C16 UNL     1      28.791  24.233  16.998  1.00  0.00    -0.032 C 
HETATM   26  C17 UNL     1      27.775  23.436  17.764  1.00  0.00     0.019 C 
HETATM   27  C18 UNL     1      28.619  23.853  15.545  1.00  0.00     0.019 C 
HETATM   28  C19 UNL     1      30.135  23.558  17.399  1.00  0.00     0.019 C 
ENDBRANCH  24  25
ENDBRANCH  23  24
BRANCH  23  29
HETATM   29  C20 UNL     1      28.015  27.566  15.856  1.00  0.00     0.017 C 
HETATM   30  C21 UNL     1      28.997  27.292  14.792  1.00  0.00     0.055 C 
BRANCH  29  31
HETATM   31  C22 UNL     1      26.658  27.946  15.430  1.00  0.00     0.168 C 
HETATM   32  N4  UNL     1      25.786  28.443  16.216  1.00  0.00    -0.247 N 
ATOM     33  H4  UNL     1      26.052  28.582  17.190  1.00  0.00     0.196 HD
BRANCH  31  34
HETATM   34  O5  UNL     1      26.248  27.780  14.088  1.00  0.00    -0.344 OA
ATOM     35  H5  UNL     1      26.854  27.928  13.372  1.00  0.00     0.219 HD
ENDBRANCH  31  34
BRANCH  32  36
HETATM   36  O6  UNL     1      24.511  28.805  15.844  1.00  0.00    -0.288 OA
ATOM     37  H6  UNL     1      23.747  28.245  15.916  1.00  0.00     0.244 HD
ENDBRANCH  32  36
ENDBRANCH  29  31
ENDBRANCH  23  29
ENDBRANCH   3  23
TORSDOF 12
ENDMDL
MODEL 4
REMARK VINA RESULT: -7.545257734      4.091      9.469
REMARK  12 active torsions:
REMARK  status: ('A' for Active; 'I' for Inactive)
REMARK    1  A    between atoms: C2_2  and  N1_3 
REMARK    2  A    between atoms: C2_2  and  C8_12 
REMARK       I    between atoms: N1_3  and  C3_5 
REMARK    3  A    between atoms: C3_5  and  O2_7 
REMARK    4  A    between atoms: O2_7  and  C4_8 
REMARK       I    between atoms: C8_12  and  N2_14 
REMARK    5  A    between atoms: C12_18  and  C13_19 
REMARK       I    between atoms: C13_19  and  N3_21 
REMARK    6  A    between atoms: N3_21  and  C14_23 
REMARK    7  A    between atoms: C14_23  and  C15_24 
REMARK    8  A    between atoms: C14_23  and  C20_29 
REMARK    9  A    between atoms: C15_24  and  C16_25 
REMARK   10  A    between atoms: C20_29  and  C22_31 
REMARK   11  A    between atoms: C22_31  and  O5_32 
REMARK   12  A    between atoms: N4_34  and  O6_36 
ROOT
HETATM    1  C13 UNL     1      25.381  27.320  20.457  1.00  0.00     0.245 C 
HETATM    2  O4  UNL     1      25.154  26.192  19.966  1.00  0.00    -0.271 OA
HETATM    3  N3  UNL     1      25.919  28.280  19.572  1.00  0.00    -0.325 N 
ATOM      4  H3  UNL     1      26.123  29.206  19.948  1.00  0.00     0.169 HD
ENDROOT
BRANCH   1   5
HETATM    5  C12 UNL     1      25.075  27.545  21.863  1.00  0.00     0.179 C 
HETATM    6  N2  UNL     1      23.671  27.651  22.194  1.00  0.00    -0.337 N 
HETATM    7  C8  UNL     1      22.830  28.707  21.764  1.00  0.00     0.243 C 
HETATM    8  C9  UNL     1      23.322  26.542  23.037  1.00  0.00     0.127 C 
HETATM    9  O3  UNL     1      23.318  29.566  20.939  1.00  0.00    -0.271 OA
HETATM   10  C10 UNL     1      24.601  25.970  23.630  1.00  0.00     0.022 C 
HETATM   11  C11 UNL     1      25.657  26.419  22.685  1.00  0.00     0.037 C 
BRANCH   7  12
HETATM   12  C2  UNL     1      21.432  28.942  22.161  1.00  0.00     0.175 C 
HETATM   13  C1  UNL     1      20.564  29.668  21.230  1.00  0.00     0.042 C 
BRANCH  12  14
HETATM   14  N1  UNL     1      21.406  29.402  23.539  1.00  0.00    -0.324 N 
HETATM   15  C3  UNL     1      20.511  28.989  24.542  1.00  0.00     0.362 C 
HETATM   16  O1  UNL     1      19.601  28.148  24.364  1.00  0.00    -0.238 OA
ATOM     17  H1  UNL     1      22.107  30.093  23.806  1.00  0.00     0.165 HD
BRANCH  15  18
HETATM   18  O2  UNL     1      20.622  29.532  25.816  1.00  0.00    -0.294 OA
BRANCH  18  19
HETATM   19  C4  UNL     1      21.646  29.249  26.736  1.00  0.00     0.061 C 
HETATM   20  C5  UNL     1      20.975  29.130  28.113  1.00  0.00     0.046 C 
HETATM   21  C6  UNL     1      22.333  27.949  26.443  1.00  0.00     0.046 C 
HETATM   22  C7  UNL     1      22.662  30.378  26.802  1.00  0.00     0.046 C 
ENDBRANCH  18  19
ENDBRANCH  15  18
ENDBRANCH  12  14
ENDBRANCH   7  12
ENDBRANCH   1   5
BRANCH   3  23
HETATM   23  C14 UNL     1      26.205  28.048  18.162  1.00  0.00     0.042 C 
BRANCH  23  24
HETATM   24  C15 UNL     1      27.601  27.787  17.863  1.00  0.00     0.012 C 
BRANCH  24  25
HETATM   25  C16 UNL     1      28.219  26.515  17.549  1.00  0.00    -0.032 C 
HETATM   26  C17 UNL     1      27.423  25.245  17.642  1.00  0.00     0.019 C 
HETATM   27  C18 UNL     1      28.977  26.444  16.244  1.00  0.00     0.019 C 
HETATM   28  C19 UNL     1      29.322  26.311  18.627  1.00  0.00     0.019 C 
ENDBRANCH  24  25
ENDBRANCH  23  24
BRANCH  23  29
HETATM   29  C20 UNL     1      25.354  28.894  17.280  1.00  0.00     0.017 C 
HETATM   30  C21 UNL     1      25.512  28.797  15.818  1.00  0.00     0.055 C 
BRANCH  29  31
HETATM   31  C22 UNL     1      23.982  29.040  17.794  1.00  0.00     0.168 C 
HETATM   32  N4  UNL     1      23.391  30.163  17.914  1.00  0.00    -0.247 N 
ATOM     33  H4  UNL     1      23.903  31.000  17.636  1.00  0.00     0.196 HD
BRANCH  31  34
HETATM   34  O5  UNL     1      23.231  27.909  18.184  1.00  0.00    -0.344 OA
ATOM     35  H5  UNL     1      23.197  27.637  19.094  1.00  0.00     0.219 HD
ENDBRANCH  31  34
BRANCH  32  36
HETATM   36  O6  UNL     1      22.111  30.328  18.393  1.00  0.00    -0.288 OA
ATOM     37  H6  UNL     1      21.343  29.889  18.046  1.00  0.00     0.244 HD
ENDBRANCH  32  36
ENDBRANCH  29  31
ENDBRANCH  23  29
ENDBRANCH   3  23
TORSDOF 12
ENDMDL
MODEL 5
REMARK VINA RESULT: -7.544206446      4.157      9.916
REMARK  12 active torsions:
REMARK  status: ('A' for Active; 'I' for Inactive)
REMARK    1  A    between atoms: C2_2  and  N1_3 
REMARK    2  A    between atoms: C2_2  and  C8_12 
REMARK       I    between atoms: N1_3  and  C3_5 
REMARK    3  A    between atoms: C3_5  and  O2_7 
REMARK    4  A    between atoms: O2_7  and  C4_8 
REMARK       I    between atoms: C8_12  and  N2_14 
REMARK    5  A    between atoms: C12_18  and  C13_19 
REMARK       I    between atoms: C13_19  and  N3_21 
REMARK    6  A    between atoms: N3_21  and  C14_23 
REMARK    7  A    between atoms: C14_23  and  C15_24 
REMARK    8  A    between atoms: C14_23  and  C20_29 
REMARK    9  A    between atoms: C15_24  and  C16_25 
REMARK   10  A    between atoms: C20_29  and  C22_31 
REMARK   11  A    between atoms: C22_31  and  O5_32 
REMARK   12  A    between atoms: N4_34  and  O6_36 
ROOT
HETATM    1  C13 UNL     1      25.193  27.204  20.648  1.00  0.00     0.245 C 
HETATM    2  O4  UNL     1      24.958  26.105  20.099  1.00  0.00    -0.271 OA
HETATM    3  N3  UNL     1      25.768  28.194  19.821  1.00  0.00    -0.325 N 
ATOM      4  H3  UNL     1      25.979  29.098  20.245  1.00  0.00     0.169 HD
ENDROOT
BRANCH   1   5
HETATM    5  C12 UNL     1      24.860  27.367  22.056  1.00  0.00     0.179 C 
HETATM    6  N2  UNL     1      23.449  27.441  22.366  1.00  0.00    -0.337 N 
HETATM    7  C8  UNL     1      22.601  28.502  21.964  1.00  0.00     0.243 C 
HETATM    8  C9  UNL     1      23.101  26.295  23.157  1.00  0.00     0.127 C 
HETATM    9  O3  UNL     1      23.090  29.401  21.183  1.00  0.00    -0.271 OA
HETATM   10  C10 UNL     1      24.377  25.716  23.750  1.00  0.00     0.022 C 
HETATM   11  C11 UNL     1      25.444  26.217  22.843  1.00  0.00     0.037 C 
BRANCH   7  12
HETATM   12  C2  UNL     1      21.193  28.702  22.345  1.00  0.00     0.175 C 
HETATM   13  C1  UNL     1      20.333  27.521  22.449  1.00  0.00     0.042 C 
BRANCH  12  14
HETATM   14  N1  UNL     1      20.652  29.814  21.582  1.00  0.00    -0.324 N 
HETATM   15  C3  UNL     1      20.139  31.015  22.102  1.00  0.00     0.362 C 
HETATM   16  O1  UNL     1      20.085  31.281  23.324  1.00  0.00    -0.238 OA
ATOM     17  H1  UNL     1      20.644  29.713  20.567  1.00  0.00     0.165 HD
BRANCH  15  18
HETATM   18  O2  UNL     1      19.655  31.981  21.229  1.00  0.00    -0.294 OA
BRANCH  18  19
HETATM   19  C4  UNL     1      20.322  33.166  20.874  1.00  0.00     0.061 C 
HETATM   20  C5  UNL     1      19.562  33.753  19.675  1.00  0.00     0.046 C 
HETATM   21  C6  UNL     1      20.303  34.183  21.976  1.00  0.00     0.046 C 
HETATM   22  C7  UNL     1      21.752  32.891  20.436  1.00  0.00     0.046 C 
ENDBRANCH  18  19
ENDBRANCH  15  18
ENDBRANCH  12  14
ENDBRANCH   7  12
ENDBRANCH   1   5
BRANCH   3  23
HETATM   23  C14 UNL     1      26.081  28.025  18.408  1.00  0.00     0.042 C 
BRANCH  23  24
HETATM   24  C15 UNL     1      27.485  27.788  18.125  1.00  0.00     0.012 C 
BRANCH  24  25
HETATM   25  C16 UNL     1      28.094  26.581  17.605  1.00  0.00    -0.032 C 
HETATM   26  C17 UNL     1      27.367  25.270  17.693  1.00  0.00     0.019 C 
HETATM   27  C18 UNL     1      28.650  26.663  16.202  1.00  0.00     0.019 C 
HETATM   28  C19 UNL     1      29.353  26.338  18.487  1.00  0.00     0.019 C 
ENDBRANCH  24  25
ENDBRANCH  23  24
BRANCH  23  29
HETATM   29  C20 UNL     1      25.238  28.899  17.548  1.00  0.00     0.017 C 
HETATM   30  C21 UNL     1      25.524  28.980  16.104  1.00  0.00     0.055 C 
BRANCH  29  31
HETATM   31  C22 UNL     1      23.821  28.886  17.947  1.00  0.00     0.168 C 
HETATM   32  N4  UNL     1      23.159  29.937  18.231  1.00  0.00    -0.247 N 
ATOM     33  H4  UNL     1      23.645  30.832  18.175  1.00  0.00     0.196 HD
BRANCH  31  34
HETATM   34  O5  UNL     1      23.104  27.671  18.030  1.00  0.00    -0.344 OA
ATOM     35  H5  UNL     1      22.374  27.577  18.631  1.00  0.00     0.219 HD
ENDBRANCH  31  34
BRANCH  32  36
HETATM   36  O6  UNL     1      21.835  29.952  18.608  1.00  0.00    -0.288 OA
ATOM     37  H6  UNL     1      21.519  29.747  19.480  1.00  0.00     0.244 HD
ENDBRANCH  32  36
ENDBRANCH  29  31
ENDBRANCH  23  29
ENDBRANCH   3  23
TORSDOF 12
ENDMDL
