MODEL 1
REMARK VINA RESULT: -8.991531862      0.000      0.000
REMARK  13 active torsions:
REMARK  status: ('A' for Active; 'I' for Inactive)
REMARK    1  A    between atoms: O1_1  and  C1_3 
REMARK    2  A    between atoms: C1_3  and  C2_4 
REMARK    3  A    between atoms: C3_6  and  C4_7 
REMARK    4  A    between atoms: C4_7  and  O3_8 
REMARK    5  A    between atoms: O3_8  and  C5_9 
REMARK    6  A    between atoms: C5_9  and  C6_10 
REMARK    7  A    between atoms: C9_13  and  C10_14 
REMARK    8  A    between atoms: C11_15  and  C12_16 
REMARK    9  A    between atoms: C15_19  and  O4_20 
REMARK   10  A    between atoms: O4_20  and  C16_21 
REMARK   11  A    between atoms: C26_31  and  O5_32 
REMARK   12  A    between atoms: C27_34  and  O6_35 
REMARK   13  A    between atoms: C28_37  and  O7_38 
ROOT
HETATM    1  C6  UNL     1      24.334  26.137  25.833  1.00  0.00    -0.035 A 
HETATM    2  C7  UNL     1      23.718  25.352  24.897  1.00  0.00     0.011 A 
HETATM    3  C8  UNL     1      24.248  25.372  23.615  1.00  0.00     0.021 A 
HETATM    4  C9  UNL     1      25.339  26.132  23.258  1.00  0.00     0.018 A 
HETATM    5  C24 UNL     1      25.933  26.912  24.233  1.00  0.00     0.021 A 
HETATM    6  C25 UNL     1      25.423  26.914  25.538  1.00  0.00     0.011 A 
ENDROOT
BRANCH   1   7
HETATM    7  C5  UNL     1      23.836  26.189  27.261  1.00  0.00     0.206 C 
BRANCH   7   8
HETATM    8  O3  UNL     1      24.050  25.018  27.908  1.00  0.00    -0.384 OA
BRANCH   8   9
HETATM    9  C4  UNL     1      25.287  24.914  28.470  1.00  0.00     0.202 C 
BRANCH   9  10
HETATM   10  C3  UNL     1      26.211  23.857  28.017  1.00  0.00     0.177 C 
HETATM   11  O2  UNL     1      26.789  24.103  26.810  1.00  0.00    -0.371 OA
HETATM   12  C2  UNL     1      27.692  23.172  26.384  1.00  0.00     0.177 C 
HETATM   13  C28 UNL     1      27.248  21.754  26.495  1.00  0.00     0.180 C 
HETATM   14  C27 UNL     1      26.376  21.458  27.665  1.00  0.00     0.180 C 
HETATM   15  C26 UNL     1      25.374  22.580  27.827  1.00  0.00     0.180 C 
BRANCH  12  16
HETATM   16  C1  UNL     1      29.067  23.333  27.040  1.00  0.00     0.198 C 
BRANCH  16  17
HETATM   17  O1  UNL     1      29.832  24.245  26.296  1.00  0.00    -0.398 OA
ATOM     18  H1  UNL     1      30.009  25.013  26.827  1.00  0.00     0.209 HD
ENDBRANCH  16  17
ENDBRANCH  12  16
BRANCH  13  19
HETATM   19  O7  UNL     1      28.409  20.961  26.625  1.00  0.00    -0.390 OA
ATOM     20  H7  UNL     1      28.251  20.346  27.332  1.00  0.00     0.210 HD
ENDBRANCH  13  19
BRANCH  14  21
HETATM   21  O6  UNL     1      27.043  21.237  28.844  1.00  0.00    -0.390 OA
ATOM     22  H6  UNL     1      27.569  20.447  28.785  1.00  0.00     0.210 HD
ENDBRANCH  14  21
BRANCH  15  23
HETATM   23  O5  UNL     1      24.679  22.674  26.610  1.00  0.00    -0.390 OA
ATOM     24  H5  UNL     1      25.134  22.154  25.958  1.00  0.00     0.210 HD
ENDBRANCH  15  23
ENDBRANCH   9  10
ENDBRANCH   8   9
ENDBRANCH   7   8
ENDBRANCH   1   7
BRANCH   4  25
HETATM   25  C10 UNL     1      25.868  26.134  21.924  1.00  0.00    -0.061 C 
HETATM   26  C11 UNL     1      26.331  26.146  20.806  1.00  0.00    -0.061 C 
BRANCH  26  27
HETATM   27  C12 UNL     1      26.871  26.181  19.461  1.00  0.00     0.018 A 
HETATM   28  C13 UNL     1      27.118  27.364  18.806  1.00  0.00     0.023 A 
HETATM   29  C14 UNL     1      27.636  27.336  17.513  1.00  0.00     0.039 A 
HETATM   30  C15 UNL     1      27.907  26.142  16.877  1.00  0.00     0.076 A 
HETATM   31  C22 UNL     1      27.660  24.948  17.530  1.00  0.00     0.039 A 
HETATM   32  C23 UNL     1      27.142  24.992  18.821  1.00  0.00     0.023 A 
BRANCH  30  33
HETATM   33  O4  UNL     1      28.423  26.067  15.590  1.00  0.00    -0.311 OA
BRANCH  33  34
HETATM   34  C16 UNL     1      29.584  25.373  15.324  1.00  0.00     0.076 A 
HETATM   35  C17 UNL     1      30.751  25.541  16.035  1.00  0.00     0.037 A 
HETATM   36  C18 UNL     1      31.857  24.797  15.690  1.00  0.00     0.003 A 
HETATM   37  C19 UNL     1      31.851  23.882  14.653  1.00  0.00     0.000 A 
HETATM   38  C20 UNL     1      30.682  23.711  13.942  1.00  0.00     0.003 A 
HETATM   39  C21 UNL     1      29.564  24.466  14.294  1.00  0.00     0.037 A 
ENDBRANCH  33  34
ENDBRANCH  30  33
ENDBRANCH  26  27
ENDBRANCH   4  25
TORSDOF 13
ENDMDL
MODEL 2
REMARK VINA RESULT: -8.719893272      2.017     10.844
REMARK  13 active torsions:
REMARK  status: ('A' for Active; 'I' for Inactive)
REMARK    1  A    between atoms: O1_1  and  C1_3 
REMARK    2  A    between atoms: C1_3  and  C2_4 
REMARK    3  A    between atoms: C3_6  and  C4_7 
REMARK    4  A    between atoms: C4_7  and  O3_8 
REMARK    5  A    between atoms: O3_8  and  C5_9 
REMARK    6  A    between atoms: C5_9  and  C6_10 
REMARK    7  A    between atoms: C9_13  and  C10_14 
REMARK    8  A    between atoms: C11_15  and  C12_16 
REMARK    9  A    between atoms: C15_19  and  O4_20 
REMARK   10  A    between atoms: O4_20  and  C16_21 
REMARK   11  A    between atoms: C26_31  and  O5_32 
REMARK   12  A    between atoms: C27_34  and  O6_35 
REMARK   13  A    between atoms: C28_37  and  O7_38 
ROOT
HETATM    1  C6  UNL     1      27.368  27.584  16.994  1.00  0.00    -0.035 A 
HETATM    2  C7  UNL     1      26.037  27.535  17.311  1.00  0.00     0.011 A 
HETATM    3  C8  UNL     1      25.717  27.208  18.621  1.00  0.00     0.021 A 
HETATM    4  C9  UNL     1      26.660  26.937  19.586  1.00  0.00     0.018 A 
HETATM    5  C24 UNL     1      27.993  26.997  19.226  1.00  0.00     0.021 A 
HETATM    6  C25 UNL     1      28.351  27.325  17.912  1.00  0.00     0.011 A 
ENDROOT
BRANCH   1   7
HETATM    7  C5  UNL     1      27.826  27.931  15.594  1.00  0.00     0.206 C 
BRANCH   7   8
HETATM    8  O3  UNL     1      28.963  27.272  15.262  1.00  0.00    -0.384 OA
BRANCH   8   9
HETATM    9  C4  UNL     1      28.770  25.961  14.944  1.00  0.00     0.202 C 
BRANCH   9  10
HETATM   10  C3  UNL     1      29.588  24.920  15.593  1.00  0.00     0.177 C 
HETATM   11  O2  UNL     1      30.922  25.194  15.616  1.00  0.00    -0.371 OA
HETATM   12  C2  UNL     1      31.705  24.278  16.257  1.00  0.00     0.177 C 
HETATM   13  C28 UNL     1      31.448  22.855  15.897  1.00  0.00     0.180 C 
HETATM   14  C27 UNL     1      30.028  22.529  15.592  1.00  0.00     0.180 C 
HETATM   15  C26 UNL     1      29.439  23.641  14.751  1.00  0.00     0.180 C 
BRANCH  12  16
HETATM   16  C1  UNL     1      31.678  24.436  17.780  1.00  0.00     0.198 C 
BRANCH  16  17
HETATM   17  O1  UNL     1      32.980  24.287  18.285  1.00  0.00    -0.398 OA
ATOM     18  H1  UNL     1      33.039  23.467  18.762  1.00  0.00     0.209 HD
ENDBRANCH  16  17
ENDBRANCH  12  16
BRANCH  13  19
HETATM   19  O7  UNL     1      31.830  22.068  17.005  1.00  0.00    -0.390 OA
ATOM     20  H7  UNL     1      31.829  21.162  16.720  1.00  0.00     0.210 HD
ENDBRANCH  13  19
BRANCH  14  21
HETATM   21  O6  UNL     1      29.239  22.290  16.690  1.00  0.00    -0.390 OA
ATOM     22  H6  UNL     1      28.385  21.970  16.420  1.00  0.00     0.210 HD
ENDBRANCH  14  21
BRANCH  15  23
HETATM   23  O5  UNL     1      30.253  23.754  13.612  1.00  0.00    -0.390 OA
ATOM     24  H5  UNL     1      30.073  23.022  13.035  1.00  0.00     0.210 HD
ENDBRANCH  15  23
ENDBRANCH   9  10
ENDBRANCH   8   9
ENDBRANCH   7   8
ENDBRANCH   1   7
BRANCH   4  25
HETATM   25  C10 UNL     1      26.301  26.601  20.935  1.00  0.00    -0.061 C 
HETATM   26  C11 UNL     1      26.019  26.320  22.077  1.00  0.00    -0.061 C 
BRANCH  26  27
HETATM   27  C12 UNL     1      25.680  25.957  23.440  1.00  0.00     0.018 A 
HETATM   28  C13 UNL     1      26.092  26.707  24.516  1.00  0.00     0.023 A 
HETATM   29  C14 UNL     1      25.737  26.310  25.803  1.00  0.00     0.039 A 
HETATM   30  C15 UNL     1      24.978  25.178  26.018  1.00  0.00     0.076 A 
HETATM   31  C22 UNL     1      24.560  24.419  24.940  1.00  0.00     0.039 A 
HETATM   32  C23 UNL     1      24.923  24.828  23.660  1.00  0.00     0.023 A 
BRANCH  30  33
HETATM   33  O4  UNL     1      24.601  24.746  27.283  1.00  0.00    -0.311 OA
BRANCH  33  34
HETATM   34  C16 UNL     1      25.200  23.654  27.874  1.00  0.00     0.076 A 
HETATM   35  C17 UNL     1      24.501  22.666  28.532  1.00  0.00     0.037 A 
HETATM   36  C18 UNL     1      25.194  21.615  29.088  1.00  0.00     0.003 A 
HETATM   37  C19 UNL     1      26.571  21.503  29.018  1.00  0.00     0.000 A 
HETATM   38  C20 UNL     1      27.271  22.491  28.358  1.00  0.00     0.003 A 
HETATM   39  C21 UNL     1      26.567  23.554  27.796  1.00  0.00     0.037 A 
ENDBRANCH  33  34
ENDBRANCH  30  33
ENDBRANCH  26  27
ENDBRANCH   4  25
TORSDOF 13
ENDMDL
MODEL 3
REMARK VINA RESULT: -8.716673555      2.292     11.462
REMARK  13 active torsions:
REMARK  status: ('A' for Active; 'I' for Inactive)
REMARK    1  A    between atoms: O1_1  and  C1_3 
REMARK    2  A    between atoms: C1_3  and  C2_4 
REMARK    3  A    between atoms: C3_6  and  C4_7 
REMARK    4  A    between atoms: C4_7  and  O3_8 
REMARK    5  A    between atoms: O3_8  and  C5_9 
REMARK    6  A    between atoms: C5_9  and  C6_10 
REMARK    7  A    between atoms: C9_13  and  C10_14 
REMARK    8  A    between atoms: C11_15  and  C12_16 
REMARK    9  A    between atoms: C15_19  and  O4_20 
REMARK   10  A    between atoms: O4_20  and  C16_21 
REMARK   11  A    between atoms: C26_31  and  O5_32 
REMARK   12  A    between atoms: C27_34  and  O6_35 
REMARK   13  A    between atoms: C28_37  and  O7_38 
ROOT
HETATM    1  C6  UNL     1      27.849  27.117  16.635  1.00  0.00    -0.035 A 
HETATM    2  C7  UNL     1      28.740  26.652  17.565  1.00  0.00     0.011 A 
HETATM    3  C8  UNL     1      28.255  26.445  18.849  1.00  0.00     0.021 A 
HETATM    4  C9  UNL     1      26.949  26.685  19.213  1.00  0.00     0.018 A 
HETATM    5  C24 UNL     1      26.081  27.155  18.245  1.00  0.00     0.021 A 
HETATM    6  C25 UNL     1      26.539  27.373  16.939  1.00  0.00     0.011 A 
ENDROOT
BRANCH   1   7
HETATM    7  C5  UNL     1      28.274  27.377  15.206  1.00  0.00     0.206 C 
BRANCH   7   8
HETATM    8  O3  UNL     1      29.419  26.721  14.898  1.00  0.00    -0.384 OA
BRANCH   8   9
HETATM    9  C4  UNL     1      29.239  25.405  14.597  1.00  0.00     0.202 C 
BRANCH   9  10
HETATM   10  C3  UNL     1      30.385  24.477  14.649  1.00  0.00     0.177 C 
HETATM   11  O2  UNL     1      30.498  23.671  13.559  1.00  0.00    -0.371 OA
HETATM   12  C2  UNL     1      31.578  22.836  13.547  1.00  0.00     0.177 C 
HETATM   13  C28 UNL     1      31.814  22.079  14.809  1.00  0.00     0.180 C 
HETATM   14  C27 UNL     1      31.455  22.808  16.057  1.00  0.00     0.180 C 
HETATM   15  C26 UNL     1      30.144  23.534  15.842  1.00  0.00     0.180 C 
BRANCH  12  16
HETATM   16  C1  UNL     1      32.871  23.541  13.123  1.00  0.00     0.198 C 
BRANCH  16  17
HETATM   17  O1  UNL     1      33.461  22.829  12.066  1.00  0.00    -0.398 OA
ATOM     18  H1  UNL     1      34.157  23.353  11.687  1.00  0.00     0.209 HD
ENDBRANCH  16  17
ENDBRANCH  12  16
BRANCH  13  19
HETATM   19  O7  UNL     1      33.194  21.791  14.874  1.00  0.00    -0.390 OA
ATOM     20  H7  UNL     1      33.647  22.613  15.023  1.00  0.00     0.210 HD
ENDBRANCH  13  19
BRANCH  14  21
HETATM   21  O6  UNL     1      32.414  23.677  16.517  1.00  0.00    -0.390 OA
ATOM     22  H6  UNL     1      33.083  23.206  17.000  1.00  0.00     0.210 HD
ENDBRANCH  14  21
BRANCH  15  23
HETATM   23  O5  UNL     1      29.206  22.560  15.464  1.00  0.00    -0.390 OA
ATOM     24  H5  UNL     1      29.045  22.638  14.531  1.00  0.00     0.210 HD
ENDBRANCH  15  23
ENDBRANCH   9  10
ENDBRANCH   8   9
ENDBRANCH   7   8
ENDBRANCH   1   7
BRANCH   4  25
HETATM   25  C10 UNL     1      26.473  26.463  20.549  1.00  0.00    -0.061 C 
HETATM   26  C11 UNL     1      26.089  26.287  21.682  1.00  0.00    -0.061 C 
BRANCH  26  27
HETATM   27  C12 UNL     1      25.638  26.053  23.040  1.00  0.00     0.018 A 
HETATM   28  C13 UNL     1      25.916  26.930  24.061  1.00  0.00     0.023 A 
HETATM   29  C14 UNL     1      25.458  26.653  25.347  1.00  0.00     0.039 A 
HETATM   30  C15 UNL     1      24.729  25.513  25.616  1.00  0.00     0.076 A 
HETATM   31  C22 UNL     1      24.445  24.625  24.594  1.00  0.00     0.039 A 
HETATM   32  C23 UNL     1      24.910  24.916  23.314  1.00  0.00     0.023 A 
BRANCH  30  33
HETATM   33  O4  UNL     1      24.253  25.197  26.881  1.00  0.00    -0.311 OA
BRANCH  33  34
HETATM   34  C16 UNL     1      24.816  24.182  27.625  1.00  0.00     0.076 A 
HETATM   35  C17 UNL     1      24.079  23.238  28.306  1.00  0.00     0.037 A 
HETATM   36  C18 UNL     1      24.738  22.264  29.020  1.00  0.00     0.003 A 
HETATM   37  C19 UNL     1      26.117  22.187  29.087  1.00  0.00     0.000 A 
HETATM   38  C20 UNL     1      26.856  23.130  28.405  1.00  0.00     0.003 A 
HETATM   39  C21 UNL     1      26.186  24.116  27.683  1.00  0.00     0.037 A 
ENDBRANCH  33  34
ENDBRANCH  30  33
ENDBRANCH  26  27
ENDBRANCH   4  25
TORSDOF 13
ENDMDL
MODEL 4
REMARK VINA RESULT: -8.492339302      7.427     12.248
REMARK  13 active torsions:
REMARK  status: ('A' for Active; 'I' for Inactive)
REMARK    1  A    between atoms: O1_1  and  C1_3 
REMARK    2  A    between atoms: C1_3  and  C2_4 
REMARK    3  A    between atoms: C3_6  and  C4_7 
REMARK    4  A    between atoms: C4_7  and  O3_8 
REMARK    5  A    between atoms: O3_8  and  C5_9 
REMARK    6  A    between atoms: C5_9  and  C6_10 
REMARK    7  A    between atoms: C9_13  and  C10_14 
REMARK    8  A    between atoms: C11_15  and  C12_16 
REMARK    9  A    between atoms: C15_19  and  O4_20 
REMARK   10  A    between atoms: O4_20  and  C16_21 
REMARK   11  A    between atoms: C26_31  and  O5_32 
REMARK   12  A    between atoms: C27_34  and  O6_35 
REMARK   13  A    between atoms: C28_37  and  O7_38 
ROOT
HETATM    1  C6  UNL     1      27.193  27.692  15.767  1.00  0.00    -0.035 A 
HETATM    2  C7  UNL     1      27.288  27.542  17.124  1.00  0.00     0.011 A 
HETATM    3  C8  UNL     1      26.284  28.118  17.890  1.00  0.00     0.021 A 
HETATM    4  C9  UNL     1      25.226  28.815  17.352  1.00  0.00     0.018 A 
HETATM    5  C24 UNL     1      25.167  28.945  15.977  1.00  0.00     0.021 A 
HETATM    6  C25 UNL     1      26.164  28.375  15.175  1.00  0.00     0.011 A 
ENDROOT
BRANCH   1   7
HETATM    7  C5  UNL     1      28.235  27.104  14.840  1.00  0.00     0.206 C 
BRANCH   7   8
HETATM    8  O3  UNL     1      28.692  25.912  15.293  1.00  0.00    -0.384 OA
BRANCH   8   9
HETATM    9  C4  UNL     1      30.005  25.925  15.657  1.00  0.00     0.202 C 
BRANCH   9  10
HETATM   10  C3  UNL     1      30.851  24.747  15.391  1.00  0.00     0.177 C 
HETATM   11  O2  UNL     1      30.715  24.234  14.137  1.00  0.00    -0.371 OA
HETATM   12  C2  UNL     1      31.522  23.176  13.838  1.00  0.00     0.177 C 
HETATM   13  C28 UNL     1      31.567  22.096  14.864  1.00  0.00     0.180 C 
HETATM   14  C27 UNL     1      31.451  22.562  16.273  1.00  0.00     0.180 C 
HETATM   15  C26 UNL     1      30.386  23.635  16.349  1.00  0.00     0.180 C 
BRANCH  12  16
HETATM   16  C1  UNL     1      32.949  23.600  13.476  1.00  0.00     0.198 C 
BRANCH  16  17
HETATM   17  O1  UNL     1      33.326  22.978  12.274  1.00  0.00    -0.398 OA
ATOM     18  H1  UNL     1      34.180  23.301  12.010  1.00  0.00     0.209 HD
ENDBRANCH  16  17
ENDBRANCH  12  16
BRANCH  13  19
HETATM   19  O7  UNL     1      32.816  21.450  14.738  1.00  0.00    -0.390 OA
ATOM     20  H7  UNL     1      33.181  21.704  13.898  1.00  0.00     0.210 HD
ENDBRANCH  13  19
BRANCH  14  21
HETATM   21  O6  UNL     1      32.621  23.008  16.836  1.00  0.00    -0.390 OA
ATOM     22  H6  UNL     1      33.022  23.670  16.285  1.00  0.00     0.210 HD
ENDBRANCH  14  21
BRANCH  15  23
HETATM   23  O5  UNL     1      29.208  23.066  15.840  1.00  0.00    -0.390 OA
ATOM     24  H5  UNL     1      28.984  22.308  16.367  1.00  0.00     0.210 HD
ENDBRANCH  15  23
ENDBRANCH   9  10
ENDBRANCH   8   9
ENDBRANCH   7   8
ENDBRANCH   1   7
BRANCH   4  25
HETATM   25  C10 UNL     1      24.201  29.401  18.168  1.00  0.00    -0.061 C 
HETATM   26  C11 UNL     1      23.329  29.875  18.859  1.00  0.00    -0.061 C 
BRANCH  26  27
HETATM   27  C12 UNL     1      22.271  30.450  19.667  1.00  0.00     0.018 A 
HETATM   28  C13 UNL     1      21.927  31.778  19.578  1.00  0.00     0.023 A 
HETATM   29  C14 UNL     1      20.902  32.276  20.379  1.00  0.00     0.039 A 
HETATM   30  C15 UNL     1      20.225  31.460  21.262  1.00  0.00     0.076 A 
HETATM   31  C22 UNL     1      20.566  30.123  21.358  1.00  0.00     0.039 A 
HETATM   32  C23 UNL     1      21.592  29.640  20.551  1.00  0.00     0.023 A 
BRANCH  30  33
HETATM   33  O4  UNL     1      19.199  31.913  22.080  1.00  0.00    -0.311 OA
BRANCH  33  34
HETATM   34  C16 UNL     1      17.918  31.416  21.963  1.00  0.00     0.076 A 
HETATM   35  C17 UNL     1      17.258  30.764  22.981  1.00  0.00     0.037 A 
HETATM   36  C18 UNL     1      15.979  30.305  22.763  1.00  0.00     0.003 A 
HETATM   37  C19 UNL     1      15.319  30.470  21.559  1.00  0.00     0.000 A 
HETATM   38  C20 UNL     1      15.978  31.124  20.539  1.00  0.00     0.003 A 
HETATM   39  C21 UNL     1      17.273  31.586  20.763  1.00  0.00     0.037 A 
ENDBRANCH  33  34
ENDBRANCH  30  33
ENDBRANCH  26  27
ENDBRANCH   4  25
TORSDOF 13
ENDMDL
MODEL 5
REMARK VINA RESULT: -8.334342979      7.472     12.300
REMARK  13 active torsions:
REMARK  status: ('A' for Active; 'I' for Inactive)
REMARK    1  A    between atoms: O1_1  and  C1_3 
REMARK    2  A    between atoms: C1_3  and  C2_4 
REMARK    3  A    between atoms: C3_6  and  C4_7 
REMARK    4  A    between atoms: C4_7  and  O3_8 
REMARK    5  A    between atoms: O3_8  and  C5_9 
REMARK    6  A    between atoms: C5_9  and  C6_10 
REMARK    7  A    between atoms: C9_13  and  C10_14 
REMARK    8  A    between atoms: C11_15  and  C12_16 
REMARK    9  A    between atoms: C15_19  and  O4_20 
REMARK   10  A    between atoms: O4_20  and  C16_21 
REMARK   11  A    between atoms: C26_31  and  O5_32 
REMARK   12  A    between atoms: C27_34  and  O6_35 
REMARK   13  A    between atoms: C28_37  and  O7_38 
ROOT
HETATM    1  C6  UNL     1      27.127  27.634  15.783  1.00  0.00    -0.035 A 
HETATM    2  C7  UNL     1      27.199  27.437  17.136  1.00  0.00     0.011 A 
HETATM    3  C8  UNL     1      26.227  28.052  17.911  1.00  0.00     0.021 A 
HETATM    4  C9  UNL     1      25.221  28.833  17.387  1.00  0.00     0.018 A 
HETATM    5  C24 UNL     1      25.183  29.008  16.016  1.00  0.00     0.021 A 
HETATM    6  C25 UNL     1      26.149  28.399  15.204  1.00  0.00     0.011 A 
ENDROOT
BRANCH   1   7
HETATM    7  C5  UNL     1      28.137  27.008  14.846  1.00  0.00     0.206 C 
BRANCH   7   8
HETATM    8  O3  UNL     1      28.647  25.861  15.355  1.00  0.00    -0.384 OA
BRANCH   8   9
HETATM    9  C4  UNL     1      29.979  25.923  15.633  1.00  0.00     0.202 C 
BRANCH   9  10
HETATM   10  C3  UNL     1      30.836  24.748  15.382  1.00  0.00     0.177 C 
HETATM   11  O2  UNL     1      30.720  24.232  14.128  1.00  0.00    -0.371 OA
HETATM   12  C2  UNL     1      31.538  23.177  13.843  1.00  0.00     0.177 C 
HETATM   13  C28 UNL     1      31.575  22.101  14.872  1.00  0.00     0.180 C 
HETATM   14  C27 UNL     1      31.436  22.570  16.279  1.00  0.00     0.180 C 
HETATM   15  C26 UNL     1      30.365  23.637  16.337  1.00  0.00     0.180 C 
BRANCH  12  16
HETATM   16  C1  UNL     1      32.967  23.609  13.500  1.00  0.00     0.198 C 
BRANCH  16  17
HETATM   17  O1  UNL     1      33.359  23.000  12.296  1.00  0.00    -0.398 OA
ATOM     18  H1  UNL     1      34.293  22.827  12.322  1.00  0.00     0.209 HD
ENDBRANCH  16  17
ENDBRANCH  12  16
BRANCH  13  19
HETATM   19  O7  UNL     1      32.830  21.461  14.765  1.00  0.00    -0.390 OA
ATOM     20  H7  UNL     1      32.667  20.526  14.735  1.00  0.00     0.210 HD
ENDBRANCH  13  19
BRANCH  14  21
HETATM   21  O6  UNL     1      32.596  23.024  16.856  1.00  0.00    -0.390 OA
ATOM     22  H6  UNL     1      32.437  23.292  17.754  1.00  0.00     0.210 HD
ENDBRANCH  14  21
BRANCH  15  23
HETATM   23  O5  UNL     1      29.197  23.059  15.813  1.00  0.00    -0.390 OA
ATOM     24  H5  UNL     1      28.451  23.583  16.081  1.00  0.00     0.210 HD
ENDBRANCH  15  23
ENDBRANCH   9  10
ENDBRANCH   8   9
ENDBRANCH   7   8
ENDBRANCH   1   7
BRANCH   4  25
HETATM   25  C10 UNL     1      24.228  29.459  18.213  1.00  0.00    -0.061 C 
HETATM   26  C11 UNL     1      23.377  29.986  18.892  1.00  0.00    -0.061 C 
BRANCH  26  27
HETATM   27  C12 UNL     1      22.369  30.641  19.703  1.00  0.00     0.018 A 
HETATM   28  C13 UNL     1      21.373  29.935  20.336  1.00  0.00     0.023 A 
HETATM   29  C14 UNL     1      20.430  30.617  21.102  1.00  0.00     0.039 A 
HETATM   30  C15 UNL     1      20.478  31.989  21.238  1.00  0.00     0.076 A 
HETATM   31  C22 UNL     1      21.477  32.706  20.604  1.00  0.00     0.039 A 
HETATM   32  C23 UNL     1      22.411  32.010  19.842  1.00  0.00     0.023 A 
BRANCH  30  33
HETATM   33  O4  UNL     1      19.560  32.709  21.990  1.00  0.00    -0.311 OA
BRANCH  33  34
HETATM   34  C16 UNL     1      18.973  32.167  23.114  1.00  0.00     0.076 A 
HETATM   35  C17 UNL     1      17.684  31.684  23.142  1.00  0.00     0.037 A 
HETATM   36  C18 UNL     1      17.191  31.162  24.316  1.00  0.00     0.003 A 
HETATM   37  C19 UNL     1      17.936  31.098  25.479  1.00  0.00     0.000 A 
HETATM   38  C20 UNL     1      19.228  31.580  25.452  1.00  0.00     0.003 A 
HETATM   39  C21 UNL     1      19.724  32.108  24.262  1.00  0.00     0.037 A 
ENDBRANCH  33  34
ENDBRANCH  30  33
ENDBRANCH  26  27
ENDBRANCH   4  25
TORSDOF 13
ENDMDL
