MODEL 1
REMARK VINA RESULT: -6.528205014      0.000      0.000
REMARK  3 active torsions:
REMARK  status: ('A' for Active; 'I' for Inactive)
REMARK    1  A    between atoms: C2_2  and  C3_3 
REMARK    2  A    between atoms: C3_3  and  N1_4 
REMARK    3  A    between atoms: C3_3  and  C4_8 
ROOT
HETATM    1  C4  UNL     1       9.651 -22.867  16.725  1.00  0.00     0.232 C 
HETATM    2  N2  UNL     1       8.769 -21.697  16.546  1.00  0.00    -0.067 N 
ATOM      3  H21 UNL     1       7.801 -21.700  16.867  1.00  0.00     0.277 HD
ATOM      4  H22 UNL     1       8.425 -21.420  15.627  1.00  0.00     0.277 HD
HETATM    5  C5  UNL     1       9.814 -20.931  17.245  1.00  0.00     0.247 C 
HETATM    6  C6  UNL     1      10.166 -22.219  17.941  1.00  0.00     0.045 C 
HETATM    7  C7  UNL     1       9.251 -22.449  19.126  1.00  0.00     0.016 C 
HETATM    8  C8  UNL     1      10.164 -23.152  20.098  1.00  0.00     0.004 C 
HETATM    9  C9  UNL     1      11.478 -22.427  19.906  1.00  0.00     0.038 C 
HETATM   10  C10 UNL     1      11.557 -22.417  18.370  1.00  0.00     0.182 C 
HETATM   11  F1  UNL     1      12.438 -21.439  17.996  1.00  0.00    -0.248 F 
ENDROOT
BRANCH   1  12
HETATM   12  C3  UNL     1      10.532 -22.966  15.520  1.00  0.00     0.236 C 
BRANCH  12  13
HETATM   13  C2  UNL     1      11.069 -24.343  15.303  1.00  0.00    -0.003 C 
HETATM   14  C1  UNL     1      11.060 -24.941  14.131  1.00  0.00     0.009 C 
ENDBRANCH  12  13
BRANCH  12  15
HETATM   15  N1  UNL     1       9.658 -22.710  14.358  1.00  0.00    -0.070 N 
ATOM     16  H13 UNL     1       9.396 -23.551  13.845  1.00  0.00     0.275 HD
ATOM     17  H12 UNL     1       8.711 -22.427  14.608  1.00  0.00     0.275 HD
ATOM     18  H11 UNL     1      10.160 -22.023  13.796  1.00  0.00     0.275 HD
ENDBRANCH  12  15
ENDBRANCH   1  12
TORSDOF 3
ENDMDL
MODEL 2
REMARK VINA RESULT: -5.734089603      1.244      1.287
REMARK  3 active torsions:
REMARK  status: ('A' for Active; 'I' for Inactive)
REMARK    1  A    between atoms: C2_2  and  C3_3 
REMARK    2  A    between atoms: C3_3  and  N1_4 
REMARK    3  A    between atoms: C3_3  and  C4_8 
ROOT
HETATM    1  C4  UNL     1       9.689 -22.263  16.594  1.00  0.00     0.232 C 
HETATM    2  N2  UNL     1      10.213 -20.888  16.713  1.00  0.00    -0.067 N 
ATOM      3  H21 UNL     1       9.643 -20.126  17.077  1.00  0.00     0.277 HD
ATOM      4  H22 UNL     1      10.396 -20.310  15.893  1.00  0.00     0.277 HD
HETATM    5  C5  UNL     1      11.306 -21.482  17.500  1.00  0.00     0.247 C 
HETATM    6  C6  UNL     1      10.323 -22.553  17.889  1.00  0.00     0.045 C 
HETATM    7  C7  UNL     1       9.463 -22.090  19.047  1.00  0.00     0.016 C 
HETATM    8  C8  UNL     1       9.225 -23.374  19.798  1.00  0.00     0.004 C 
HETATM    9  C9  UNL     1      10.562 -24.075  19.693  1.00  0.00     0.038 C 
HETATM   10  C10 UNL     1      10.843 -23.894  18.191  1.00  0.00     0.182 C 
HETATM   11  F1  UNL     1      12.183 -24.070  17.985  1.00  0.00    -0.248 F 
ENDROOT
BRANCH   1  12
HETATM   12  C3  UNL     1      10.262 -22.865  15.349  1.00  0.00     0.236 C 
BRANCH  12  13
HETATM   13  C2  UNL     1      10.289 -24.359  15.386  1.00  0.00    -0.003 C 
HETATM   14  C1  UNL     1      11.047 -25.083  14.591  1.00  0.00     0.009 C 
ENDBRANCH  12  13
BRANCH  12  15
HETATM   15  N1  UNL     1       9.317 -22.528  14.266  1.00  0.00    -0.070 N 
ATOM     16  H13 UNL     1       8.451 -23.065  14.290  1.00  0.00     0.275 HD
ATOM     17  H12 UNL     1       8.886 -21.608  14.365  1.00  0.00     0.275 HD
ATOM     18  H11 UNL     1       9.851 -22.643  13.405  1.00  0.00     0.275 HD
ENDBRANCH  12  15
ENDBRANCH   1  12
TORSDOF 3
ENDMDL
MODEL 3
REMARK VINA RESULT: -5.672350520      2.247      4.201
REMARK  3 active torsions:
REMARK  status: ('A' for Active; 'I' for Inactive)
REMARK    1  A    between atoms: C2_2  and  C3_3 
REMARK    2  A    between atoms: C3_3  and  N1_4 
REMARK    3  A    between atoms: C3_3  and  C4_8 
ROOT
HETATM    1  C4  UNL     1      11.202 -22.494  17.969  1.00  0.00     0.232 C 
HETATM    2  N2  UNL     1      12.221 -21.462  17.696  1.00  0.00    -0.067 N 
ATOM      3  H21 UNL     1      13.137 -21.699  17.316  1.00  0.00     0.277 HD
ATOM      4  H22 UNL     1      12.702 -20.971  18.449  1.00  0.00     0.277 HD
HETATM    5  C5  UNL     1      11.189 -20.804  16.878  1.00  0.00     0.247 C 
HETATM    6  C6  UNL     1      10.617 -22.179  16.657  1.00  0.00     0.045 C 
HETATM    7  C7  UNL     1      11.350 -22.884  15.535  1.00  0.00     0.016 C 
HETATM    8  C8  UNL     1      10.255 -23.713  14.913  1.00  0.00     0.004 C 
HETATM    9  C9  UNL     1       9.061 -22.785  14.971  1.00  0.00     0.038 C 
HETATM   10  C10 UNL     1       9.171 -22.298  16.427  1.00  0.00     0.182 C 
HETATM   11  F1  UNL     1       8.454 -21.138  16.542  1.00  0.00    -0.248 F 
ENDROOT
BRANCH   1  12
HETATM   12  C3  UNL     1      10.468 -22.096  19.211  1.00  0.00     0.236 C 
BRANCH  12  13
HETATM   13  C2  UNL     1       9.595 -23.186  19.745  1.00  0.00    -0.003 C 
HETATM   14  C1  UNL     1       9.670 -24.433  19.331  1.00  0.00     0.009 C 
ENDBRANCH  12  13
BRANCH  12  15
HETATM   15  N1  UNL     1      11.503 -21.896  20.245  1.00  0.00    -0.070 N 
ATOM     16  H13 UNL     1      12.348 -21.441  19.901  1.00  0.00     0.275 HD
ATOM     17  H12 UNL     1      11.262 -21.187  20.938  1.00  0.00     0.275 HD
ATOM     18  H11 UNL     1      11.664 -22.822  20.640  1.00  0.00     0.275 HD
ENDBRANCH  12  15
ENDBRANCH   1  12
TORSDOF 3
ENDMDL
MODEL 4
REMARK VINA RESULT: -4.536190503      9.520     11.154
REMARK  3 active torsions:
REMARK  status: ('A' for Active; 'I' for Inactive)
REMARK    1  A    between atoms: C2_2  and  C3_3 
REMARK    2  A    between atoms: C3_3  and  N1_4 
REMARK    3  A    between atoms: C3_3  and  C4_8 
ROOT
HETATM    1  C4  UNL     1       3.634 -25.292  25.219  1.00  0.00     0.232 C 
HETATM    2  N2  UNL     1       4.252 -24.329  26.152  1.00  0.00    -0.067 N 
ATOM      3  H21 UNL     1       3.696 -23.802  26.825  1.00  0.00     0.277 HD
ATOM      4  H22 UNL     1       4.636 -23.441  25.829  1.00  0.00     0.277 HD
HETATM    5  C5  UNL     1       5.120 -25.443  26.567  1.00  0.00     0.247 C 
HETATM    6  C6  UNL     1       3.986 -26.353  26.176  1.00  0.00     0.045 C 
HETATM    7  C7  UNL     1       2.972 -26.451  27.297  1.00  0.00     0.016 C 
HETATM    8  C8  UNL     1       2.481 -27.869  27.155  1.00  0.00     0.004 C 
HETATM    9  C9  UNL     1       3.743 -28.627  26.807  1.00  0.00     0.038 C 
HETATM   10  C10 UNL     1       4.314 -27.708  25.713  1.00  0.00     0.182 C 
HETATM   11  F1  UNL     1       5.648 -27.983  25.580  1.00  0.00    -0.248 F 
ENDROOT
BRANCH   1  12
HETATM   12  C3  UNL     1       4.370 -25.208  23.919  1.00  0.00     0.236 C 
BRANCH  12  13
HETATM   13  C2  UNL     1       3.782 -26.083  22.860  1.00  0.00    -0.003 C 
HETATM   14  C1  UNL     1       4.503 -26.891  22.114  1.00  0.00     0.009 C 
ENDBRANCH  12  13
BRANCH  12  15
HETATM   15  N1  UNL     1       4.168 -23.829  23.429  1.00  0.00    -0.070 N 
ATOM     16  H13 UNL     1       3.674 -23.775  22.539  1.00  0.00     0.275 HD
ATOM     17  H12 UNL     1       3.489 -23.294  23.971  1.00  0.00     0.275 HD
ATOM     18  H11 UNL     1       5.100 -23.417  23.411  1.00  0.00     0.275 HD
ENDBRANCH  12  15
ENDBRANCH   1  12
TORSDOF 3
ENDMDL
MODEL 5
REMARK VINA RESULT: -4.236955302      2.081      2.985
REMARK  3 active torsions:
REMARK  status: ('A' for Active; 'I' for Inactive)
REMARK    1  A    between atoms: C2_2  and  C3_3 
REMARK    2  A    between atoms: C3_3  and  N1_4 
REMARK    3  A    between atoms: C3_3  and  C4_8 
ROOT
HETATM    1  C4  UNL     1      10.837 -23.074  16.994  1.00  0.00     0.232 C 
HETATM    2  N2  UNL     1      11.927 -24.054  16.817  1.00  0.00    -0.067 N 
ATOM      3  H21 UNL     1      12.906 -23.770  16.802  1.00  0.00     0.277 HD
ATOM      4  H22 UNL     1      12.087 -24.522  15.925  1.00  0.00     0.277 HD
HETATM    5  C5  UNL     1      11.341 -24.760  17.968  1.00  0.00     0.247 C 
HETATM    6  C6  UNL     1      10.843 -23.415  18.425  1.00  0.00     0.045 C 
HETATM    7  C7  UNL     1      11.931 -22.670  19.170  1.00  0.00     0.016 C 
HETATM    8  C8  UNL     1      11.140 -21.896  20.194  1.00  0.00     0.004 C 
HETATM    9  C9  UNL     1      10.068 -22.882  20.603  1.00  0.00     0.038 C 
HETATM   10  C10 UNL     1       9.606 -23.367  19.217  1.00  0.00     0.182 C 
HETATM   11  F1  UNL     1       8.959 -24.561  19.378  1.00  0.00    -0.248 F 
ENDROOT
BRANCH   1  12
HETATM   12  C3  UNL     1       9.685 -23.511  16.144  1.00  0.00     0.236 C 
BRANCH  12  13
HETATM   13  C2  UNL     1       8.777 -22.384  15.772  1.00  0.00    -0.003 C 
HETATM   14  C1  UNL     1       8.703 -21.265  16.458  1.00  0.00     0.009 C 
ENDBRANCH  12  13
BRANCH  12  15
HETATM   15  N1  UNL     1      10.274 -23.963  14.867  1.00  0.00    -0.070 N 
ATOM     16  H13 UNL     1       9.854 -24.814  14.497  1.00  0.00     0.275 HD
ATOM     17  H12 UNL     1      10.047 -23.365  14.073  1.00  0.00     0.275 HD
ATOM     18  H11 UNL     1      11.274 -24.042  15.052  1.00  0.00     0.275 HD
ENDBRANCH  12  15
ENDBRANCH   1  12
TORSDOF 3
ENDMDL
