MODEL 1
REMARK VINA RESULT: -5.342133129      0.000      0.000
REMARK  3 active torsions:
REMARK  status: ('A' for Active; 'I' for Inactive)
REMARK    1  A    between atoms: N1_1  and  C1_5 
REMARK    2  A    between atoms: C4_8  and  N2_9 
REMARK    3  A    between atoms: N2_9  and  C5_12 
ROOT
HETATM    1  C1  UNL     1      10.419 -22.710  14.653  1.00  0.00     0.217 C 
HETATM    2  C2  UNL     1       9.021 -22.713  15.155  1.00  0.00     0.038 C 
HETATM    3  C3  UNL     1       8.748 -22.096  16.447  1.00  0.00     0.035 C 
HETATM    4  C4  UNL     1       9.774 -21.304  17.147  1.00  0.00     0.189 C 
HETATM    5  C9  UNL     1      11.207 -21.644  16.674  1.00  0.00     0.072 C 
HETATM    6  C10 UNL     1      11.244 -21.553  15.203  1.00  0.00     0.202 C 
HETATM    7  F1  UNL     1      12.531 -21.704  14.732  1.00  0.00    -0.247 F 
ENDROOT
BRANCH   4   8
HETATM    8  N2  UNL     1       9.868 -21.589  18.558  1.00  0.00    -0.067 N 
ATOM      9  H22 UNL     1      10.005 -20.727  19.085  1.00  0.00     0.278 HD
ATOM     10  H21 UNL     1       8.960 -21.877  18.923  1.00  0.00     0.278 HD
BRANCH   8  11
HETATM   11  C5  UNL     1      10.873 -22.551  18.906  1.00  0.00     0.186 C 
HETATM   12  C6  UNL     1      10.239 -23.908  19.101  1.00  0.00     0.033 C 
HETATM   13  C7  UNL     1       9.682 -23.319  20.408  1.00  0.00     0.004 C 
HETATM   14  C8  UNL     1      10.976 -22.510  20.441  1.00  0.00     0.033 C 
ENDBRANCH   8  11
ENDBRANCH   4   8
BRANCH   1  15
HETATM   15  N1  UNL     1      11.073 -23.986  14.913  1.00  0.00    -0.072 N 
ATOM     16  H13 UNL     1      10.537 -24.767  14.534  1.00  0.00     0.274 HD
ATOM     17  H12 UNL     1      11.920 -24.094  14.356  1.00  0.00     0.274 HD
ATOM     18  H11 UNL     1      11.259 -24.107  15.908  1.00  0.00     0.274 HD
ENDBRANCH   1  15
TORSDOF 3
ENDMDL
MODEL 2
REMARK VINA RESULT: -4.456181366      2.179      4.362
REMARK  3 active torsions:
REMARK  status: ('A' for Active; 'I' for Inactive)
REMARK    1  A    between atoms: N1_1  and  C1_5 
REMARK    2  A    between atoms: C4_8  and  N2_9 
REMARK    3  A    between atoms: N2_9  and  C5_12 
ROOT
HETATM    1  C1  UNL     1       9.931 -22.018  19.177  1.00  0.00     0.217 C 
HETATM    2  C2  UNL     1      11.394 -22.152  18.958  1.00  0.00     0.038 C 
HETATM    3  C3  UNL     1      11.899 -22.079  17.593  1.00  0.00     0.035 C 
HETATM    4  C4  UNL     1      11.028 -21.674  16.477  1.00  0.00     0.189 C 
HETATM    5  C9  UNL     1       9.528 -21.867  16.799  1.00  0.00     0.072 C 
HETATM    6  C10 UNL     1       9.240 -21.209  18.085  1.00  0.00     0.202 C 
HETATM    7  F1  UNL     1       7.888 -21.223  18.355  1.00  0.00    -0.247 F 
ENDROOT
BRANCH   4   8
HETATM    8  N2  UNL     1      11.172 -22.493  15.298  1.00  0.00    -0.067 N 
ATOM      9  H22 UNL     1      11.343 -21.910  14.479  1.00  0.00     0.278 HD
ATOM     10  H21 UNL     1      12.050 -23.012  15.331  1.00  0.00     0.278 HD
BRANCH   8  11
HETATM   11  C5  UNL     1      10.074 -23.384  15.055  1.00  0.00     0.186 C 
HETATM   12  C6  UNL     1      10.164 -24.574  15.980  1.00  0.00     0.033 C 
HETATM   13  C7  UNL     1      11.335 -25.019  15.088  1.00  0.00     0.004 C 
HETATM   14  C8  UNL     1      10.557 -24.350  13.958  1.00  0.00     0.033 C 
ENDBRANCH   8  11
ENDBRANCH   4   8
BRANCH   1  15
HETATM   15  N1  UNL     1       9.302 -23.323  19.335  1.00  0.00    -0.072 N 
ATOM     16  H13 UNL     1       8.339 -23.238  19.660  1.00  0.00     0.274 HD
ATOM     17  H12 UNL     1       9.124 -23.766  18.434  1.00  0.00     0.274 HD
ATOM     18  H11 UNL     1       9.852 -23.924  19.947  1.00  0.00     0.274 HD
ENDBRANCH   1  15
TORSDOF 3
ENDMDL
MODEL 3
REMARK VINA RESULT: -4.182557447      1.814      2.353
REMARK  3 active torsions:
REMARK  status: ('A' for Active; 'I' for Inactive)
REMARK    1  A    between atoms: N1_1  and  C1_5 
REMARK    2  A    between atoms: C4_8  and  N2_9 
REMARK    3  A    between atoms: N2_9  and  C5_12 
ROOT
HETATM    1  C1  UNL     1      10.420 -22.705  14.739  1.00  0.00     0.217 C 
HETATM    2  C2  UNL     1      11.030 -21.568  15.475  1.00  0.00     0.038 C 
HETATM    3  C3  UNL     1      11.603 -21.823  16.791  1.00  0.00     0.035 C 
HETATM    4  C4  UNL     1      11.771 -23.196  17.298  1.00  0.00     0.189 C 
HETATM    5  C9  UNL     1      10.840 -24.206  16.586  1.00  0.00     0.072 C 
HETATM    6  C10 UNL     1      11.015 -24.053  15.131  1.00  0.00     0.202 C 
HETATM    7  F1  UNL     1      10.319 -25.025  14.446  1.00  0.00    -0.247 F 
ENDROOT
BRANCH   4   8
HETATM    8  N2  UNL     1      11.368 -23.362  18.673  1.00  0.00    -0.067 N 
ATOM      9  H22 UNL     1      10.822 -24.216  18.782  1.00  0.00     0.278 HD
ATOM     10  H21 UNL     1      12.175 -23.595  19.253  1.00  0.00     0.278 HD
BRANCH   8  11
HETATM   11  C5  UNL     1      10.661 -22.244  19.227  1.00  0.00     0.186 C 
HETATM   12  C6  UNL     1      10.599 -22.370  20.731  1.00  0.00     0.033 C 
HETATM   13  C7  UNL     1       9.577 -23.488  20.469  1.00  0.00     0.004 C 
HETATM   14  C8  UNL     1       9.179 -22.659  19.250  1.00  0.00     0.033 C 
ENDBRANCH   8  11
ENDBRANCH   4   8
BRANCH   1  15
HETATM   15  N1  UNL     1       8.971 -22.712  14.890  1.00  0.00    -0.072 N 
ATOM     16  H13 UNL     1       8.564 -21.808  14.650  1.00  0.00     0.274 HD
ATOM     17  H12 UNL     1       8.521 -23.281  14.173  1.00  0.00     0.274 HD
ATOM     18  H11 UNL     1       8.700 -23.007  15.828  1.00  0.00     0.274 HD
ENDBRANCH   1  15
TORSDOF 3
ENDMDL
MODEL 4
REMARK VINA RESULT: -4.030047896      2.446      4.492
REMARK  3 active torsions:
REMARK  status: ('A' for Active; 'I' for Inactive)
REMARK    1  A    between atoms: N1_1  and  C1_5 
REMARK    2  A    between atoms: C4_8  and  N2_9 
REMARK    3  A    between atoms: N2_9  and  C5_12 
ROOT
HETATM    1  C1  UNL     1      11.079 -23.157  19.804  1.00  0.00     0.217 C 
HETATM    2  C2  UNL     1      12.112 -22.425  19.028  1.00  0.00     0.038 C 
HETATM    3  C3  UNL     1      11.680 -21.596  17.909  1.00  0.00     0.035 C 
HETATM    4  C4  UNL     1      10.254 -21.313  17.675  1.00  0.00     0.189 C 
HETATM    5  C9  UNL     1       9.327 -22.355  18.344  1.00  0.00     0.072 C 
HETATM    6  C10 UNL     1       9.714 -22.478  19.761  1.00  0.00     0.202 C 
HETATM    7  F1  UNL     1       8.830 -23.287  20.445  1.00  0.00    -0.247 F 
ENDROOT
BRANCH   4   8
HETATM    8  N2  UNL     1       9.856 -21.428  16.293  1.00  0.00    -0.067 N 
ATOM      9  H22 UNL     1       9.291 -20.625  16.019  1.00  0.00     0.278 HD
ATOM     10  H21 UNL     1      10.661 -21.294  15.680  1.00  0.00     0.278 HD
BRANCH   8  11
HETATM   11  C5  UNL     1       9.179 -22.650  15.968  1.00  0.00     0.186 C 
HETATM   12  C6  UNL     1      10.156 -23.801  15.994  1.00  0.00     0.033 C 
HETATM   13  C7  UNL     1      10.700 -23.204  14.686  1.00  0.00     0.004 C 
HETATM   14  C8  UNL     1       9.257 -22.774  14.436  1.00  0.00     0.033 C 
ENDBRANCH   8  11
ENDBRANCH   4   8
BRANCH   1  15
HETATM   15  N1  UNL     1      10.984 -24.546  19.374  1.00  0.00    -0.072 N 
ATOM     16  H13 UNL     1      10.018 -24.816  19.188  1.00  0.00     0.274 HD
ATOM     17  H12 UNL     1      11.365 -24.676  18.437  1.00  0.00     0.274 HD
ATOM     18  H11 UNL     1      11.425 -25.171  20.049  1.00  0.00     0.274 HD
ENDBRANCH   1  15
TORSDOF 3
ENDMDL
MODEL 5
REMARK VINA RESULT: -3.930343805      2.487      4.614
REMARK  3 active torsions:
REMARK  status: ('A' for Active; 'I' for Inactive)
REMARK    1  A    between atoms: N1_1  and  C1_5 
REMARK    2  A    between atoms: C4_8  and  N2_9 
REMARK    3  A    between atoms: N2_9  and  C5_12 
ROOT
HETATM    1  C1  UNL     1      10.581 -21.978  19.506  1.00  0.00     0.217 C 
HETATM    2  C2  UNL     1      10.072 -21.228  18.329  1.00  0.00     0.038 C 
HETATM    3  C3  UNL     1       9.521 -21.984  17.211  1.00  0.00     0.035 C 
HETATM    4  C4  UNL     1       9.272 -23.431  17.317  1.00  0.00     0.189 C 
HETATM    5  C9  UNL     1      10.110 -24.094  18.436  1.00  0.00     0.072 C 
HETATM    6  C10 UNL     1       9.904 -23.334  19.682  1.00  0.00     0.202 C 
HETATM    7  F1  UNL     1      10.512 -23.961  20.749  1.00  0.00    -0.247 F 
ENDROOT
BRANCH   4   8
HETATM    8  N2  UNL     1       9.701 -24.182  16.163  1.00  0.00    -0.067 N 
ATOM      9  H22 UNL     1       9.411 -25.156  16.245  1.00  0.00     0.278 HD
ATOM     10  H21 UNL     1       9.162 -23.908  15.341  1.00  0.00     0.278 HD
BRANCH   8  11
HETATM   11  C5  UNL     1      11.107 -24.102  15.887  1.00  0.00     0.186 C 
HETATM   12  C6  UNL     1      11.329 -23.468  14.535  1.00  0.00     0.033 C 
HETATM   13  C7  UNL     1      10.816 -24.801  13.967  1.00  0.00     0.004 C 
HETATM   14  C8  UNL     1      11.472 -25.427  15.195  1.00  0.00     0.033 C 
ENDBRANCH   8  11
ENDBRANCH   4   8
BRANCH   1  15
HETATM   15  N1  UNL     1      12.030 -22.122  19.452  1.00  0.00    -0.072 N 
ATOM     16  H13 UNL     1      12.311 -22.827  18.771  1.00  0.00     0.274 HD
ATOM     17  H12 UNL     1      12.473 -21.308  19.027  1.00  0.00     0.274 HD
ATOM     18  H11 UNL     1      12.414 -22.319  20.375  1.00  0.00     0.274 HD
ENDBRANCH   1  15
TORSDOF 3
ENDMDL
