MODEL 1
REMARK VINA RESULT: -8.128136421      0.000      0.000
REMARK  7 active torsions:
REMARK  status: ('A' for Active; 'I' for Inactive)
REMARK    1  A    between atoms: C2_2  and  C3_3 
REMARK    2  A    between atoms: C3_3  and  C5_5 
REMARK    3  A    between atoms: C6_6  and  O1_7 
REMARK    4  A    between atoms: C11_13  and  O2_14 
REMARK    5  A    between atoms: C13_17  and  C14_18 
REMARK    6  A    between atoms: C14_18  and  O4_19 
REMARK    7  A    between atoms: C18_24  and  O5_26 
ROOT
HETATM    1  C5  UNL     1     -23.674 -33.421  28.039  1.00  0.00     0.013 A 
HETATM    2  C6  UNL     1     -25.077 -33.580  27.892  1.00  0.00     0.084 A 
HETATM    3  C7  UNL     1     -25.751 -33.035  26.831  1.00  0.00     0.012 A 
HETATM    4  C8  UNL     1     -25.104 -32.310  25.858  1.00  0.00     0.087 A 
HETATM    5  C9  UNL     1     -23.748 -32.165  26.006  1.00  0.00     0.006 A 
HETATM    6  C10 UNL     1     -22.999 -31.388  24.981  1.00  0.00     0.054 C 
HETATM    7  C11 UNL     1     -23.023 -32.709  27.078  1.00  0.00     0.086 A 
HETATM    8  O3  UNL     1     -26.050 -31.878  24.905  1.00  0.00    -0.341 OA
HETATM    9  C13 UNL     1     -27.039 -32.919  24.927  1.00  0.00     0.167 C 
HETATM   10  C21 UNL     1     -27.207 -33.048  26.433  1.00  0.00     0.080 C 
ENDROOT
BRANCH   9  11
HETATM   11  C14 UNL     1     -28.292 -32.574  24.203  1.00  0.00     0.087 C 
HETATM   12  C15 UNL     1     -29.286 -33.688  24.354  1.00  0.00     0.041 C 
HETATM   13  C16 UNL     1     -30.576 -33.397  23.649  1.00  0.00     0.006 C 
HETATM   14  C17 UNL     1     -30.346 -32.995  22.232  1.00  0.00     0.037 C 
HETATM   15  C18 UNL     1     -29.403 -31.807  22.157  1.00  0.00     0.057 C 
HETATM   16  C19 UNL     1     -30.008 -30.552  22.729  1.00  0.00     0.045 C 
HETATM   17  C20 UNL     1     -28.056 -32.150  22.776  1.00  0.00     0.077 C 
BRANCH  11  18
HETATM   18  O4  UNL     1     -28.831 -31.446  24.868  1.00  0.00    -0.387 OA
ATOM     19  H4  UNL     1     -29.457 -31.060  24.266  1.00  0.00     0.210 HD
ENDBRANCH  11  18
BRANCH  15  20
HETATM   20  O5  UNL     1     -29.163 -31.567  20.800  1.00  0.00    -0.390 OA
ATOM     21  H5  UNL     1     -28.377 -32.049  20.570  1.00  0.00     0.210 HD
ENDBRANCH  15  20
ENDBRANCH   9  11
BRANCH   2  22
HETATM   22  O1  UNL     1     -25.814 -34.297  28.822  1.00  0.00    -0.359 OA
ATOM     23  H1  UNL     1     -26.695 -34.592  28.624  1.00  0.00     0.217 HD
ENDBRANCH   2  22
BRANCH   7  24
HETATM   24  O2  UNL     1     -21.634 -32.470  27.063  1.00  0.00    -0.355 OA
HETATM   25  C12 UNL     1     -20.749 -33.404  26.454  1.00  0.00     0.210 C 
ENDBRANCH   7  24
BRANCH   1  26
HETATM   26  C3  UNL     1     -23.116 -34.015  29.225  1.00  0.00     0.020 C 
HETATM   27  C4  UNL     1     -22.356 -32.906  30.006  1.00  0.00     0.015 C 
BRANCH  26  28
HETATM   28  C2  UNL     1     -22.191 -35.157  29.181  1.00  0.00     0.005 C 
HETATM   29  C1  UNL     1     -22.541 -36.257  28.200  1.00  0.00     0.006 C 
ENDBRANCH  26  28
ENDBRANCH   1  26
TORSDOF 7
ENDMDL
MODEL 2
REMARK VINA RESULT: -8.040069825      1.773      7.807
REMARK  7 active torsions:
REMARK  status: ('A' for Active; 'I' for Inactive)
REMARK    1  A    between atoms: C2_2  and  C3_3 
REMARK    2  A    between atoms: C3_3  and  C5_5 
REMARK    3  A    between atoms: C6_6  and  O1_7 
REMARK    4  A    between atoms: C11_13  and  O2_14 
REMARK    5  A    between atoms: C13_17  and  C14_18 
REMARK    6  A    between atoms: C14_18  and  O4_19 
REMARK    7  A    between atoms: C18_24  and  O5_26 
ROOT
HETATM    1  C5  UNL     1     -29.719 -33.815  24.516  1.00  0.00     0.013 A 
HETATM    2  C6  UNL     1     -28.864 -34.636  25.298  1.00  0.00     0.084 A 
HETATM    3  C7  UNL     1     -27.616 -34.214  25.674  1.00  0.00     0.012 A 
HETATM    4  C8  UNL     1     -27.131 -32.978  25.315  1.00  0.00     0.087 A 
HETATM    5  C9  UNL     1     -27.965 -32.191  24.562  1.00  0.00     0.006 A 
HETATM    6  C10 UNL     1     -27.488 -30.844  24.145  1.00  0.00     0.054 C 
HETATM    7  C11 UNL     1     -29.249 -32.588  24.158  1.00  0.00     0.086 A 
HETATM    8  O3  UNL     1     -25.830 -32.827  25.840  1.00  0.00    -0.341 OA
HETATM    9  C13 UNL     1     -25.868 -33.608  27.045  1.00  0.00     0.167 C 
HETATM   10  C21 UNL     1     -26.523 -34.863  26.488  1.00  0.00     0.080 C 
ENDROOT
BRANCH   9  11
HETATM   11  C14 UNL     1     -24.532 -33.839  27.655  1.00  0.00     0.087 C 
HETATM   12  C15 UNL     1     -24.204 -35.303  27.615  1.00  0.00     0.041 C 
HETATM   13  C16 UNL     1     -22.862 -35.600  28.213  1.00  0.00     0.006 C 
HETATM   14  C17 UNL     1     -22.721 -34.997  29.569  1.00  0.00     0.037 C 
HETATM   15  C18 UNL     1     -22.978 -33.502  29.521  1.00  0.00     0.057 C 
HETATM   16  C19 UNL     1     -21.918 -32.758  28.753  1.00  0.00     0.045 C 
HETATM   17  C20 UNL     1     -24.385 -33.213  29.018  1.00  0.00     0.077 C 
BRANCH  11  18
HETATM   18  O4  UNL     1     -23.598 -33.183  26.816  1.00  0.00    -0.387 OA
ATOM     19  H4  UNL     1     -22.939 -32.814  27.392  1.00  0.00     0.210 HD
ENDBRANCH  11  18
BRANCH  15  20
HETATM   20  O5  UNL     1     -22.929 -33.041  30.841  1.00  0.00    -0.390 OA
ATOM     21  H5  UNL     1     -22.032 -33.146  31.136  1.00  0.00     0.210 HD
ENDBRANCH  15  20
ENDBRANCH   9  11
BRANCH   2  22
HETATM   22  O1  UNL     1     -29.268 -35.897  25.711  1.00  0.00    -0.359 OA
ATOM     23  H1  UNL     1     -29.238 -36.143  26.628  1.00  0.00     0.217 HD
ENDBRANCH   2  22
BRANCH   7  24
HETATM   24  O2  UNL     1     -29.971 -31.646  23.399  1.00  0.00    -0.355 OA
HETATM   25  C12 UNL     1     -29.723 -31.503  22.005  1.00  0.00     0.210 C 
ENDBRANCH   7  24
BRANCH   1  26
HETATM   26  C3  UNL     1     -30.980 -34.412  24.166  1.00  0.00     0.020 C 
HETATM   27  C4  UNL     1     -31.089 -34.432  22.616  1.00  0.00     0.015 C 
BRANCH  26  28
HETATM   28  C2  UNL     1     -32.268 -33.879  24.636  1.00  0.00     0.005 C 
HETATM   29  C1  UNL     1     -33.169 -33.288  23.573  1.00  0.00     0.006 C 
ENDBRANCH  26  28
ENDBRANCH   1  26
TORSDOF 7
ENDMDL
MODEL 3
REMARK VINA RESULT: -7.969384491      2.148      3.382
REMARK  7 active torsions:
REMARK  status: ('A' for Active; 'I' for Inactive)
REMARK    1  A    between atoms: C2_2  and  C3_3 
REMARK    2  A    between atoms: C3_3  and  C5_5 
REMARK    3  A    between atoms: C6_6  and  O1_7 
REMARK    4  A    between atoms: C11_13  and  O2_14 
REMARK    5  A    between atoms: C13_17  and  C14_18 
REMARK    6  A    between atoms: C14_18  and  O4_19 
REMARK    7  A    between atoms: C18_24  and  O5_26 
ROOT
HETATM    1  C5  UNL     1     -24.676 -32.865  26.654  1.00  0.00     0.013 A 
HETATM    2  C6  UNL     1     -25.759 -33.769  26.809  1.00  0.00     0.084 A 
HETATM    3  C7  UNL     1     -26.956 -33.567  26.173  1.00  0.00     0.012 A 
HETATM    4  C8  UNL     1     -27.167 -32.481  25.356  1.00  0.00     0.087 A 
HETATM    5  C9  UNL     1     -26.114 -31.614  25.210  1.00  0.00     0.006 A 
HETATM    6  C10 UNL     1     -26.290 -30.421  24.337  1.00  0.00     0.054 C 
HETATM    7  C11 UNL     1     -24.873 -31.789  25.843  1.00  0.00     0.086 A 
HETATM    8  O3  UNL     1     -28.483 -32.538  24.850  1.00  0.00    -0.341 OA
HETATM    9  C13 UNL     1     -28.747 -33.948  24.778  1.00  0.00     0.167 C 
HETATM   10  C21 UNL     1     -28.247 -34.349  26.157  1.00  0.00     0.080 C 
ENDROOT
BRANCH   9  11
HETATM   11  C14 UNL     1     -30.175 -34.281  24.528  1.00  0.00     0.087 C 
HETATM   12  C15 UNL     1     -30.710 -33.416  23.424  1.00  0.00     0.041 C 
HETATM   13  C16 UNL     1     -32.148 -33.709  23.121  1.00  0.00     0.006 C 
HETATM   14  C17 UNL     1     -32.985 -33.682  24.355  1.00  0.00     0.037 C 
HETATM   15  C18 UNL     1     -32.439 -34.644  25.394  1.00  0.00     0.057 C 
HETATM   16  C19 UNL     1     -32.573 -36.084  24.975  1.00  0.00     0.045 C 
HETATM   17  C20 UNL     1     -31.015 -34.271  25.779  1.00  0.00     0.077 C 
BRANCH  11  18
HETATM   18  O4  UNL     1     -30.189 -35.615  24.052  1.00  0.00    -0.387 OA
ATOM     19  H4  UNL     1     -30.200 -36.170  24.823  1.00  0.00     0.210 HD
ENDBRANCH  11  18
BRANCH  15  20
HETATM   20  O5  UNL     1     -33.215 -34.477  26.547  1.00  0.00    -0.390 OA
ATOM     21  H5  UNL     1     -32.800 -33.794  27.061  1.00  0.00     0.210 HD
ENDBRANCH  15  20
ENDBRANCH   9  11
BRANCH   2  22
HETATM   22  O1  UNL     1     -25.639 -34.895  27.611  1.00  0.00    -0.359 OA
ATOM     23  H1  UNL     1     -26.073 -35.708  27.378  1.00  0.00     0.217 HD
ENDBRANCH   2  22
BRANCH   7  24
HETATM   24  O2  UNL     1     -23.902 -30.806  25.569  1.00  0.00    -0.355 OA
HETATM   25  C12 UNL     1     -23.010 -30.961  24.470  1.00  0.00     0.210 C 
ENDBRANCH   7  24
BRANCH   1  26
HETATM   26  C3  UNL     1     -23.499 -33.190  27.416  1.00  0.00     0.020 C 
HETATM   27  C4  UNL     1     -23.324 -32.105  28.515  1.00  0.00     0.015 C 
BRANCH  26  28
HETATM   28  C2  UNL     1     -22.172 -33.335  26.802  1.00  0.00     0.005 C 
HETATM   29  C1  UNL     1     -22.051 -34.389  25.722  1.00  0.00     0.006 C 
ENDBRANCH  26  28
ENDBRANCH   1  26
TORSDOF 7
ENDMDL
MODEL 4
REMARK VINA RESULT: -7.953587863      1.564      7.652
REMARK  7 active torsions:
REMARK  status: ('A' for Active; 'I' for Inactive)
REMARK    1  A    between atoms: C2_2  and  C3_3 
REMARK    2  A    between atoms: C3_3  and  C5_5 
REMARK    3  A    between atoms: C6_6  and  O1_7 
REMARK    4  A    between atoms: C11_13  and  O2_14 
REMARK    5  A    between atoms: C13_17  and  C14_18 
REMARK    6  A    between atoms: C14_18  and  O4_19 
REMARK    7  A    between atoms: C18_24  and  O5_26 
ROOT
HETATM    1  C5  UNL     1     -29.504 -33.691  24.588  1.00  0.00     0.013 A 
HETATM    2  C6  UNL     1     -28.628 -34.472  25.387  1.00  0.00     0.084 A 
HETATM    3  C7  UNL     1     -27.387 -34.015  25.743  1.00  0.00     0.012 A 
HETATM    4  C8  UNL     1     -26.928 -32.781  25.345  1.00  0.00     0.087 A 
HETATM    5  C9  UNL     1     -27.782 -32.032  24.577  1.00  0.00     0.006 A 
HETATM    6  C10 UNL     1     -27.334 -30.689  24.118  1.00  0.00     0.054 C 
HETATM    7  C11 UNL     1     -29.062 -32.465  24.193  1.00  0.00     0.086 A 
HETATM    8  O3  UNL     1     -25.627 -32.590  25.857  1.00  0.00    -0.341 OA
HETATM    9  C13 UNL     1     -25.642 -33.337  27.083  1.00  0.00     0.167 C 
HETATM   10  C21 UNL     1     -26.276 -34.620  26.567  1.00  0.00     0.080 C 
ENDROOT
BRANCH   9  11
HETATM   11  C14 UNL     1     -24.298 -33.524  27.691  1.00  0.00     0.087 C 
HETATM   12  C15 UNL     1     -24.297 -32.989  29.093  1.00  0.00     0.041 C 
HETATM   13  C16 UNL     1     -22.966 -33.154  29.763  1.00  0.00     0.006 C 
HETATM   14  C17 UNL     1     -21.859 -32.616  28.921  1.00  0.00     0.037 C 
HETATM   15  C18 UNL     1     -21.864 -33.265  27.549  1.00  0.00     0.057 C 
HETATM   16  C19 UNL     1     -21.514 -34.729  27.601  1.00  0.00     0.045 C 
HETATM   17  C20 UNL     1     -23.178 -32.997  26.830  1.00  0.00     0.077 C 
BRANCH  11  18
HETATM   18  O4  UNL     1     -24.101 -34.924  27.783  1.00  0.00    -0.387 OA
ATOM     19  H4  UNL     1     -23.672 -35.075  28.617  1.00  0.00     0.210 HD
ENDBRANCH  11  18
BRANCH  15  20
HETATM   20  O5  UNL     1     -20.868 -32.631  26.798  1.00  0.00    -0.390 OA
ATOM     21  H5  UNL     1     -21.133 -31.724  26.702  1.00  0.00     0.210 HD
ENDBRANCH  15  20
ENDBRANCH   9  11
BRANCH   2  22
HETATM   22  O1  UNL     1     -29.005 -35.728  25.838  1.00  0.00    -0.359 OA
ATOM     23  H1  UNL     1     -28.378 -36.442  25.875  1.00  0.00     0.217 HD
ENDBRANCH   2  22
BRANCH   7  24
HETATM   24  O2  UNL     1     -29.806 -31.559  23.412  1.00  0.00    -0.355 OA
HETATM   25  C12 UNL     1     -29.600 -31.481  22.006  1.00  0.00     0.210 C 
ENDBRANCH   7  24
BRANCH   1  26
HETATM   26  C3  UNL     1     -30.756 -34.322  24.264  1.00  0.00     0.020 C 
HETATM   27  C4  UNL     1     -30.842 -34.451  22.718  1.00  0.00     0.015 C 
BRANCH  26  28
HETATM   28  C2  UNL     1     -32.054 -33.769  24.678  1.00  0.00     0.005 C 
HETATM   29  C1  UNL     1     -32.947 -33.266  23.563  1.00  0.00     0.006 C 
ENDBRANCH  26  28
ENDBRANCH   1  26
TORSDOF 7
ENDMDL
MODEL 5
REMARK VINA RESULT: -7.890622365      1.931      7.895
REMARK  7 active torsions:
REMARK  status: ('A' for Active; 'I' for Inactive)
REMARK    1  A    between atoms: C2_2  and  C3_3 
REMARK    2  A    between atoms: C3_3  and  C5_5 
REMARK    3  A    between atoms: C6_6  and  O1_7 
REMARK    4  A    between atoms: C11_13  and  O2_14 
REMARK    5  A    between atoms: C13_17  and  C14_18 
REMARK    6  A    between atoms: C14_18  and  O4_19 
REMARK    7  A    between atoms: C18_24  and  O5_26 
ROOT
HETATM    1  C5  UNL     1     -30.047 -33.559  24.200  1.00  0.00     0.013 A 
HETATM    2  C6  UNL     1     -29.437 -34.554  25.010  1.00  0.00     0.084 A 
HETATM    3  C7  UNL     1     -28.194 -34.369  25.555  1.00  0.00     0.012 A 
HETATM    4  C8  UNL     1     -27.476 -33.215  25.346  1.00  0.00     0.087 A 
HETATM    5  C9  UNL     1     -28.074 -32.258  24.565  1.00  0.00     0.006 A 
HETATM    6  C10 UNL     1     -27.339 -30.990  24.306  1.00  0.00     0.054 C 
HETATM    7  C11 UNL     1     -29.346 -32.410  23.991  1.00  0.00     0.086 A 
HETATM    8  O3  UNL     1     -26.243 -33.314  26.024  1.00  0.00    -0.341 OA
HETATM    9  C13 UNL     1     -26.554 -34.143  27.155  1.00  0.00     0.167 C 
HETATM   10  C21 UNL     1     -27.329 -35.237  26.436  1.00  0.00     0.080 C 
ENDROOT
BRANCH   9  11
HETATM   11  C14 UNL     1     -25.359 -34.628  27.893  1.00  0.00     0.087 C 
HETATM   12  C15 UNL     1     -24.220 -33.670  27.698  1.00  0.00     0.041 C 
HETATM   13  C16 UNL     1     -22.983 -34.103  28.425  1.00  0.00     0.006 C 
HETATM   14  C17 UNL     1     -22.629 -35.517  28.109  1.00  0.00     0.037 C 
HETATM   15  C18 UNL     1     -23.793 -36.442  28.414  1.00  0.00     0.057 C 
HETATM   16  C19 UNL     1     -24.090 -36.532  29.887  1.00  0.00     0.045 C 
HETATM   17  C20 UNL     1     -25.013 -36.063  27.587  1.00  0.00     0.077 C 
BRANCH  11  18
HETATM   18  O4  UNL     1     -25.702 -34.588  29.267  1.00  0.00    -0.387 OA
ATOM     19  H4  UNL     1     -25.270 -35.334  29.668  1.00  0.00     0.210 HD
ENDBRANCH  11  18
BRANCH  15  20
HETATM   20  O5  UNL     1     -23.414 -37.721  27.992  1.00  0.00    -0.390 OA
ATOM     21  H5  UNL     1     -24.184 -38.273  28.061  1.00  0.00     0.210 HD
ENDBRANCH  15  20
ENDBRANCH   9  11
BRANCH   2  22
HETATM   22  O1  UNL     1     -30.087 -35.749  25.279  1.00  0.00    -0.359 OA
ATOM     23  H1  UNL     1     -30.942 -35.935  24.907  1.00  0.00     0.217 HD
ENDBRANCH   2  22
BRANCH   7  24
HETATM   24  O2  UNL     1     -29.807 -31.320  23.227  1.00  0.00    -0.355 OA
HETATM   25  C12 UNL     1     -29.494 -31.226  21.842  1.00  0.00     0.210 C 
ENDBRANCH   7  24
BRANCH   1  26
HETATM   26  C3  UNL     1     -31.335 -33.915  23.667  1.00  0.00     0.020 C 
HETATM   27  C4  UNL     1     -31.134 -34.376  22.196  1.00  0.00     0.015 C 
BRANCH  26  28
HETATM   28  C2  UNL     1     -32.464 -32.974  23.626  1.00  0.00     0.005 C 
HETATM   29  C1  UNL     1     -33.771 -33.480  24.199  1.00  0.00     0.006 C 
ENDBRANCH  26  28
ENDBRANCH   1  26
TORSDOF 7
ENDMDL
