MODEL 1
REMARK VINA RESULT: -7.810965260      0.000      0.000
REMARK  13 active torsions:
REMARK  status: ('A' for Active; 'I' for Inactive)
REMARK       I    between atoms: C2_2  and  N1_4 
REMARK    1  A    between atoms: N1_4  and  C3_6 
REMARK    2  A    between atoms: C3_6  and  O2_7 
REMARK    3  A    between atoms: C3_6  and  N2_9 
REMARK    4  A    between atoms: N2_9  and  C4_11 
REMARK    5  A    between atoms: C4_11  and  C6_13 
REMARK    6  A    between atoms: C6_13  and  C7_15 
REMARK    7  A    between atoms: C8_18  and  C9_19 
REMARK    8  A    between atoms: C9_19  and  S1_20 
REMARK    9  A    between atoms: S1_20  and  C10_21 
REMARK   10  A    between atoms: C10_21  and  N4_23 
REMARK   11  A    between atoms: N4_23  and  C12_25 
REMARK   12  A    between atoms: C13_28  and  N6_29 
REMARK   13  A    between atoms: C14_34  and  N8_35 
ROOT
HETATM    1  C9  UNL     1      32.034  39.425  42.760  1.00  0.00     0.139 C 
ENDROOT
BRANCH   1   2
HETATM    2  C8  UNL     1      31.288  38.168  42.285  1.00  0.00     0.026 A 
HETATM    3  N3  UNL     1      31.271  37.844  41.035  1.00  0.00    -0.350 N 
HETATM    4  C7  UNL     1      30.630  36.745  40.637  1.00  0.00     0.122 A 
ATOM      5  H3  UNL     1      31.749  38.430  40.351  1.00  0.00     0.166 HD
HETATM    6  S3  UNL     1      30.018  36.144  42.114  1.00  0.00    -0.079 SA
HETATM    7  C15 UNL     1      30.633  37.355  43.167  1.00  0.00     0.077 A 
BRANCH   4   8
HETATM    8  C6  UNL     1      30.535  36.210  39.274  1.00  0.00     0.204 C 
HETATM    9  O3  UNL     1      31.452  36.408  38.488  1.00  0.00    -0.288 OA
BRANCH   8  10
HETATM   10  C4  UNL     1      29.329  35.443  38.904  1.00  0.00     0.153 C 
HETATM   11  C5  UNL     1      28.773  35.892  37.582  1.00  0.00     0.040 C 
BRANCH  10  12
HETATM   12  N2  UNL     1      29.644  34.058  38.991  1.00  0.00    -0.370 N 
ATOM     13  H2  UNL     1      29.520  33.554  39.869  1.00  0.00     0.158 HD
BRANCH  12  14
HETATM   14  C3  UNL     1      30.134  33.389  37.844  1.00  0.00     0.325 C 
BRANCH  14  15
HETATM   15  N1  UNL     1      29.590  32.095  37.604  1.00  0.00    -0.319 N 
HETATM   16  C2  UNL     1      29.759  31.070  38.566  1.00  0.00     0.216 C 
HETATM   17  C1  UNL     1      29.208  29.716  38.352  1.00  0.00     0.117 C 
HETATM   18  O1  UNL     1      30.387  31.285  39.635  1.00  0.00    -0.274 OA
ATOM     19  H1  UNL     1      29.080  31.908  36.741  1.00  0.00     0.166 HD
ENDBRANCH  14  15
BRANCH  14  20
HETATM   20  O2  UNL     1      31.534  33.318  37.809  1.00  0.00    -0.360 OA
ATOM     21  H2  UNL     1      31.863  33.160  38.687  1.00  0.00     0.214 HD
ENDBRANCH  14  20
ENDBRANCH  12  14
ENDBRANCH  10  12
ENDBRANCH   8  10
ENDBRANCH   4   8
ENDBRANCH   1   2
BRANCH   1  22
HETATM   22  S1  UNL     1      33.153  38.954  44.054  1.00  0.00    -0.094 SA
BRANCH  22  23
HETATM   23  C10 UNL     1      34.421  37.869  43.557  1.00  0.00     0.156 C 
HETATM   24  S2  UNL     1      35.025  38.171  42.006  1.00  0.00    -0.052 SA
BRANCH  23  25
HETATM   25  N4  UNL     1      34.963  36.808  44.287  1.00  0.00    -0.171 N 
HETATM   26  C11 UNL     1      34.531  35.442  44.353  1.00  0.00     0.177 C 
BRANCH  25  27
HETATM   27  C12 UNL     1      36.114  37.118  45.104  1.00  0.00     0.703 A 
HETATM   28  N5  UNL     1      36.918  36.119  45.454  1.00  0.00    -0.022 N 
HETATM   29  C13 UNL     1      37.985  36.425  46.232  1.00  0.00     0.693 A 
ATOM     30  H5  UNL     1      36.740  35.161  45.148  1.00  0.00     0.203 HD
HETATM   31  N7  UNL     1      38.197  37.691  46.621  1.00  0.00    -0.155 N 
HETATM   32  C14 UNL     1      37.392  38.712  46.275  1.00  0.00     0.278 A 
ATOM     33  H7  UNL     1      39.008  37.890  47.206  1.00  0.00     0.187 HD
HETATM   34  N9  UNL     1      36.325  38.379  45.490  1.00  0.00    -0.154 N 
ATOM     35  H9  UNL     1      35.676  39.109  45.192  1.00  0.00     0.187 HD
BRANCH  29  36
HETATM   36  N6  UNL     1      38.754  35.442  46.558  1.00  0.00    -0.234 N 
ATOM     37  H62 UNL     1      39.420  35.011  45.916  1.00  0.00     0.174 HD
ATOM     38  H61 UNL     1      38.669  35.099  47.515  1.00  0.00     0.174 HD
ENDBRANCH  29  36
BRANCH  32  39
HETATM   39  N8  UNL     1      37.623  40.046  46.697  1.00  0.00    -0.078 N 
HETATM   40  O4  UNL     1      38.665  40.321  47.502  1.00  0.00    -0.529 OA
HETATM   41  O5  UNL     1      36.792  41.021  46.291  1.00  0.00    -0.529 OA
ENDBRANCH  32  39
ENDBRANCH  25  27
ENDBRANCH  23  25
ENDBRANCH  22  23
ENDBRANCH   1  22
TORSDOF 13
ENDMDL
MODEL 2
REMARK VINA RESULT: -7.661651712      2.893      3.913
REMARK  13 active torsions:
REMARK  status: ('A' for Active; 'I' for Inactive)
REMARK       I    between atoms: C2_2  and  N1_4 
REMARK    1  A    between atoms: N1_4  and  C3_6 
REMARK    2  A    between atoms: C3_6  and  O2_7 
REMARK    3  A    between atoms: C3_6  and  N2_9 
REMARK    4  A    between atoms: N2_9  and  C4_11 
REMARK    5  A    between atoms: C4_11  and  C6_13 
REMARK    6  A    between atoms: C6_13  and  C7_15 
REMARK    7  A    between atoms: C8_18  and  C9_19 
REMARK    8  A    between atoms: C9_19  and  S1_20 
REMARK    9  A    between atoms: S1_20  and  C10_21 
REMARK   10  A    between atoms: C10_21  and  N4_23 
REMARK   11  A    between atoms: N4_23  and  C12_25 
REMARK   12  A    between atoms: C13_28  and  N6_29 
REMARK   13  A    between atoms: C14_34  and  N8_35 
ROOT
HETATM    1  C9  UNL     1      32.384  40.787  41.206  1.00  0.00     0.139 C 
ENDROOT
BRANCH   1   2
HETATM    2  C8  UNL     1      31.654  40.995  39.870  1.00  0.00     0.026 A 
HETATM    3  N3  UNL     1      31.369  39.989  39.111  1.00  0.00    -0.350 N 
HETATM    4  C7  UNL     1      30.727  40.181  37.960  1.00  0.00     0.122 A 
ATOM      5  H3  UNL     1      31.637  39.047  39.394  1.00  0.00     0.166 HD
HETATM    6  S3  UNL     1      30.519  41.876  37.953  1.00  0.00    -0.079 SA
HETATM    7  C15 UNL     1      31.279  42.241  39.452  1.00  0.00     0.077 A 
BRANCH   4   8
HETATM    8  C6  UNL     1      30.295  39.162  36.996  1.00  0.00     0.204 C 
HETATM    9  O3  UNL     1      30.532  39.326  35.806  1.00  0.00    -0.288 OA
BRANCH   8  10
HETATM   10  C4  UNL     1      29.592  37.968  37.504  1.00  0.00     0.153 C 
HETATM   11  C5  UNL     1      28.269  37.773  36.818  1.00  0.00     0.040 C 
BRANCH  10  12
HETATM   12  N2  UNL     1      30.485  36.864  37.425  1.00  0.00    -0.370 N 
ATOM     13  H2  UNL     1      30.815  36.531  36.519  1.00  0.00     0.158 HD
BRANCH  12  14
HETATM   14  C3  UNL     1      30.910  36.233  38.618  1.00  0.00     0.325 C 
BRANCH  14  15
HETATM   15  N1  UNL     1      29.914  36.072  39.622  1.00  0.00    -0.319 N 
HETATM   16  C2  UNL     1      30.219  35.369  40.812  1.00  0.00     0.216 C 
HETATM   17  C1  UNL     1      29.211  35.183  41.877  1.00  0.00     0.117 C 
HETATM   18  O1  UNL     1      31.364  34.880  40.997  1.00  0.00    -0.274 OA
ATOM     19  H1  UNL     1      28.982  36.463  39.484  1.00  0.00     0.166 HD
ENDBRANCH  14  15
BRANCH  14  20
HETATM   20  O2  UNL     1      32.044  36.837  39.182  1.00  0.00    -0.360 OA
ATOM     21  H2  UNL     1      32.730  36.891  38.526  1.00  0.00     0.214 HD
ENDBRANCH  14  20
ENDBRANCH  12  14
ENDBRANCH  10  12
ENDBRANCH   8  10
ENDBRANCH   4   8
ENDBRANCH   1   2
BRANCH   1  22
HETATM   22  S1  UNL     1      33.568  39.481  40.998  1.00  0.00    -0.094 SA
BRANCH  22  23
HETATM   23  C10 UNL     1      33.442  38.196  42.167  1.00  0.00     0.156 C 
HETATM   24  S2  UNL     1      31.915  38.054  42.880  1.00  0.00    -0.052 SA
BRANCH  23  25
HETATM   25  N4  UNL     1      34.446  37.308  42.561  1.00  0.00    -0.171 N 
HETATM   26  C11 UNL     1      34.769  36.015  42.030  1.00  0.00     0.177 C 
BRANCH  25  27
HETATM   27  C12 UNL     1      35.276  37.732  43.665  1.00  0.00     0.703 A 
HETATM   28  N5  UNL     1      35.222  39.010  44.031  1.00  0.00    -0.022 N 
HETATM   29  C13 UNL     1      36.018  39.394  45.058  1.00  0.00     0.693 A 
ATOM     30  H5  UNL     1      34.606  39.672  43.558  1.00  0.00     0.203 HD
HETATM   31  N7  UNL     1      36.819  38.504  45.663  1.00  0.00    -0.155 N 
HETATM   32  C14 UNL     1      36.885  37.209  45.303  1.00  0.00     0.278 A 
ATOM     33  H7  UNL     1      37.406  38.824  46.433  1.00  0.00     0.187 HD
HETATM   34  N9  UNL     1      36.073  36.845  44.267  1.00  0.00    -0.154 N 
ATOM     35  H9  UNL     1      36.075  35.877  43.946  1.00  0.00     0.187 HD
BRANCH  29  36
HETATM   36  N6  UNL     1      35.949  40.637  45.400  1.00  0.00    -0.234 N 
ATOM     37  H62 UNL     1      35.107  41.071  45.778  1.00  0.00     0.174 HD
ATOM     38  H61 UNL     1      36.797  41.188  45.273  1.00  0.00     0.174 HD
ENDBRANCH  29  36
BRANCH  32  39
HETATM   39  N8  UNL     1      37.740  36.278  45.946  1.00  0.00    -0.078 N 
HETATM   40  O4  UNL     1      38.861  36.709  46.550  1.00  0.00    -0.529 OA
HETATM   41  O5  UNL     1      37.421  34.973  45.937  1.00  0.00    -0.529 OA
ENDBRANCH  32  39
ENDBRANCH  25  27
ENDBRANCH  23  25
ENDBRANCH  22  23
ENDBRANCH   1  22
TORSDOF 13
ENDMDL
MODEL 3
REMARK VINA RESULT: -7.646650999      4.884     10.361
REMARK  13 active torsions:
REMARK  status: ('A' for Active; 'I' for Inactive)
REMARK       I    between atoms: C2_2  and  N1_4 
REMARK    1  A    between atoms: N1_4  and  C3_6 
REMARK    2  A    between atoms: C3_6  and  O2_7 
REMARK    3  A    between atoms: C3_6  and  N2_9 
REMARK    4  A    between atoms: N2_9  and  C4_11 
REMARK    5  A    between atoms: C4_11  and  C6_13 
REMARK    6  A    between atoms: C6_13  and  C7_15 
REMARK    7  A    between atoms: C8_18  and  C9_19 
REMARK    8  A    between atoms: C9_19  and  S1_20 
REMARK    9  A    between atoms: S1_20  and  C10_21 
REMARK   10  A    between atoms: C10_21  and  N4_23 
REMARK   11  A    between atoms: N4_23  and  C12_25 
REMARK   12  A    between atoms: C13_28  and  N6_29 
REMARK   13  A    between atoms: C14_34  and  N8_35 
ROOT
HETATM    1  C9  UNL     1      27.189  34.907  36.834  1.00  0.00     0.139 C 
ENDROOT
BRANCH   1   2
HETATM    2  C8  UNL     1      28.278  34.438  37.812  1.00  0.00     0.026 A 
HETATM    3  N3  UNL     1      28.131  34.593  39.086  1.00  0.00    -0.350 N 
HETATM    4  C7  UNL     1      29.077  34.172  39.924  1.00  0.00     0.122 A 
ATOM      5  H3  UNL     1      27.289  35.037  39.451  1.00  0.00     0.166 HD
HETATM    6  S3  UNL     1      30.236  33.527  38.848  1.00  0.00    -0.079 SA
HETATM    7  C15 UNL     1      29.423  33.839  37.366  1.00  0.00     0.077 A 
BRANCH   4   8
HETATM    8  C6  UNL     1      29.065  34.234  41.390  1.00  0.00     0.204 C 
HETATM    9  O3  UNL     1      28.607  33.293  42.025  1.00  0.00    -0.288 OA
BRANCH   8  10
HETATM   10  C4  UNL     1      29.615  35.437  42.046  1.00  0.00     0.153 C 
HETATM   11  C5  UNL     1      29.751  35.242  43.531  1.00  0.00     0.040 C 
BRANCH  10  12
HETATM   12  N2  UNL     1      30.813  35.799  41.370  1.00  0.00    -0.370 N 
ATOM     13  H2  UNL     1      30.799  36.005  40.371  1.00  0.00     0.158 HD
BRANCH  12  14
HETATM   14  C3  UNL     1      32.023  35.869  42.099  1.00  0.00     0.325 C 
BRANCH  14  15
HETATM   15  N1  UNL     1      32.695  37.123  42.064  1.00  0.00    -0.319 N 
HETATM   16  C2  UNL     1      33.082  37.681  40.821  1.00  0.00     0.216 C 
HETATM   17  C1  UNL     1      33.781  38.981  40.745  1.00  0.00     0.117 C 
HETATM   18  O1  UNL     1      32.841  37.081  39.741  1.00  0.00    -0.274 OA
ATOM     19  H1  UNL     1      32.898  37.619  42.931  1.00  0.00     0.166 HD
ENDBRANCH  14  15
BRANCH  14  20
HETATM   20  O2  UNL     1      32.925  34.849  41.760  1.00  0.00    -0.360 OA
ATOM     21  H2  UNL     1      32.681  34.480  40.919  1.00  0.00     0.214 HD
ENDBRANCH  14  20
ENDBRANCH  12  14
ENDBRANCH  10  12
ENDBRANCH   8  10
ENDBRANCH   4   8
ENDBRANCH   1   2
BRANCH   1  22
HETATM   22  S1  UNL     1      26.122  33.532  36.486  1.00  0.00    -0.094 SA
BRANCH  22  23
HETATM   23  C10 UNL     1      26.863  32.255  35.562  1.00  0.00     0.156 C 
HETATM   24  S2  UNL     1      27.551  32.765  34.102  1.00  0.00    -0.052 SA
BRANCH  23  25
HETATM   25  N4  UNL     1      26.938  30.901  35.895  1.00  0.00    -0.171 N 
HETATM   26  C11 UNL     1      26.128  29.810  35.435  1.00  0.00     0.177 C 
BRANCH  25  27
HETATM   27  C12 UNL     1      27.963  30.533  36.845  1.00  0.00     0.703 A 
HETATM   28  N5  UNL     1      29.166  30.218  36.373  1.00  0.00    -0.022 N 
HETATM   29  C13 UNL     1      30.112  29.861  37.276  1.00  0.00     0.693 A 
ATOM     30  H5  UNL     1      29.368  30.243  35.373  1.00  0.00     0.203 HD
HETATM   31  N7  UNL     1      29.821  29.834  38.585  1.00  0.00    -0.155 N 
HETATM   32  C14 UNL     1      28.609  30.150  39.077  1.00  0.00     0.278 A 
ATOM     33  H7  UNL     1      30.554  29.561  39.240  1.00  0.00     0.187 HD
HETATM   34  N9  UNL     1      27.673  30.508  38.148  1.00  0.00    -0.154 N 
ATOM     35  H9  UNL     1      26.734  30.760  38.456  1.00  0.00     0.187 HD
BRANCH  29  36
HETATM   36  N6  UNL     1      31.272  29.561  36.799  1.00  0.00    -0.234 N 
ATOM     37  H62 UNL     1      31.438  29.346  35.815  1.00  0.00     0.174 HD
ATOM     38  H61 UNL     1      32.044  29.545  37.465  1.00  0.00     0.174 HD
ENDBRANCH  29  36
BRANCH  32  39
HETATM   39  N8  UNL     1      28.311  30.113  40.463  1.00  0.00    -0.078 N 
HETATM   40  O4  UNL     1      29.312  30.123  41.361  1.00  0.00    -0.529 OA
HETATM   41  O5  UNL     1      27.029  30.062  40.862  1.00  0.00    -0.529 OA
ENDBRANCH  32  39
ENDBRANCH  25  27
ENDBRANCH  23  25
ENDBRANCH  22  23
ENDBRANCH   1  22
TORSDOF 13
ENDMDL
MODEL 4
REMARK VINA RESULT: -7.628756162      1.627      2.220
REMARK  13 active torsions:
REMARK  status: ('A' for Active; 'I' for Inactive)
REMARK       I    between atoms: C2_2  and  N1_4 
REMARK    1  A    between atoms: N1_4  and  C3_6 
REMARK    2  A    between atoms: C3_6  and  O2_7 
REMARK    3  A    between atoms: C3_6  and  N2_9 
REMARK    4  A    between atoms: N2_9  and  C4_11 
REMARK    5  A    between atoms: C4_11  and  C6_13 
REMARK    6  A    between atoms: C6_13  and  C7_15 
REMARK    7  A    between atoms: C8_18  and  C9_19 
REMARK    8  A    between atoms: C9_19  and  S1_20 
REMARK    9  A    between atoms: S1_20  and  C10_21 
REMARK   10  A    between atoms: C10_21  and  N4_23 
REMARK   11  A    between atoms: N4_23  and  C12_25 
REMARK   12  A    between atoms: C13_28  and  N6_29 
REMARK   13  A    between atoms: C14_34  and  N8_35 
ROOT
HETATM    1  C9  UNL     1      31.113  38.994  42.568  1.00  0.00     0.139 C 
ENDROOT
BRANCH   1   2
HETATM    2  C8  UNL     1      30.671  37.642  41.987  1.00  0.00     0.026 A 
HETATM    3  N3  UNL     1      30.696  37.433  40.712  1.00  0.00    -0.350 N 
HETATM    4  C7  UNL     1      30.320  36.252  40.221  1.00  0.00     0.122 A 
ATOM      5  H3  UNL     1      31.003  38.172  40.081  1.00  0.00     0.166 HD
HETATM    6  S3  UNL     1      29.909  35.397  41.641  1.00  0.00    -0.079 SA
HETATM    7  C15 UNL     1      30.251  36.624  42.796  1.00  0.00     0.077 A 
BRANCH   4   8
HETATM    8  C6  UNL     1      30.315  35.830  38.816  1.00  0.00     0.204 C 
HETATM    9  O3  UNL     1      31.280  36.091  38.109  1.00  0.00    -0.288 OA
BRANCH   8  10
HETATM   10  C4  UNL     1      29.139  35.096  38.308  1.00  0.00     0.153 C 
HETATM   11  C5  UNL     1      28.842  35.452  36.878  1.00  0.00     0.040 C 
BRANCH  10  12
HETATM   12  N2  UNL     1      29.344  33.710  38.557  1.00  0.00    -0.370 N 
ATOM     13  H2  UNL     1      28.945  33.271  39.387  1.00  0.00     0.158 HD
BRANCH  12  14
HETATM   14  C3  UNL     1      30.107  32.949  37.641  1.00  0.00     0.325 C 
BRANCH  14  15
HETATM   15  N1  UNL     1      29.782  31.565  37.565  1.00  0.00    -0.319 N 
HETATM   16  C2  UNL     1      29.931  30.741  38.707  1.00  0.00     0.216 C 
HETATM   17  C1  UNL     1      29.603  29.302  38.666  1.00  0.00     0.117 C 
HETATM   18  O1  UNL     1      30.349  31.217  39.795  1.00  0.00    -0.274 OA
ATOM     19  H1  UNL     1      29.443  31.168  36.689  1.00  0.00     0.166 HD
ENDBRANCH  14  15
BRANCH  14  20
HETATM   20  O2  UNL     1      31.490  33.091  37.830  1.00  0.00    -0.360 OA
ATOM     21  H2  UNL     1      31.659  33.883  38.328  1.00  0.00     0.214 HD
ENDBRANCH  14  20
ENDBRANCH  12  14
ENDBRANCH  10  12
ENDBRANCH   8  10
ENDBRANCH   4   8
ENDBRANCH   1   2
BRANCH   1  22
HETATM   22  S1  UNL     1      32.645  38.755  43.433  1.00  0.00    -0.094 SA
BRANCH  22  23
HETATM   23  C10 UNL     1      33.982  38.286  42.421  1.00  0.00     0.156 C 
HETATM   24  S2  UNL     1      33.986  39.013  40.893  1.00  0.00    -0.052 SA
BRANCH  23  25
HETATM   25  N4  UNL     1      35.011  37.396  42.736  1.00  0.00    -0.171 N 
HETATM   26  C11 UNL     1      35.370  36.164  42.095  1.00  0.00     0.177 C 
BRANCH  25  27
HETATM   27  C12 UNL     1      35.832  37.746  43.873  1.00  0.00     0.703 A 
HETATM   28  N5  UNL     1      35.935  39.032  44.196  1.00  0.00    -0.022 N 
HETATM   29  C13 UNL     1      36.720  39.345  45.256  1.00  0.00     0.693 A 
ATOM     30  H5  UNL     1      35.443  39.753  43.667  1.00  0.00     0.203 HD
HETATM   31  N7  UNL     1      37.357  38.378  45.934  1.00  0.00    -0.155 N 
HETATM   32  C14 UNL     1      37.262  37.073  45.618  1.00  0.00     0.278 A 
ATOM     33  H7  UNL     1      37.940  38.644  46.726  1.00  0.00     0.187 HD
HETATM   34  N9  UNL     1      36.465  36.783  44.548  1.00  0.00    -0.154 N 
ATOM     35  H9  UNL     1      36.350  35.811  44.259  1.00  0.00     0.187 HD
BRANCH  29  36
HETATM   36  N6  UNL     1      36.805  40.597  45.554  1.00  0.00    -0.234 N 
ATOM     37  H62 UNL     1      37.654  41.034  45.910  1.00  0.00     0.174 HD
ATOM     38  H61 UNL     1      35.961  41.152  45.414  1.00  0.00     0.174 HD
ENDBRANCH  29  36
BRANCH  32  39
HETATM   39  N8  UNL     1      37.945  36.060  46.339  1.00  0.00    -0.078 N 
HETATM   40  O4  UNL     1      38.820  36.400  47.302  1.00  0.00    -0.529 OA
HETATM   41  O5  UNL     1      37.712  34.770  46.046  1.00  0.00    -0.529 OA
ENDBRANCH  32  39
ENDBRANCH  25  27
ENDBRANCH  23  25
ENDBRANCH  22  23
ENDBRANCH   1  22
TORSDOF 13
ENDMDL
MODEL 5
REMARK VINA RESULT: -7.583330948      2.234      3.134
REMARK  13 active torsions:
REMARK  status: ('A' for Active; 'I' for Inactive)
REMARK       I    between atoms: C2_2  and  N1_4 
REMARK    1  A    between atoms: N1_4  and  C3_6 
REMARK    2  A    between atoms: C3_6  and  O2_7 
REMARK    3  A    between atoms: C3_6  and  N2_9 
REMARK    4  A    between atoms: N2_9  and  C4_11 
REMARK    5  A    between atoms: C4_11  and  C6_13 
REMARK    6  A    between atoms: C6_13  and  C7_15 
REMARK    7  A    between atoms: C8_18  and  C9_19 
REMARK    8  A    between atoms: C9_19  and  S1_20 
REMARK    9  A    between atoms: S1_20  and  C10_21 
REMARK   10  A    between atoms: C10_21  and  N4_23 
REMARK   11  A    between atoms: N4_23  and  C12_25 
REMARK   12  A    between atoms: C13_28  and  N6_29 
REMARK   13  A    between atoms: C14_34  and  N8_35 
ROOT
HETATM    1  C9  UNL     1      31.204  35.799  41.761  1.00  0.00     0.139 C 
ENDROOT
BRANCH   1   2
HETATM    2  C8  UNL     1      30.443  36.057  40.451  1.00  0.00     0.026 A 
HETATM    3  N3  UNL     1      29.626  35.175  39.979  1.00  0.00    -0.350 N 
HETATM    4  C7  UNL     1      28.963  35.415  38.848  1.00  0.00     0.122 A 
ATOM      5  H3  UNL     1      29.487  34.294  40.472  1.00  0.00     0.166 HD
HETATM    6  S3  UNL     1      29.532  36.971  38.433  1.00  0.00    -0.079 SA
HETATM    7  C15 UNL     1      30.599  37.224  39.757  1.00  0.00     0.077 A 
BRANCH   4   8
HETATM    8  C6  UNL     1      27.979  34.550  38.188  1.00  0.00     0.204 C 
HETATM    9  O3  UNL     1      26.958  35.047  37.729  1.00  0.00    -0.288 OA
BRANCH   8  10
HETATM   10  C4  UNL     1      28.264  33.105  38.097  1.00  0.00     0.153 C 
HETATM   11  C5  UNL     1      27.052  32.330  37.660  1.00  0.00     0.040 C 
BRANCH  10  12
HETATM   12  N2  UNL     1      29.418  32.934  37.284  1.00  0.00    -0.370 N 
ATOM     13  H2  UNL     1      29.386  33.152  36.288  1.00  0.00     0.158 HD
BRANCH  12  14
HETATM   14  C3  UNL     1      30.613  32.456  37.873  1.00  0.00     0.325 C 
BRANCH  14  15
HETATM   15  N1  UNL     1      30.452  31.675  39.053  1.00  0.00    -0.319 N 
HETATM   16  C2  UNL     1      30.543  30.264  38.982  1.00  0.00     0.216 C 
HETATM   17  C1  UNL     1      30.382  29.421  40.185  1.00  0.00     0.117 C 
HETATM   18  O1  UNL     1      30.765  29.686  37.886  1.00  0.00    -0.274 OA
ATOM     19  H1  UNL     1      30.271  32.132  39.946  1.00  0.00     0.166 HD
ENDBRANCH  14  15
BRANCH  14  20
HETATM   20  O2  UNL     1      31.548  33.474  38.115  1.00  0.00    -0.360 OA
ATOM     21  H2  UNL     1      32.394  33.211  37.770  1.00  0.00     0.214 HD
ENDBRANCH  14  20
ENDBRANCH  12  14
ENDBRANCH  10  12
ENDBRANCH   8  10
ENDBRANCH   4   8
ENDBRANCH   1   2
BRANCH   1  22
HETATM   22  S1  UNL     1      31.840  37.348  42.352  1.00  0.00    -0.094 SA
BRANCH  22  23
HETATM   23  C10 UNL     1      33.512  37.640  41.964  1.00  0.00     0.156 C 
HETATM   24  S2  UNL     1      33.765  38.955  40.931  1.00  0.00    -0.052 SA
BRANCH  23  25
HETATM   25  N4  UNL     1      34.623  36.916  42.404  1.00  0.00    -0.171 N 
HETATM   26  C11 UNL     1      35.153  35.681  41.905  1.00  0.00     0.177 C 
BRANCH  25  27
HETATM   27  C12 UNL     1      35.343  37.473  43.527  1.00  0.00     0.703 A 
HETATM   28  N5  UNL     1      35.127  38.749  43.835  1.00  0.00    -0.022 N 
HETATM   29  C13 UNL     1      35.822  39.260  44.881  1.00  0.00     0.693 A 
ATOM     30  H5  UNL     1      34.467  39.319  43.306  1.00  0.00     0.203 HD
HETATM   31  N7  UNL     1      36.686  38.489  45.560  1.00  0.00    -0.155 N 
HETATM   32  C14 UNL     1      36.914  37.198  45.259  1.00  0.00     0.278 A 
ATOM     33  H7  UNL     1      37.193  38.902  46.342  1.00  0.00     0.187 HD
HETATM   34  N9  UNL     1      36.202  36.706  44.202  1.00  0.00    -0.154 N 
ATOM     35  H9  UNL     1      36.328  35.732  43.924  1.00  0.00     0.187 HD
BRANCH  29  36
HETATM   36  N6  UNL     1      35.597  40.498  45.165  1.00  0.00    -0.234 N 
ATOM     37  H62 UNL     1      34.669  40.870  45.367  1.00  0.00     0.174 HD
ATOM     38  H61 UNL     1      36.411  41.113  45.181  1.00  0.00     0.174 HD
ENDBRANCH  29  36
BRANCH  32  39
HETATM   39  N8  UNL     1      37.834  36.395  45.980  1.00  0.00    -0.078 N 
HETATM   40  O4  UNL     1      37.654  35.064  46.039  1.00  0.00    -0.529 OA
HETATM   41  O5  UNL     1      38.873  36.977  46.601  1.00  0.00    -0.529 OA
ENDBRANCH  32  39
ENDBRANCH  25  27
ENDBRANCH  23  25
ENDBRANCH  22  23
ENDBRANCH   1  22
TORSDOF 13
ENDMDL
