MODEL 1
REMARK VINA RESULT: -9.233294859      0.000      0.000
REMARK  8 active torsions:
REMARK  status: ('A' for Active; 'I' for Inactive)
REMARK    1  A    between atoms: C2_2  and  C3_4 
REMARK    2  A    between atoms: C13_14  and  O2_15 
REMARK    3  A    between atoms: O2_15  and  C14_16 
REMARK    4  A    between atoms: C14_16  and  C15_17 
REMARK    5  A    between atoms: C16_18  and  C17_19 
REMARK    6  A    between atoms: C17_19  and  N1_20 
REMARK    7  A    between atoms: C20_26  and  C21_27 
REMARK    8  A    between atoms: C21_27  and  O3_28 
ROOT
HETATM    1  C3  UNL     1      37.014  20.215  40.834  1.00  0.00     0.063 C 
HETATM    2  C4  UNL     1      38.141  19.329  40.347  1.00  0.00     0.013 C 
HETATM    3  C5  UNL     1      39.048  20.183  39.488  1.00  0.00     0.006 C 
HETATM    4  C6  UNL     1      38.181  21.363  39.196  1.00  0.00    -0.001 C 
HETATM    5  C7  UNL     1      38.849  22.530  38.578  1.00  0.00    -0.005 C 
HETATM    6  C8  UNL     1      38.987  22.238  37.101  1.00  0.00     0.006 C 
HETATM    7  C9  UNL     1      38.535  23.378  36.240  1.00  0.00     0.006 C 
HETATM    8  C10 UNL     1      39.158  24.630  36.821  1.00  0.00     0.000 C 
HETATM    9  C11 UNL     1      39.282  25.753  35.862  1.00  0.00     0.015 C 
HETATM   10  C12 UNL     1      40.325  25.344  34.812  1.00  0.00     0.013 C 
HETATM   11  C13 UNL     1      39.802  26.977  36.533  1.00  0.00     0.126 C 
HETATM   12  C23 UNL     1      39.310  27.234  37.914  1.00  0.00     0.033 C 
HETATM   13  C24 UNL     1      39.136  26.037  38.774  1.00  0.00     0.012 C 
HETATM   14  C25 UNL     1      38.327  24.950  38.048  1.00  0.00    -0.036 C 
HETATM   15  C26 UNL     1      37.013  25.632  37.665  1.00  0.00     0.016 C 
HETATM   16  C27 UNL     1      38.090  23.768  38.901  1.00  0.00    -0.002 C 
HETATM   17  C28 UNL     1      36.624  23.402  39.048  1.00  0.00     0.006 C 
HETATM   18  C29 UNL     1      36.494  22.638  40.375  1.00  0.00     0.011 C 
HETATM   19  C30 UNL     1      37.561  21.618  40.547  1.00  0.00    -0.030 C 
HETATM   20  C31 UNL     1      38.559  21.911  41.613  1.00  0.00     0.016 C 
ENDROOT
BRANCH  11  21
HETATM   21  O2  UNL     1      39.562  28.101  35.745  1.00  0.00    -0.374 OA
BRANCH  21  22
HETATM   22  C14 UNL     1      39.688  29.298  36.396  1.00  0.00     0.261 C 
BRANCH  22  23
HETATM   23  C15 UNL     1      40.089  30.399  35.522  1.00  0.00    -0.079 C 
HETATM   24  C16 UNL     1      40.428  31.321  34.816  1.00  0.00    -0.074 C 
BRANCH  24  25
HETATM   25  C17 UNL     1      40.831  32.421  33.975  1.00  0.00     0.365 C 
BRANCH  25  26
HETATM   26  N1  UNL     1      41.765  31.976  32.965  1.00  0.00     0.103 N 
HETATM   27  C18 UNL     1      42.426  33.128  32.364  1.00  0.00     0.301 C 
HETATM   28  C19 UNL     1      42.971  32.702  31.022  1.00  0.00     0.263 C 
HETATM   29  N2  UNL     1      43.382  31.317  31.028  1.00  0.00    -0.066 N 
HETATM   30  C20 UNL     1      42.225  30.446  31.200  1.00  0.00     0.237 C 
ATOM     31  H22 UNL     1      43.919  31.075  30.195  1.00  0.00     0.277 HD
ATOM     32  H21 UNL     1      44.101  31.136  31.728  1.00  0.00     0.277 HD
HETATM   33  C22 UNL     1      41.128  31.255  31.896  1.00  0.00     0.308 C 
BRANCH  30  34
HETATM   34  C21 UNL     1      42.648  29.339  32.156  1.00  0.00     0.199 C 
BRANCH  34  35
HETATM   35  O3  UNL     1      41.569  28.699  32.718  1.00  0.00    -0.399 OA
ATOM     36  H3  UNL     1      41.742  27.780  32.880  1.00  0.00     0.209 HD
ENDBRANCH  34  35
ENDBRANCH  30  34
ENDBRANCH  25  26
ENDBRANCH  24  25
ENDBRANCH  22  23
ENDBRANCH  21  22
ENDBRANCH  11  21
BRANCH   1  37
HETATM   37  C2  UNL     1      36.780  19.971  42.267  1.00  0.00     0.128 C 
HETATM   38  C1  UNL     1      35.588  20.408  43.017  1.00  0.00     0.091 C 
HETATM   39  O1  UNL     1      37.629  19.353  42.929  1.00  0.00    -0.298 OA
ENDBRANCH   1  37
TORSDOF 8
ENDMDL
MODEL 2
REMARK VINA RESULT: -9.010647002      8.069     11.893
REMARK  8 active torsions:
REMARK  status: ('A' for Active; 'I' for Inactive)
REMARK    1  A    between atoms: C2_2  and  C3_4 
REMARK    2  A    between atoms: C13_14  and  O2_15 
REMARK    3  A    between atoms: O2_15  and  C14_16 
REMARK    4  A    between atoms: C14_16  and  C15_17 
REMARK    5  A    between atoms: C16_18  and  C17_19 
REMARK    6  A    between atoms: C17_19  and  N1_20 
REMARK    7  A    between atoms: C20_26  and  C21_27 
REMARK    8  A    between atoms: C21_27  and  O3_28 
ROOT
HETATM    1  C3  UNL     1      50.632  23.623  32.118  1.00  0.00     0.063 C 
HETATM    2  C4  UNL     1      50.974  24.153  33.495  1.00  0.00     0.013 C 
HETATM    3  C5  UNL     1      50.411  25.554  33.592  1.00  0.00     0.006 C 
HETATM    4  C6  UNL     1      50.160  25.890  32.159  1.00  0.00    -0.001 C 
HETATM    5  C7  UNL     1      49.363  27.110  31.902  1.00  0.00    -0.005 C 
HETATM    6  C8  UNL     1      50.296  28.292  32.038  1.00  0.00     0.006 C 
HETATM    7  C9  UNL     1      50.182  29.255  30.896  1.00  0.00     0.006 C 
HETATM    8  C10 UNL     1      48.701  29.486  30.673  1.00  0.00     0.000 C 
HETATM    9  C11 UNL     1      48.378  30.756  29.982  1.00  0.00     0.015 C 
HETATM   10  C12 UNL     1      48.732  31.901  30.942  1.00  0.00     0.013 C 
HETATM   11  C13 UNL     1      46.917  30.860  29.706  1.00  0.00     0.126 C 
HETATM   12  C23 UNL     1      46.229  29.603  29.305  1.00  0.00     0.033 C 
HETATM   13  C24 UNL     1      46.682  28.367  29.992  1.00  0.00     0.012 C 
HETATM   14  C25 UNL     1      48.214  28.245  29.952  1.00  0.00    -0.036 C 
HETATM   15  C26 UNL     1      48.571  28.291  28.466  1.00  0.00     0.016 C 
HETATM   16  C27 UNL     1      48.690  26.996  30.580  1.00  0.00    -0.002 C 
HETATM   17  C28 UNL     1      49.562  26.147  29.673  1.00  0.00     0.006 C 
HETATM   18  C29 UNL     1      49.441  24.701  30.177  1.00  0.00     0.011 C 
HETATM   19  C30 UNL     1      49.551  24.606  31.656  1.00  0.00    -0.030 C 
HETATM   20  C31 UNL     1      48.298  24.224  32.366  1.00  0.00     0.016 C 
ENDROOT
BRANCH  11  21
HETATM   21  O2  UNL     1      46.674  31.841  28.747  1.00  0.00    -0.374 OA
BRANCH  21  22
HETATM   22  C14 UNL     1      46.306  33.059  29.251  1.00  0.00     0.261 C 
BRANCH  22  23
HETATM   23  C15 UNL     1      45.099  33.011  30.073  1.00  0.00    -0.079 C 
HETATM   24  C16 UNL     1      44.092  32.991  30.745  1.00  0.00    -0.074 C 
BRANCH  24  25
HETATM   25  C17 UNL     1      42.895  32.968  31.547  1.00  0.00     0.365 C 
BRANCH  25  26
HETATM   26  N1  UNL     1      42.645  31.636  32.052  1.00  0.00     0.103 N 
HETATM   27  C18 UNL     1      43.155  30.648  31.109  1.00  0.00     0.301 C 
HETATM   28  C19 UNL     1      42.451  29.340  31.380  1.00  0.00     0.263 C 
HETATM   29  N2  UNL     1      42.136  29.184  32.783  1.00  0.00    -0.066 N 
HETATM   30  C20 UNL     1      41.150  30.177  33.193  1.00  0.00     0.237 C 
ATOM     31  H22 UNL     1      41.834  28.235  33.001  1.00  0.00     0.277 HD
ATOM     32  H21 UNL     1      42.972  29.215  33.366  1.00  0.00     0.277 HD
HETATM   33  C22 UNL     1      41.244  31.360  32.229  1.00  0.00     0.308 C 
BRANCH  30  34
HETATM   34  C21 UNL     1      41.577  30.676  34.567  1.00  0.00     0.199 C 
BRANCH  34  35
HETATM   35  O3  UNL     1      41.202  29.815  35.571  1.00  0.00    -0.399 OA
ATOM     36  H3  UNL     1      41.329  28.905  35.329  1.00  0.00     0.209 HD
ENDBRANCH  34  35
ENDBRANCH  30  34
ENDBRANCH  25  26
ENDBRANCH  24  25
ENDBRANCH  22  23
ENDBRANCH  21  22
ENDBRANCH  11  21
BRANCH   1  37
HETATM   37  C2  UNL     1      50.142  22.239  32.232  1.00  0.00     0.128 C 
HETATM   38  C1  UNL     1      49.857  21.346  31.094  1.00  0.00     0.091 C 
HETATM   39  O1  UNL     1      49.941  21.752  33.356  1.00  0.00    -0.298 OA
ENDBRANCH   1  37
TORSDOF 8
ENDMDL
MODEL 3
REMARK VINA RESULT: -8.798899391      9.161     12.122
REMARK  8 active torsions:
REMARK  status: ('A' for Active; 'I' for Inactive)
REMARK    1  A    between atoms: C2_2  and  C3_4 
REMARK    2  A    between atoms: C13_14  and  O2_15 
REMARK    3  A    between atoms: O2_15  and  C14_16 
REMARK    4  A    between atoms: C14_16  and  C15_17 
REMARK    5  A    between atoms: C16_18  and  C17_19 
REMARK    6  A    between atoms: C17_19  and  N1_20 
REMARK    7  A    between atoms: C20_26  and  C21_27 
REMARK    8  A    between atoms: C21_27  and  O3_28 
ROOT
HETATM    1  C3  UNL     1      50.833  24.401  31.766  1.00  0.00     0.063 C 
HETATM    2  C4  UNL     1      51.394  25.021  33.029  1.00  0.00     0.013 C 
HETATM    3  C5  UNL     1      50.795  26.405  33.157  1.00  0.00     0.006 C 
HETATM    4  C6  UNL     1      50.275  26.649  31.778  1.00  0.00    -0.001 C 
HETATM    5  C7  UNL     1      49.391  27.823  31.610  1.00  0.00    -0.005 C 
HETATM    6  C8  UNL     1      50.279  29.043  31.514  1.00  0.00     0.006 C 
HETATM    7  C9  UNL     1      49.917  29.935  30.365  1.00  0.00     0.006 C 
HETATM    8  C10 UNL     1      48.412  30.100  30.405  1.00  0.00     0.000 C 
HETATM    9  C11 UNL     1      47.913  31.316  29.721  1.00  0.00     0.015 C 
HETATM   10  C12 UNL     1      48.382  32.526  30.542  1.00  0.00     0.013 C 
HETATM   11  C13 UNL     1      46.423  31.353  29.711  1.00  0.00     0.126 C 
HETATM   12  C23 UNL     1      45.731  30.051  29.505  1.00  0.00     0.033 C 
HETATM   13  C24 UNL     1      46.356  28.873  30.160  1.00  0.00     0.012 C 
HETATM   14  C25 UNL     1      47.859  28.803  29.848  1.00  0.00    -0.036 C 
HETATM   15  C26 UNL     1      47.940  28.776  28.321  1.00  0.00     0.016 C 
HETATM   16  C27 UNL     1      48.496  27.610  30.440  1.00  0.00    -0.002 C 
HETATM   17  C28 UNL     1      49.228  26.741  29.433  1.00  0.00     0.006 C 
HETATM   18  C29 UNL     1      49.265  25.323  30.022  1.00  0.00     0.011 C 
HETATM   19  C30 UNL     1      49.643  25.317  31.460  1.00  0.00    -0.030 C 
HETATM   20  C31 UNL     1      48.557  24.933  32.405  1.00  0.00     0.016 C 
ENDROOT
BRANCH  11  21
HETATM   21  O2  UNL     1      45.968  32.267  28.765  1.00  0.00    -0.374 OA
BRANCH  21  22
HETATM   22  C14 UNL     1      45.769  33.536  29.239  1.00  0.00     0.261 C 
BRANCH  22  23
HETATM   23  C15 UNL     1      44.927  33.588  30.432  1.00  0.00    -0.079 C 
HETATM   24  C16 UNL     1      44.231  33.654  31.421  1.00  0.00    -0.074 C 
BRANCH  24  25
HETATM   25  C17 UNL     1      43.405  33.731  32.599  1.00  0.00     0.365 C 
BRANCH  25  26
HETATM   26  N1  UNL     1      42.107  33.143  32.352  1.00  0.00     0.103 N 
HETATM   27  C18 UNL     1      41.529  32.681  33.608  1.00  0.00     0.301 C 
HETATM   28  C19 UNL     1      40.475  31.650  33.282  1.00  0.00     0.263 C 
HETATM   29  N2  UNL     1      39.817  31.938  32.028  1.00  0.00    -0.066 N 
HETATM   30  C20 UNL     1      40.757  31.803  30.921  1.00  0.00     0.237 C 
ATOM     31  H22 UNL     1      38.986  31.361  31.893  1.00  0.00     0.277 HD
ATOM     32  H21 UNL     1      39.367  32.852  32.035  1.00  0.00     0.277 HD
HETATM   33  C22 UNL     1      42.168  32.004  31.476  1.00  0.00     0.308 C 
BRANCH  30  34
HETATM   34  C21 UNL     1      40.476  32.956  29.966  1.00  0.00     0.199 C 
BRANCH  34  35
HETATM   35  O3  UNL     1      39.170  33.378  30.033  1.00  0.00    -0.399 OA
ATOM     36  H3  UNL     1      39.082  34.304  29.842  1.00  0.00     0.209 HD
ENDBRANCH  34  35
ENDBRANCH  30  34
ENDBRANCH  25  26
ENDBRANCH  24  25
ENDBRANCH  22  23
ENDBRANCH  21  22
ENDBRANCH  11  21
BRANCH   1  37
HETATM   37  C2  UNL     1      50.434  23.010  32.037  1.00  0.00     0.128 C 
HETATM   38  C1  UNL     1      49.983  22.045  31.017  1.00  0.00     0.091 C 
HETATM   39  O1  UNL     1      50.467  22.580  33.200  1.00  0.00    -0.298 OA
ENDBRANCH   1  37
TORSDOF 8
ENDMDL
MODEL 4
REMARK VINA RESULT: -8.785729681      9.479     12.069
REMARK  8 active torsions:
REMARK  status: ('A' for Active; 'I' for Inactive)
REMARK    1  A    between atoms: C2_2  and  C3_4 
REMARK    2  A    between atoms: C13_14  and  O2_15 
REMARK    3  A    between atoms: O2_15  and  C14_16 
REMARK    4  A    between atoms: C14_16  and  C15_17 
REMARK    5  A    between atoms: C16_18  and  C17_19 
REMARK    6  A    between atoms: C17_19  and  N1_20 
REMARK    7  A    between atoms: C20_26  and  C21_27 
REMARK    8  A    between atoms: C21_27  and  O3_28 
ROOT
HETATM    1  C3  UNL     1      50.610  23.526  31.888  1.00  0.00     0.063 C 
HETATM    2  C4  UNL     1      50.859  23.893  33.336  1.00  0.00     0.013 C 
HETATM    3  C5  UNL     1      50.342  25.301  33.540  1.00  0.00     0.006 C 
HETATM    4  C6  UNL     1      50.221  25.796  32.136  1.00  0.00    -0.001 C 
HETATM    5  C7  UNL     1      49.494  27.071  31.952  1.00  0.00    -0.005 C 
HETATM    6  C8  UNL     1      50.456  28.189  32.286  1.00  0.00     0.006 C 
HETATM    7  C9  UNL     1      50.471  29.270  31.249  1.00  0.00     0.006 C 
HETATM    8  C10 UNL     1      49.023  29.590  30.939  1.00  0.00     0.000 C 
HETATM    9  C11 UNL     1      48.804  30.939  30.366  1.00  0.00     0.015 C 
HETATM   10  C12 UNL     1      49.121  31.961  31.468  1.00  0.00     0.013 C 
HETATM   11  C13 UNL     1      47.376  31.138  29.991  1.00  0.00     0.126 C 
HETATM   12  C23 UNL     1      46.677  29.962  29.405  1.00  0.00     0.033 C 
HETATM   13  C24 UNL     1      47.026  28.642  29.988  1.00  0.00     0.012 C 
HETATM   14  C25 UNL     1      48.550  28.455  30.053  1.00  0.00    -0.036 C 
HETATM   15  C26 UNL     1      49.028  28.640  28.612  1.00  0.00     0.016 C 
HETATM   16  C27 UNL     1      48.926  27.127  30.577  1.00  0.00    -0.002 C 
HETATM   17  C28 UNL     1      49.838  26.338  29.654  1.00  0.00     0.006 C 
HETATM   18  C29 UNL     1      49.622  24.855  29.988  1.00  0.00     0.011 C 
HETATM   19  C30 UNL     1      49.607  24.601  31.453  1.00  0.00    -0.030 C 
HETATM   20  C31 UNL     1      48.288  24.204  32.019  1.00  0.00     0.016 C 
ENDROOT
BRANCH  11  21
HETATM   21  O2  UNL     1      47.248  32.224  29.128  1.00  0.00    -0.374 OA
BRANCH  21  22
HETATM   22  C14 UNL     1      45.959  32.583  28.841  1.00  0.00     0.261 C 
BRANCH  22  23
HETATM   23  C15 UNL     1      45.224  33.092  29.997  1.00  0.00    -0.079 C 
HETATM   24  C16 UNL     1      44.595  33.512  30.942  1.00  0.00    -0.074 C 
BRANCH  24  25
HETATM   25  C17 UNL     1      43.847  34.014  32.068  1.00  0.00     0.365 C 
BRANCH  25  26
HETATM   26  N1  UNL     1      42.521  33.439  32.096  1.00  0.00     0.103 N 
HETATM   27  C18 UNL     1      42.112  33.213  33.477  1.00  0.00     0.301 C 
HETATM   28  C19 UNL     1      41.010  32.180  33.472  1.00  0.00     0.263 C 
HETATM   29  N2  UNL     1      40.193  32.278  32.284  1.00  0.00    -0.066 N 
HETATM   30  C20 UNL     1      40.973  31.928  31.103  1.00  0.00     0.237 C 
ATOM     31  H22 UNL     1      39.344  31.717  32.359  1.00  0.00     0.277 HD
ATOM     32  H21 UNL     1      39.759  33.197  32.195  1.00  0.00     0.277 HD
HETATM   33  C22 UNL     1      42.449  32.168  31.426  1.00  0.00     0.308 C 
BRANCH  30  34
HETATM   34  C21 UNL     1      40.581  32.914  30.011  1.00  0.00     0.199 C 
BRANCH  34  35
HETATM   35  O3  UNL     1      39.270  33.314  30.120  1.00  0.00    -0.399 OA
ATOM     36  H3  UNL     1      38.847  33.390  29.273  1.00  0.00     0.209 HD
ENDBRANCH  34  35
ENDBRANCH  30  34
ENDBRANCH  25  26
ENDBRANCH  24  25
ENDBRANCH  22  23
ENDBRANCH  21  22
ENDBRANCH  11  21
BRANCH   1  37
HETATM   37  C2  UNL     1      50.061  22.163  31.814  1.00  0.00     0.128 C 
HETATM   38  C1  UNL     1      49.701  21.330  32.977  1.00  0.00     0.091 C 
HETATM   39  O1  UNL     1      49.872  21.638  30.705  1.00  0.00    -0.298 OA
ENDBRANCH   1  37
TORSDOF 8
ENDMDL
MODEL 5
REMARK VINA RESULT: -8.681045907      8.663     11.849
REMARK  8 active torsions:
REMARK  status: ('A' for Active; 'I' for Inactive)
REMARK    1  A    between atoms: C2_2  and  C3_4 
REMARK    2  A    between atoms: C13_14  and  O2_15 
REMARK    3  A    between atoms: O2_15  and  C14_16 
REMARK    4  A    between atoms: C14_16  and  C15_17 
REMARK    5  A    between atoms: C16_18  and  C17_19 
REMARK    6  A    between atoms: C17_19  and  N1_20 
REMARK    7  A    between atoms: C20_26  and  C21_27 
REMARK    8  A    between atoms: C21_27  and  O3_28 
ROOT
HETATM    1  C3  UNL     1      50.598  23.691  32.082  1.00  0.00     0.063 C 
HETATM    2  C4  UNL     1      51.050  24.288  33.398  1.00  0.00     0.013 C 
HETATM    3  C5  UNL     1      50.504  25.698  33.466  1.00  0.00     0.006 C 
HETATM    4  C6  UNL     1      50.142  25.961  32.040  1.00  0.00    -0.001 C 
HETATM    5  C7  UNL     1      49.333  27.173  31.784  1.00  0.00    -0.005 C 
HETATM    6  C8  UNL     1      50.280  28.352  31.783  1.00  0.00     0.006 C 
HETATM    7  C9  UNL     1      50.080  29.256  30.605  1.00  0.00     0.006 C 
HETATM    8  C10 UNL     1      48.588  29.488  30.488  1.00  0.00     0.000 C 
HETATM    9  C11 UNL     1      48.218  30.724  29.758  1.00  0.00     0.015 C 
HETATM   10  C12 UNL     1      48.652  31.914  30.626  1.00  0.00     0.013 C 
HETATM   11  C13 UNL     1      46.740  30.827  29.593  1.00  0.00     0.126 C 
HETATM   12  C23 UNL     1      46.017  29.557  29.313  1.00  0.00     0.033 C 
HETATM   13  C24 UNL     1      46.516  28.354  30.027  1.00  0.00     0.012 C 
HETATM   14  C25 UNL     1      48.039  28.216  29.873  1.00  0.00    -0.036 C 
HETATM   15  C26 UNL     1      48.278  28.182  28.363  1.00  0.00     0.016 C 
HETATM   16  C27 UNL     1      48.557  26.997  30.526  1.00  0.00    -0.002 C 
HETATM   17  C28 UNL     1      49.351  26.094  29.600  1.00  0.00     0.006 C 
HETATM   18  C29 UNL     1      49.262  24.677  30.186  1.00  0.00     0.011 C 
HETATM   19  C30 UNL     1      49.488  24.658  31.655  1.00  0.00    -0.030 C 
HETATM   20  C31 UNL     1      48.293  24.325  32.480  1.00  0.00     0.016 C 
ENDROOT
BRANCH  11  21
HETATM   21  O2  UNL     1      46.427  31.759  28.606  1.00  0.00    -0.374 OA
BRANCH  21  22
HETATM   22  C14 UNL     1      46.277  33.043  29.054  1.00  0.00     0.261 C 
BRANCH  22  23
HETATM   23  C15 UNL     1      45.244  33.187  30.078  1.00  0.00    -0.079 C 
HETATM   24  C16 UNL     1      44.396  33.327  30.931  1.00  0.00    -0.074 C 
BRANCH  24  25
HETATM   25  C17 UNL     1      43.388  33.493  31.947  1.00  0.00     0.365 C 
BRANCH  25  26
HETATM   26  N1  UNL     1      42.350  32.496  31.804  1.00  0.00     0.103 N 
HETATM   27  C18 UNL     1      41.189  33.084  31.148  1.00  0.00     0.301 C 
HETATM   28  C19 UNL     1      39.989  32.225  31.471  1.00  0.00     0.263 C 
HETATM   29  N2  UNL     1      40.351  30.833  31.607  1.00  0.00    -0.066 N 
HETATM   30  C20 UNL     1      41.209  30.644  32.771  1.00  0.00     0.237 C 
ATOM     31  H22 UNL     1      39.530  30.228  31.637  1.00  0.00     0.277 HD
ATOM     32  H21 UNL     1      40.778  30.465  30.756  1.00  0.00     0.277 HD
HETATM   33  C22 UNL     1      41.898  31.977  33.068  1.00  0.00     0.308 C 
BRANCH  30  34
HETATM   34  C21 UNL     1      42.291  29.655  32.361  1.00  0.00     0.199 C 
BRANCH  34  35
HETATM   35  O3  UNL     1      41.919  28.352  32.596  1.00  0.00    -0.399 OA
ATOM     36  H3  UNL     1      41.299  28.035  31.951  1.00  0.00     0.209 HD
ENDBRANCH  34  35
ENDBRANCH  30  34
ENDBRANCH  25  26
ENDBRANCH  24  25
ENDBRANCH  22  23
ENDBRANCH  21  22
ENDBRANCH  11  21
BRANCH   1  37
HETATM   37  C2  UNL     1      50.111  22.320  32.306  1.00  0.00     0.128 C 
HETATM   38  C1  UNL     1      49.826  21.337  31.244  1.00  0.00     0.091 C 
HETATM   39  O1  UNL     1      49.913  21.923  33.466  1.00  0.00    -0.298 OA
ENDBRANCH   1  37
TORSDOF 8
ENDMDL
