MODEL 1
REMARK VINA RESULT: -7.345914097      0.000      0.000
REMARK  10 active torsions:
REMARK  status: ('A' for Active; 'I' for Inactive)
REMARK    1  A    between atoms: N2_3  and  S1_5 
REMARK    2  A    between atoms: S1_5  and  C2_6 
REMARK    3  A    between atoms: C2_6  and  N3_7 
REMARK    4  A    between atoms: N4_10  and  C3_12 
REMARK    5  A    between atoms: C3_12  and  C4_13 
REMARK    6  A    between atoms: C4_13  and  C5_14 
REMARK    7  A    between atoms: C5_14  and  C6_15 
REMARK    8  A    between atoms: C6_15  and  C7_16 
REMARK    9  A    between atoms: C7_16  and  C8_17 
REMARK   10  A    between atoms: C8_17  and  N5_18 
REMARK       I    between atoms: N6_21  and  C11_22 
ROOT
HETATM    1  N1  UNL     1      13.361  11.248  10.669  1.00  0.00    -0.171 NA
HETATM    2  C1  UNL     1      12.908  11.860  11.586  1.00  0.00     0.188 C 
HETATM    3  N2  UNL     1      12.312  12.599  12.655  1.00  0.00    -0.260 N 
ATOM      4  H2  UNL     1      11.358  12.956  12.601  1.00  0.00     0.186 HD
ENDROOT
BRANCH   3   5
HETATM    5  S1  UNL     1      13.271  12.839  13.991  1.00  0.00     0.031 SA
BRANCH   5   6
HETATM    6  C2  UNL     1      12.715  11.838  15.164  1.00  0.00     0.155 C 
HETATM    7  N4  UNL     1      13.293  10.612  15.266  1.00  0.00    -0.370 N 
ATOM      8  H4  UNL     1      12.993  10.060  16.070  1.00  0.00     0.161 HD
BRANCH   6   9
HETATM    9  N3  UNL     1      11.793  12.392  16.005  1.00  0.00    -0.379 N 
ATOM     10  H32 UNL     1      11.857  13.286  16.491  1.00  0.00     0.158 HD
ATOM     11  H31 UNL     1      10.913  11.882  16.076  1.00  0.00     0.158 HD
ENDBRANCH   6   9
BRANCH   7  12
HETATM   12  C3  UNL     1      14.264   9.969  14.414  1.00  0.00     0.121 C 
BRANCH  12  13
HETATM   13  C4  UNL     1      14.449   8.485  14.762  1.00  0.00     0.020 C 
BRANCH  13  14
HETATM   14  C5  UNL     1      15.246   7.902  13.652  1.00  0.00     0.002 C 
BRANCH  14  15
HETATM   15  C6  UNL     1      16.703   8.030  13.695  1.00  0.00     0.002 C 
BRANCH  15  16
HETATM   16  C7  UNL     1      17.447   8.852  12.724  1.00  0.00     0.020 C 
BRANCH  16  17
HETATM   17  C8  UNL     1      16.682   9.660  11.776  1.00  0.00     0.122 C 
BRANCH  17  18
HETATM   18  N5  UNL     1      16.870   9.287  10.390  1.00  0.00    -0.390 N 
HETATM   19  C9  UNL     1      15.800   8.689   9.726  1.00  0.00     0.078 C 
HETATM   20  C10 UNL     1      16.307   7.966   8.491  1.00  0.00     0.169 C 
HETATM   21  N6  UNL     1      17.163   8.827   7.716  1.00  0.00    -0.350 N 
HETATM   22  C11 UNL     1      17.673   8.386   6.473  1.00  0.00     0.184 C 
HETATM   23  C12 UNL     1      17.489  10.134   8.225  1.00  0.00     0.145 C 
HETATM   24  N7  UNL     1      18.941   8.411   6.208  1.00  0.00    -0.374 N 
HETATM   25  N8  UNL     1      16.823   7.891   5.453  1.00  0.00    -0.064 NA
ATOM     26  H72 UNL     1      19.552   8.768   6.942  1.00  0.00     0.158 HD
ATOM     27  H71 UNL     1      19.308   8.093   5.311  1.00  0.00     0.158 HD
HETATM   28  C13 UNL     1      17.898   9.925   9.684  1.00  0.00     0.141 C 
ENDBRANCH  17  18
ENDBRANCH  16  17
ENDBRANCH  15  16
ENDBRANCH  14  15
ENDBRANCH  13  14
ENDBRANCH  12  13
ENDBRANCH   7  12
ENDBRANCH   5   6
ENDBRANCH   3   5
TORSDOF 10
ENDMDL
MODEL 2
REMARK VINA RESULT: -7.138459648      1.676      3.332
REMARK  10 active torsions:
REMARK  status: ('A' for Active; 'I' for Inactive)
REMARK    1  A    between atoms: N2_3  and  S1_5 
REMARK    2  A    between atoms: S1_5  and  C2_6 
REMARK    3  A    between atoms: C2_6  and  N3_7 
REMARK    4  A    between atoms: N4_10  and  C3_12 
REMARK    5  A    between atoms: C3_12  and  C4_13 
REMARK    6  A    between atoms: C4_13  and  C5_14 
REMARK    7  A    between atoms: C5_14  and  C6_15 
REMARK    8  A    between atoms: C6_15  and  C7_16 
REMARK    9  A    between atoms: C7_16  and  C8_17 
REMARK   10  A    between atoms: C8_17  and  N5_18 
REMARK       I    between atoms: N6_21  and  C11_22 
ROOT
HETATM    1  N1  UNL     1      12.230  11.131  17.547  1.00  0.00    -0.171 NA
HETATM    2  C1  UNL     1      12.149  11.761  16.539  1.00  0.00     0.188 C 
HETATM    3  N2  UNL     1      11.994  12.531  15.344  1.00  0.00    -0.260 N 
ATOM      4  H2  UNL     1      11.116  12.992  15.106  1.00  0.00     0.186 HD
ENDROOT
BRANCH   3   5
HETATM    5  S1  UNL     1      13.336  12.626  14.367  1.00  0.00     0.031 SA
BRANCH   5   6
HETATM    6  C2  UNL     1      12.926  11.962  12.925  1.00  0.00     0.155 C 
HETATM    7  N4  UNL     1      13.815  11.104  12.356  1.00  0.00    -0.370 N 
ATOM      8  H4  UNL     1      13.481  10.634  11.515  1.00  0.00     0.161 HD
BRANCH   6   9
HETATM    9  N3  UNL     1      11.665  12.254  12.493  1.00  0.00    -0.379 N 
ATOM     10  H32 UNL     1      11.341  13.125  12.073  1.00  0.00     0.158 HD
ATOM     11  H31 UNL     1      11.008  11.475  12.521  1.00  0.00     0.158 HD
ENDBRANCH   6   9
BRANCH   7  12
HETATM   12  C3  UNL     1      15.156  10.755  12.757  1.00  0.00     0.121 C 
BRANCH  12  13
HETATM   13  C4  UNL     1      15.544   9.336  12.315  1.00  0.00     0.020 C 
BRANCH  13  14
HETATM   14  C5  UNL     1      16.984   9.401  11.955  1.00  0.00     0.002 C 
BRANCH  14  15
HETATM   15  C6  UNL     1      17.414  10.389  10.966  1.00  0.00     0.002 C 
BRANCH  15  16
HETATM   16  C7  UNL     1      18.149  10.009   9.747  1.00  0.00     0.020 C 
BRANCH  16  17
HETATM   17  C8  UNL     1      17.440  10.066   8.469  1.00  0.00     0.122 C 
BRANCH  17  18
HETATM   18  N5  UNL     1      17.502   8.840   7.700  1.00  0.00    -0.390 N 
HETATM   19  C9  UNL     1      16.588   7.833   8.007  1.00  0.00     0.078 C 
HETATM   20  C10 UNL     1      17.087   6.510   7.454  1.00  0.00     0.169 C 
HETATM   21  N6  UNL     1      17.472   6.649   6.073  1.00  0.00    -0.350 N 
HETATM   22  C11 UNL     1      17.880   5.516   5.334  1.00  0.00     0.184 C 
HETATM   23  C12 UNL     1      17.437   7.954   5.465  1.00  0.00     0.145 C 
HETATM   24  N7  UNL     1      19.007   5.487   4.695  1.00  0.00    -0.374 N 
HETATM   25  N8  UNL     1      17.077   4.350   5.254  1.00  0.00    -0.064 NA
ATOM     26  H72 UNL     1      19.584   6.326   4.752  1.00  0.00     0.158 HD
ATOM     27  H71 UNL     1      19.300   4.669   4.161  1.00  0.00     0.158 HD
HETATM   28  C13 UNL     1      18.132   8.895   6.451  1.00  0.00     0.141 C 
ENDBRANCH  17  18
ENDBRANCH  16  17
ENDBRANCH  15  16
ENDBRANCH  14  15
ENDBRANCH  13  14
ENDBRANCH  12  13
ENDBRANCH   7  12
ENDBRANCH   5   6
ENDBRANCH   3   5
TORSDOF 10
ENDMDL
MODEL 3
REMARK VINA RESULT: -7.042714091      2.383      3.460
REMARK  10 active torsions:
REMARK  status: ('A' for Active; 'I' for Inactive)
REMARK    1  A    between atoms: N2_3  and  S1_5 
REMARK    2  A    between atoms: S1_5  and  C2_6 
REMARK    3  A    between atoms: C2_6  and  N3_7 
REMARK    4  A    between atoms: N4_10  and  C3_12 
REMARK    5  A    between atoms: C3_12  and  C4_13 
REMARK    6  A    between atoms: C4_13  and  C5_14 
REMARK    7  A    between atoms: C5_14  and  C6_15 
REMARK    8  A    between atoms: C6_15  and  C7_16 
REMARK    9  A    between atoms: C7_16  and  C8_17 
REMARK   10  A    between atoms: C8_17  and  N5_18 
REMARK       I    between atoms: N6_21  and  C11_22 
ROOT
HETATM    1  N1  UNL     1      18.600   9.778  10.131  1.00  0.00    -0.171 NA
HETATM    2  C1  UNL     1      17.679  10.383  10.584  1.00  0.00     0.188 C 
HETATM    3  N2  UNL     1      16.609  11.157  11.133  1.00  0.00    -0.260 N 
ATOM      4  H2  UNL     1      16.736  12.126  11.426  1.00  0.00     0.186 HD
ENDROOT
BRANCH   3   5
HETATM    5  S1  UNL     1      15.145  10.379  11.261  1.00  0.00     0.031 SA
BRANCH   5   6
HETATM    6  C2  UNL     1      14.613  10.613  12.794  1.00  0.00     0.155 C 
HETATM    7  N4  UNL     1      14.853   9.625  13.697  1.00  0.00    -0.370 N 
ATOM      8  H4  UNL     1      14.599   9.851  14.659  1.00  0.00     0.161 HD
BRANCH   6   9
HETATM    9  N3  UNL     1      14.077  11.844  13.037  1.00  0.00    -0.379 N 
ATOM     10  H32 UNL     1      13.408  12.353  12.459  1.00  0.00     0.158 HD
ATOM     11  H31 UNL     1      14.315  12.248  13.943  1.00  0.00     0.158 HD
ENDBRANCH   6   9
BRANCH   7  12
HETATM   12  C3  UNL     1      15.409   8.308  13.507  1.00  0.00     0.121 C 
BRANCH  12  13
HETATM   13  C4  UNL     1      14.681   7.243  14.341  1.00  0.00     0.020 C 
BRANCH  13  14
HETATM   14  C5  UNL     1      15.445   5.983  14.150  1.00  0.00     0.002 C 
BRANCH  14  15
HETATM   15  C6  UNL     1      15.233   5.216  12.923  1.00  0.00     0.002 C 
BRANCH  15  16
HETATM   16  C7  UNL     1      16.336   4.891  12.001  1.00  0.00     0.020 C 
BRANCH  16  17
HETATM   17  C8  UNL     1      15.997   4.371  10.677  1.00  0.00     0.122 C 
BRANCH  17  18
HETATM   18  N5  UNL     1      16.320   5.267   9.586  1.00  0.00    -0.390 N 
HETATM   19  C9  UNL     1      15.974   4.870   8.295  1.00  0.00     0.078 C 
HETATM   20  C10 UNL     1      16.778   5.671   7.286  1.00  0.00     0.169 C 
HETATM   21  N6  UNL     1      16.707   7.079   7.582  1.00  0.00    -0.350 N 
HETATM   22  C11 UNL     1      17.308   8.017   6.713  1.00  0.00     0.184 C 
HETATM   23  C12 UNL     1      16.018   7.510   8.771  1.00  0.00     0.145 C 
HETATM   24  N7  UNL     1      18.152   8.902   7.142  1.00  0.00    -0.374 N 
HETATM   25  N8  UNL     1      17.022   8.037   5.325  1.00  0.00    -0.064 NA
ATOM     26  H72 UNL     1      18.358   8.887   8.141  1.00  0.00     0.158 HD
ATOM     27  H71 UNL     1      18.586   9.579   6.515  1.00  0.00     0.158 HD
HETATM   28  C13 UNL     1      16.532   6.614   9.901  1.00  0.00     0.141 C 
ENDBRANCH  17  18
ENDBRANCH  16  17
ENDBRANCH  15  16
ENDBRANCH  14  15
ENDBRANCH  13  14
ENDBRANCH  12  13
ENDBRANCH   7  12
ENDBRANCH   5   6
ENDBRANCH   3   5
TORSDOF 10
ENDMDL
MODEL 4
REMARK VINA RESULT: -6.946550973      1.343      1.700
REMARK  10 active torsions:
REMARK  status: ('A' for Active; 'I' for Inactive)
REMARK    1  A    between atoms: N2_3  and  S1_5 
REMARK    2  A    between atoms: S1_5  and  C2_6 
REMARK    3  A    between atoms: C2_6  and  N3_7 
REMARK    4  A    between atoms: N4_10  and  C3_12 
REMARK    5  A    between atoms: C3_12  and  C4_13 
REMARK    6  A    between atoms: C4_13  and  C5_14 
REMARK    7  A    between atoms: C5_14  and  C6_15 
REMARK    8  A    between atoms: C6_15  and  C7_16 
REMARK    9  A    between atoms: C7_16  and  C8_17 
REMARK   10  A    between atoms: C8_17  and  N5_18 
REMARK       I    between atoms: N6_21  and  C11_22 
ROOT
HETATM    1  N1  UNL     1      13.368  11.297  10.659  1.00  0.00    -0.171 NA
HETATM    2  C1  UNL     1      12.921  11.887  11.592  1.00  0.00     0.188 C 
HETATM    3  N2  UNL     1      12.332  12.600  12.683  1.00  0.00    -0.260 N 
ATOM      4  H2  UNL     1      11.378  12.961  12.643  1.00  0.00     0.186 HD
ENDROOT
BRANCH   3   5
HETATM    5  S1  UNL     1      13.299  12.805  14.020  1.00  0.00     0.031 SA
BRANCH   5   6
HETATM    6  C2  UNL     1      12.693  11.842  15.200  1.00  0.00     0.155 C 
HETATM    7  N4  UNL     1      13.228  10.598  15.329  1.00  0.00    -0.370 N 
ATOM      8  H4  UNL     1      12.898  10.070  16.137  1.00  0.00     0.161 HD
BRANCH   6   9
HETATM    9  N3  UNL     1      11.778  12.439  16.018  1.00  0.00    -0.379 N 
ATOM     10  H32 UNL     1      11.787  13.400  16.359  1.00  0.00     0.158 HD
ATOM     11  H31 UNL     1      10.957  11.873  16.232  1.00  0.00     0.158 HD
ENDBRANCH   6   9
BRANCH   7  12
HETATM   12  C3  UNL     1      14.190   9.911  14.503  1.00  0.00     0.121 C 
BRANCH  12  13
HETATM   13  C4  UNL     1      14.363   8.441  14.914  1.00  0.00     0.020 C 
BRANCH  13  14
HETATM   14  C5  UNL     1      15.250   7.833  13.889  1.00  0.00     0.002 C 
BRANCH  14  15
HETATM   15  C6  UNL     1      15.161   6.392  13.652  1.00  0.00     0.002 C 
BRANCH  15  16
HETATM   16  C7  UNL     1      15.671   5.767  12.419  1.00  0.00     0.020 C 
BRANCH  16  17
HETATM   17  C8  UNL     1      16.993   6.167  11.939  1.00  0.00     0.122 C 
BRANCH  17  18
HETATM   18  N5  UNL     1      17.018   6.596  10.556  1.00  0.00    -0.390 N 
HETATM   19  C9  UNL     1      16.418   5.769   9.608  1.00  0.00     0.078 C 
HETATM   20  C10 UNL     1      16.935   6.124   8.225  1.00  0.00     0.169 C 
HETATM   21  N6  UNL     1      16.853   7.546   8.003  1.00  0.00    -0.350 N 
HETATM   22  C11 UNL     1      17.196   8.086   6.742  1.00  0.00     0.184 C 
HETATM   23  C12 UNL     1      16.422   8.399   9.079  1.00  0.00     0.145 C 
HETATM   24  N7  UNL     1      18.064   9.041   6.623  1.00  0.00    -0.374 N 
HETATM   25  N8  UNL     1      16.610   7.610   5.543  1.00  0.00    -0.064 NA
ATOM     26  H72 UNL     1      18.486   9.383   7.486  1.00  0.00     0.158 HD
ATOM     27  H71 UNL     1      18.311   9.431   5.714  1.00  0.00     0.158 HD
HETATM   28  C13 UNL     1      17.219   7.959  10.308  1.00  0.00     0.141 C 
ENDBRANCH  17  18
ENDBRANCH  16  17
ENDBRANCH  15  16
ENDBRANCH  14  15
ENDBRANCH  13  14
ENDBRANCH  12  13
ENDBRANCH   7  12
ENDBRANCH   5   6
ENDBRANCH   3   5
TORSDOF 10
ENDMDL
MODEL 5
REMARK VINA RESULT: -6.922547717      3.424      8.546
REMARK  10 active torsions:
REMARK  status: ('A' for Active; 'I' for Inactive)
REMARK    1  A    between atoms: N2_3  and  S1_5 
REMARK    2  A    between atoms: S1_5  and  C2_6 
REMARK    3  A    between atoms: C2_6  and  N3_7 
REMARK    4  A    between atoms: N4_10  and  C3_12 
REMARK    5  A    between atoms: C3_12  and  C4_13 
REMARK    6  A    between atoms: C4_13  and  C5_14 
REMARK    7  A    between atoms: C5_14  and  C6_15 
REMARK    8  A    between atoms: C6_15  and  C7_16 
REMARK    9  A    between atoms: C7_16  and  C8_17 
REMARK   10  A    between atoms: C8_17  and  N5_18 
REMARK       I    between atoms: N6_21  and  C11_22 
ROOT
HETATM    1  N1  UNL     1      15.995   4.055  10.349  1.00  0.00    -0.171 NA
HETATM    2  C1  UNL     1      16.045   4.078   9.159  1.00  0.00     0.188 C 
HETATM    3  N2  UNL     1      16.048   4.087   7.729  1.00  0.00    -0.260 N 
ATOM      4  H2  UNL     1      15.235   3.801   7.183  1.00  0.00     0.186 HD
ENDROOT
BRANCH   3   5
HETATM    5  S1  UNL     1      17.460   4.594   7.012  1.00  0.00     0.031 SA
BRANCH   5   6
HETATM    6  C2  UNL     1      17.083   5.048   5.482  1.00  0.00     0.155 C 
HETATM    7  N4  UNL     1      16.839   6.368   5.263  1.00  0.00    -0.370 N 
ATOM      8  H4  UNL     1      16.711   6.625   4.285  1.00  0.00     0.161 HD
BRANCH   6   9
HETATM    9  N3  UNL     1      17.166   4.055   4.549  1.00  0.00    -0.379 N 
ATOM     10  H32 UNL     1      17.404   3.076   4.707  1.00  0.00     0.158 HD
ATOM     11  H31 UNL     1      16.871   4.320   3.610  1.00  0.00     0.158 HD
ENDBRANCH   6   9
BRANCH   7  12
HETATM   12  C3  UNL     1      16.735   7.460   6.199  1.00  0.00     0.121 C 
BRANCH  12  13
HETATM   13  C4  UNL     1      17.858   8.492   6.016  1.00  0.00     0.020 C 
BRANCH  13  14
HETATM   14  C5  UNL     1      18.232   8.936   7.383  1.00  0.00     0.002 C 
BRANCH  14  15
HETATM   15  C6  UNL     1      17.366   9.896   8.068  1.00  0.00     0.002 C 
BRANCH  15  16
HETATM   16  C7  UNL     1      17.338  10.018   9.536  1.00  0.00     0.020 C 
BRANCH  16  17
HETATM   17  C8  UNL     1      16.434   9.145  10.283  1.00  0.00     0.122 C 
BRANCH  17  18
HETATM   18  N5  UNL     1      15.510   9.848  11.149  1.00  0.00    -0.390 N 
HETATM   19  C9  UNL     1      15.991  10.313  12.373  1.00  0.00     0.078 C 
HETATM   20  C10 UNL     1      14.825  10.587  13.305  1.00  0.00     0.169 C 
HETATM   21  N6  UNL     1      13.825  11.387  12.645  1.00  0.00    -0.350 N 
HETATM   22  C11 UNL     1      12.693  11.839  13.362  1.00  0.00     0.184 C 
HETATM   23  C12 UNL     1      13.996  11.715  11.254  1.00  0.00     0.145 C 
HETATM   24  N7  UNL     1      11.487  11.624  12.939  1.00  0.00    -0.374 N 
HETATM   25  N8  UNL     1      12.818  12.549  14.582  1.00  0.00    -0.064 NA
ATOM     26  H72 UNL     1      11.397  11.113  12.061  1.00  0.00     0.158 HD
ATOM     27  H71 UNL     1      10.671  11.950  13.456  1.00  0.00     0.158 HD
HETATM   28  C13 UNL     1      14.370  10.405  10.558  1.00  0.00     0.141 C 
ENDBRANCH  17  18
ENDBRANCH  16  17
ENDBRANCH  15  16
ENDBRANCH  14  15
ENDBRANCH  13  14
ENDBRANCH  12  13
ENDBRANCH   7  12
ENDBRANCH   5   6
ENDBRANCH   3   5
TORSDOF 10
ENDMDL
