MODEL 1
REMARK VINA RESULT: -5.379305196      0.000      0.000
REMARK  5 active torsions:
REMARK  status: ('A' for Active; 'I' for Inactive)
REMARK    1  A    between atoms: O1_2  and  C2_3 
REMARK    2  A    between atoms: C5_6  and  C6_7 
REMARK    3  A    between atoms: C7_8  and  C8_9 
REMARK    4  A    between atoms: C9_10  and  C10_11 
REMARK    5  A    between atoms: C13_14  and  N1_15 
ROOT
HETATM    1  C2  UNL     1      41.308  52.817  21.088  1.00  0.00     0.069 A 
HETATM    2  C3  UNL     1      40.320  53.322  20.244  1.00  0.00     0.038 A 
HETATM    3  C4  UNL     1      39.591  52.439  19.478  1.00  0.00     0.025 A 
HETATM    4  C5  UNL     1      39.813  51.090  19.527  1.00  0.00     0.039 A 
HETATM    5  C19 UNL     1      40.774  50.568  20.344  1.00  0.00     0.066 A 
HETATM    6  C20 UNL     1      41.000  49.163  20.389  1.00  0.00     0.101 C 
HETATM    7  N4  UNL     1      41.169  48.026  20.426  1.00  0.00    -0.191 NA
HETATM    8  C21 UNL     1      41.517  51.456  21.123  1.00  0.00     0.061 A 
ENDROOT
BRANCH   4   9
HETATM    9  C6  UNL     1      39.036  50.172  18.713  1.00  0.00    -0.051 C 
HETATM   10  C7  UNL     1      38.378  49.425  18.033  1.00  0.00    -0.009 C 
BRANCH  10  11
HETATM   11  C8  UNL     1      37.582  48.561  17.226  1.00  0.00    -0.008 C 
HETATM   12  C9  UNL     1      36.890  47.839  16.547  1.00  0.00    -0.035 C 
BRANCH  12  13
HETATM   13  C10 UNL     1      36.062  47.000  15.725  1.00  0.00     0.088 A 
HETATM   14  C11 UNL     1      35.408  45.918  16.305  1.00  0.00     0.055 A 
HETATM   15  C12 UNL     1      34.597  45.064  15.591  1.00  0.00     0.021 A 
HETATM   16  C13 UNL     1      33.954  43.995  16.173  1.00  0.00     0.040 A 
HETATM   17  C17 UNL     1      34.455  45.337  14.229  1.00  0.00     0.060 A 
HETATM   18  C14 UNL     1      33.152  43.195  15.345  1.00  0.00     0.054 A 
HETATM   19  C15 UNL     1      33.051  43.509  14.025  1.00  0.00     0.007 A 
HETATM   20  C16 UNL     1      32.209  42.683  13.105  1.00  0.00     0.068 C 
HETATM   21  N2  UNL     1      33.686  44.555  13.477  1.00  0.00    -0.358 N 
ATOM     22  H2  UNL     1      33.579  44.751  12.481  1.00  0.00     0.166 HD
HETATM   23  C18 UNL     1      35.102  46.409  13.653  1.00  0.00     0.119 A 
HETATM   24  N3  UNL     1      35.881  47.205  14.408  1.00  0.00    -0.357 N 
ATOM     25  H3  UNL     1      36.353  47.993  13.965  1.00  0.00     0.166 HD
BRANCH  16  26
HETATM   26  N1  UNL     1      34.059  43.713  17.417  1.00  0.00    -0.398 N 
ATOM     27  H12 UNL     1      33.956  42.747  17.726  1.00  0.00     0.156 HD
ATOM     28  H11 UNL     1      34.245  44.417  18.132  1.00  0.00     0.156 HD
ENDBRANCH  16  26
ENDBRANCH  12  13
ENDBRANCH  10  11
ENDBRANCH   4   9
BRANCH   1  29
HETATM   29  O1  UNL     1      42.010  53.733  21.834  1.00  0.00    -0.356 OA
HETATM   30  C1  UNL     1      41.965  53.851  23.230  1.00  0.00     0.210 C 
ENDBRANCH   1  29
TORSDOF 5
ENDMDL
MODEL 2
REMARK VINA RESULT: -5.029225246      1.237      1.408
REMARK  5 active torsions:
REMARK  status: ('A' for Active; 'I' for Inactive)
REMARK    1  A    between atoms: O1_2  and  C2_3 
REMARK    2  A    between atoms: C5_6  and  C6_7 
REMARK    3  A    between atoms: C7_8  and  C8_9 
REMARK    4  A    between atoms: C9_10  and  C10_11 
REMARK    5  A    between atoms: C13_14  and  N1_15 
ROOT
HETATM    1  C2  UNL     1      41.328  52.787  20.900  1.00  0.00     0.069 A 
HETATM    2  C3  UNL     1      40.364  53.255  20.008  1.00  0.00     0.038 A 
HETATM    3  C4  UNL     1      39.654  52.340  19.261  1.00  0.00     0.025 A 
HETATM    4  C5  UNL     1      39.874  50.994  19.375  1.00  0.00     0.039 A 
HETATM    5  C19 UNL     1      40.811  50.508  20.241  1.00  0.00     0.066 A 
HETATM    6  C20 UNL     1      41.033  49.107  20.354  1.00  0.00     0.101 C 
HETATM    7  N4  UNL     1      41.200  47.972  20.446  1.00  0.00    -0.191 NA
HETATM    8  C21 UNL     1      41.533  51.429  21.000  1.00  0.00     0.061 A 
ENDROOT
BRANCH   4   9
HETATM    9  C6  UNL     1      39.118  50.041  18.582  1.00  0.00    -0.051 C 
HETATM   10  C7  UNL     1      38.473  49.261  17.926  1.00  0.00    -0.009 C 
BRANCH  10  11
HETATM   11  C8  UNL     1      37.690  48.353  17.156  1.00  0.00    -0.008 C 
HETATM   12  C9  UNL     1      37.011  47.596  16.502  1.00  0.00    -0.035 C 
BRANCH  12  13
HETATM   13  C10 UNL     1      36.204  46.713  15.706  1.00  0.00     0.088 A 
HETATM   14  C11 UNL     1      34.828  46.914  15.655  1.00  0.00     0.055 A 
HETATM   15  C12 UNL     1      33.983  46.114  14.918  1.00  0.00     0.021 A 
HETATM   16  C13 UNL     1      32.623  46.321  14.873  1.00  0.00     0.040 A 
HETATM   17  C17 UNL     1      34.578  45.070  14.208  1.00  0.00     0.060 A 
HETATM   18  C14 UNL     1      31.861  45.442  14.087  1.00  0.00     0.054 A 
HETATM   19  C15 UNL     1      32.496  44.442  13.417  1.00  0.00     0.007 A 
HETATM   20  C16 UNL     1      31.725  43.482  12.569  1.00  0.00     0.068 C 
HETATM   21  N2  UNL     1      33.823  44.258  13.475  1.00  0.00    -0.358 N 
ATOM     22  H2  UNL     1      34.254  43.493  12.954  1.00  0.00     0.166 HD
HETATM   23  C18 UNL     1      35.941  44.869  14.258  1.00  0.00     0.119 A 
HETATM   24  N3  UNL     1      36.711  45.687  14.998  1.00  0.00    -0.357 N 
ATOM     25  H3  UNL     1      37.717  45.524  15.024  1.00  0.00     0.166 HD
BRANCH  16  26
HETATM   26  N1  UNL     1      32.041  47.267  15.509  1.00  0.00    -0.398 N 
ATOM     27  H12 UNL     1      31.767  48.115  15.013  1.00  0.00     0.156 HD
ATOM     28  H11 UNL     1      31.831  47.219  16.507  1.00  0.00     0.156 HD
ENDBRANCH  16  26
ENDBRANCH  12  13
ENDBRANCH  10  11
ENDBRANCH   4   9
BRANCH   1  29
HETATM   29  O1  UNL     1      42.010  53.735  21.623  1.00  0.00    -0.356 OA
HETATM   30  C1  UNL     1      41.984  53.867  23.018  1.00  0.00     0.210 C 
ENDBRANCH   1  29
TORSDOF 5
ENDMDL
MODEL 3
REMARK VINA RESULT: -4.935391472      1.067      1.943
REMARK  5 active torsions:
REMARK  status: ('A' for Active; 'I' for Inactive)
REMARK    1  A    between atoms: O1_2  and  C2_3 
REMARK    2  A    between atoms: C5_6  and  C6_7 
REMARK    3  A    between atoms: C7_8  and  C8_9 
REMARK    4  A    between atoms: C9_10  and  C10_11 
REMARK    5  A    between atoms: C13_14  and  N1_15 
ROOT
HETATM    1  C2  UNL     1      41.237  52.534  20.482  1.00  0.00     0.069 A 
HETATM    2  C3  UNL     1      40.160  52.955  19.703  1.00  0.00     0.038 A 
HETATM    3  C4  UNL     1      39.357  52.003  19.115  1.00  0.00     0.025 A 
HETATM    4  C5  UNL     1      39.591  50.665  19.277  1.00  0.00     0.039 A 
HETATM    5  C19 UNL     1      40.638  50.224  20.034  1.00  0.00     0.066 A 
HETATM    6  C20 UNL     1      40.875  48.830  20.198  1.00  0.00     0.101 C 
HETATM    7  N4  UNL     1      41.054  47.701  20.333  1.00  0.00    -0.191 NA
HETATM    8  C21 UNL     1      41.456  51.183  20.633  1.00  0.00     0.061 A 
ENDROOT
BRANCH   4   9
HETATM    9  C6  UNL     1      38.736  49.673  18.650  1.00  0.00    -0.051 C 
HETATM   10  C7  UNL     1      38.012  48.852  18.144  1.00  0.00    -0.009 C 
BRANCH  10  11
HETATM   11  C8  UNL     1      37.140  47.884  17.567  1.00  0.00    -0.008 C 
HETATM   12  C9  UNL     1      36.386  47.066  17.092  1.00  0.00    -0.035 C 
BRANCH  12  13
HETATM   13  C10 UNL     1      35.474  46.111  16.526  1.00  0.00     0.088 A 
HETATM   14  C11 UNL     1      34.941  46.350  15.264  1.00  0.00     0.055 A 
HETATM   15  C12 UNL     1      34.060  45.487  14.650  1.00  0.00     0.021 A 
HETATM   16  C13 UNL     1      33.537  45.731  13.400  1.00  0.00     0.040 A 
HETATM   17  C17 UNL     1      33.717  44.337  15.363  1.00  0.00     0.060 A 
HETATM   18  C14 UNL     1      32.649  44.780  12.874  1.00  0.00     0.054 A 
HETATM   19  C15 UNL     1      32.351  43.678  13.615  1.00  0.00     0.007 A 
HETATM   20  C16 UNL     1      31.410  42.639  13.094  1.00  0.00     0.068 C 
HETATM   21  N2  UNL     1      32.872  43.459  14.831  1.00  0.00    -0.358 N 
ATOM     22  H2  UNL     1      32.619  42.617  15.349  1.00  0.00     0.166 HD
HETATM   23  C18 UNL     1      34.245  44.099  16.614  1.00  0.00     0.119 A 
HETATM   24  N3  UNL     1      35.101  44.983  17.158  1.00  0.00    -0.357 N 
ATOM     25  H3  UNL     1      35.481  44.791  18.085  1.00  0.00     0.166 HD
BRANCH  16  26
HETATM   26  N1  UNL     1      33.827  46.773  12.715  1.00  0.00    -0.398 N 
ATOM     27  H12 UNL     1      33.698  46.765  11.704  1.00  0.00     0.156 HD
ATOM     28  H11 UNL     1      34.188  47.630  13.135  1.00  0.00     0.156 HD
ENDBRANCH  16  26
ENDBRANCH  12  13
ENDBRANCH  10  11
ENDBRANCH   4   9
BRANCH   1  29
HETATM   29  O1  UNL     1      42.010  53.518  21.050  1.00  0.00    -0.356 OA
HETATM   30  C1  UNL     1      42.005  53.875  22.405  1.00  0.00     0.210 C 
ENDBRANCH   1  29
TORSDOF 5
ENDMDL
MODEL 4
REMARK VINA RESULT: -4.265777707      1.206      1.729
REMARK  5 active torsions:
REMARK  status: ('A' for Active; 'I' for Inactive)
REMARK    1  A    between atoms: O1_2  and  C2_3 
REMARK    2  A    between atoms: C5_6  and  C6_7 
REMARK    3  A    between atoms: C7_8  and  C8_9 
REMARK    4  A    between atoms: C9_10  and  C10_11 
REMARK    5  A    between atoms: C13_14  and  N1_15 
ROOT
HETATM    1  C2  UNL     1      41.240  52.671  20.611  1.00  0.00     0.069 A 
HETATM    2  C3  UNL     1      40.222  53.155  19.790  1.00  0.00     0.038 A 
HETATM    3  C4  UNL     1      39.424  52.252  19.123  1.00  0.00     0.025 A 
HETATM    4  C5  UNL     1      39.607  50.901  19.247  1.00  0.00     0.039 A 
HETATM    5  C19 UNL     1      40.595  50.400  20.045  1.00  0.00     0.066 A 
HETATM    6  C20 UNL     1      40.778  48.993  20.169  1.00  0.00     0.101 C 
HETATM    7  N4  UNL     1      40.914  47.855  20.271  1.00  0.00    -0.191 NA
HETATM    8  C21 UNL     1      41.407  51.308  20.723  1.00  0.00     0.061 A 
ENDROOT
BRANCH   4   9
HETATM    9  C6  UNL     1      38.758  49.961  18.538  1.00  0.00    -0.051 C 
HETATM   10  C7  UNL     1      38.036  49.192  17.953  1.00  0.00    -0.009 C 
BRANCH  10  11
HETATM   11  C8  UNL     1      37.163  48.297  17.270  1.00  0.00    -0.008 C 
HETATM   12  C9  UNL     1      36.405  47.548  16.698  1.00  0.00    -0.035 C 
BRANCH  12  13
HETATM   13  C10 UNL     1      35.497  46.677  16.004  1.00  0.00     0.088 A 
HETATM   14  C11 UNL     1      35.972  45.904  14.950  1.00  0.00     0.055 A 
HETATM   15  C12 UNL     1      35.169  45.045  14.233  1.00  0.00     0.021 A 
HETATM   16  C13 UNL     1      35.648  44.283  13.190  1.00  0.00     0.040 A 
HETATM   17  C17 UNL     1      33.829  44.981  14.617  1.00  0.00     0.060 A 
HETATM   18  C14 UNL     1      34.737  43.443  12.533  1.00  0.00     0.054 A 
HETATM   19  C15 UNL     1      33.442  43.422  12.951  1.00  0.00     0.007 A 
HETATM   20  C16 UNL     1      32.436  42.542  12.279  1.00  0.00     0.068 C 
HETATM   21  N2  UNL     1      32.996  44.172  13.969  1.00  0.00    -0.358 N 
ATOM     22  H2  UNL     1      32.015  44.121  14.247  1.00  0.00     0.166 HD
HETATM   23  C18 UNL     1      33.357  45.746  15.661  1.00  0.00     0.119 A 
HETATM   24  N3  UNL     1      34.194  46.566  16.321  1.00  0.00    -0.357 N 
ATOM     25  H3  UNL     1      33.828  47.126  17.091  1.00  0.00     0.166 HD
BRANCH  16  26
HETATM   26  N1  UNL     1      36.870  44.315  12.809  1.00  0.00    -0.398 N 
ATOM     27  H12 UNL     1      37.376  45.199  12.810  1.00  0.00     0.156 HD
ATOM     28  H11 UNL     1      37.375  43.485  12.497  1.00  0.00     0.156 HD
ENDBRANCH  16  26
ENDBRANCH  12  13
ENDBRANCH  10  11
ENDBRANCH   4   9
BRANCH   1  29
HETATM   29  O1  UNL     1      42.010  53.607  21.256  1.00  0.00    -0.356 OA
HETATM   30  C1  UNL     1      41.999  53.858  22.635  1.00  0.00     0.210 C 
ENDBRANCH   1  29
TORSDOF 5
ENDMDL
MODEL 5
REMARK VINA RESULT: -1.463538477      3.978     10.980
REMARK  5 active torsions:
REMARK  status: ('A' for Active; 'I' for Inactive)
REMARK    1  A    between atoms: O1_2  and  C2_3 
REMARK    2  A    between atoms: C5_6  and  C6_7 
REMARK    3  A    between atoms: C7_8  and  C8_9 
REMARK    4  A    between atoms: C9_10  and  C10_11 
REMARK    5  A    between atoms: C13_14  and  N1_15 
ROOT
HETATM    1  C2  UNL     1      34.452  43.515  11.885  1.00  0.00     0.069 A 
HETATM    2  C3  UNL     1      35.787  43.351  12.252  1.00  0.00     0.038 A 
HETATM    3  C4  UNL     1      36.333  44.222  13.169  1.00  0.00     0.025 A 
HETATM    4  C5  UNL     1      35.599  45.236  13.724  1.00  0.00     0.039 A 
HETATM    5  C19 UNL     1      34.290  45.419  13.383  1.00  0.00     0.066 A 
HETATM    6  C20 UNL     1      33.534  46.477  13.964  1.00  0.00     0.101 C 
HETATM    7  N4  UNL     1      32.928  47.328  14.446  1.00  0.00    -0.191 NA
HETATM    8  C21 UNL     1      33.731  44.542  12.455  1.00  0.00     0.061 A 
ENDROOT
BRANCH   4   9
HETATM    9  C6  UNL     1      36.189  46.146  14.690  1.00  0.00    -0.051 C 
HETATM   10  C7  UNL     1      36.696  46.892  15.490  1.00  0.00    -0.009 C 
BRANCH  10  11
HETATM   11  C8  UNL     1      37.318  47.760  16.433  1.00  0.00    -0.008 C 
HETATM   12  C9  UNL     1      37.861  48.499  17.221  1.00  0.00    -0.035 C 
BRANCH  12  13
HETATM   13  C10 UNL     1      38.506  49.395  18.140  1.00  0.00     0.088 A 
HETATM   14  C11 UNL     1      39.526  48.912  18.954  1.00  0.00     0.055 A 
HETATM   15  C12 UNL     1      40.196  49.702  19.862  1.00  0.00     0.021 A 
HETATM   16  C13 UNL     1      41.204  49.215  20.662  1.00  0.00     0.040 A 
HETATM   17  C17 UNL     1      39.799  51.039  19.933  1.00  0.00     0.060 A 
HETATM   18  C14 UNL     1      41.815  50.114  21.550  1.00  0.00     0.054 A 
HETATM   19  C15 UNL     1      41.387  51.405  21.576  1.00  0.00     0.007 A 
HETATM   20  C16 UNL     1      42.009  52.398  22.506  1.00  0.00     0.068 C 
HETATM   21  N2  UNL     1      40.403  51.860  20.787  1.00  0.00    -0.358 N 
ATOM     22  H2  UNL     1      40.116  52.838  20.842  1.00  0.00     0.166 HD
HETATM   23  C18 UNL     1      38.789  51.519  19.128  1.00  0.00     0.119 A 
HETATM   24  N3  UNL     1      38.175  50.693  18.261  1.00  0.00    -0.357 N 
ATOM     25  H3  UNL     1      37.429  51.065  17.674  1.00  0.00     0.166 HD
BRANCH  16  26
HETATM   26  N1  UNL     1      41.596  47.997  20.626  1.00  0.00    -0.398 N 
ATOM     27  H12 UNL     1      40.995  47.286  20.209  1.00  0.00     0.156 HD
ATOM     28  H11 UNL     1      42.495  47.691  20.999  1.00  0.00     0.156 HD
ENDBRANCH  16  26
ENDBRANCH  12  13
ENDBRANCH  10  11
ENDBRANCH   4   9
BRANCH   1  29
HETATM   29  O1  UNL     1      33.950  42.625  10.968  1.00  0.00    -0.356 OA
HETATM   30  C1  UNL     1      34.588  42.232   9.783  1.00  0.00     0.210 C 
ENDBRANCH   1  29
TORSDOF 5
ENDMDL
