MODEL 1
REMARK VINA RESULT: -8.005573430      0.000      0.000
REMARK  4 active torsions:
REMARK  status: ('A' for Active; 'I' for Inactive)
REMARK    1  A    between atoms: C7_7  and  O1_8 
REMARK    2  A    between atoms: C16_18  and  C17_19 
REMARK       I    between atoms: C17_19  and  N1_21 
REMARK    3  A    between atoms: N1_21  and  C18_23 
REMARK    4  A    between atoms: C19_30  and  O3_32 
ROOT
HETATM    1  C1  UNL     1      46.509  37.207  37.647  1.00  0.00     0.015 C 
HETATM    2  C2  UNL     1      46.630  35.678  37.613  1.00  0.00    -0.041 C 
HETATM    3  C3  UNL     1      45.712  35.177  38.713  1.00  0.00     0.015 C 
HETATM    4  C4  UNL     1      48.003  35.254  37.897  1.00  0.00     0.009 C 
HETATM    5  C5  UNL     1      48.270  33.848  37.504  1.00  0.00     0.004 C 
HETATM    6  C6  UNL     1      47.161  33.080  36.916  1.00  0.00     0.038 C 
HETATM    7  C7  UNL     1      46.188  33.783  36.021  1.00  0.00     0.067 C 
HETATM    8  C8  UNL     1      46.107  35.263  36.237  1.00  0.00     0.028 C 
HETATM    9  C9  UNL     1      46.788  36.106  35.229  1.00  0.00     0.009 C 
HETATM   10  C10 UNL     1      46.865  35.610  33.840  1.00  0.00     0.013 C 
HETATM   11  C11 UNL     1      45.900  34.515  33.606  1.00  0.00    -0.006 C 
HETATM   12  C12 UNL     1      44.524  35.085  33.844  1.00  0.00     0.019 C 
HETATM   13  C13 UNL     1      46.266  33.387  34.559  1.00  0.00     0.031 C 
HETATM   14  C14 UNL     1      47.558  32.759  34.186  1.00  0.00     0.009 C 
HETATM   15  C15 UNL     1      48.056  32.860  32.802  1.00  0.00     0.017 C 
HETATM   16  C16 UNL     1      47.103  33.260  31.744  1.00  0.00     0.113 C 
HETATM   17  C19 UNL     1      45.864  33.944  32.220  1.00  0.00     0.074 C 
HETATM   18  C20 UNL     1      44.645  33.013  32.135  1.00  0.00     0.047 C 
ENDROOT
BRANCH  16  19
HETATM   19  C17 UNL     1      46.825  32.084  30.877  1.00  0.00     0.243 C 
HETATM   20  O2  UNL     1      46.662  30.958  31.408  1.00  0.00    -0.272 OA
HETATM   21  N1  UNL     1      46.729  32.128  29.478  1.00  0.00    -0.157 N 
ATOM     22  H1  UNL     1      45.832  32.424  29.092  1.00  0.00     0.187 HD
BRANCH  21  23
HETATM   23  C18 UNL     1      47.637  31.838  28.640  1.00  0.00     0.710 A 
HETATM   24  N2  UNL     1      48.230  32.578  27.686  1.00  0.00    -0.117 N 
HETATM   25  N3  UNL     1      49.124  31.819  27.069  1.00  0.00     0.006 NA
ATOM     26  H2  UNL     1      48.027  33.555  27.474  1.00  0.00     0.202 HD
HETATM   27  N4  UNL     1      49.122  30.610  27.599  1.00  0.00     0.006 NA
HETATM   28  N5  UNL     1      48.214  30.624  28.559  1.00  0.00    -0.117 N 
ATOM     29  H5  UNL     1      47.983  29.828  29.153  1.00  0.00     0.202 HD
ENDBRANCH  21  23
ENDBRANCH  16  19
BRANCH  17  30
HETATM   30  O3  UNL     1      45.592  35.020  31.372  1.00  0.00    -0.389 OA
ATOM     31  H3  UNL     1      44.923  35.532  31.810  1.00  0.00     0.210 HD
ENDBRANCH  17  30
BRANCH   7  32
HETATM   32  O1  UNL     1      44.903  33.305  36.432  1.00  0.00    -0.389 OA
ATOM     33  H1  UNL     1      44.518  34.028  36.913  1.00  0.00     0.210 HD
ENDBRANCH   7  32
TORSDOF 4
ENDMDL
MODEL 2
REMARK VINA RESULT: -7.998417395      7.613      9.485
REMARK  4 active torsions:
REMARK  status: ('A' for Active; 'I' for Inactive)
REMARK    1  A    between atoms: C7_7  and  O1_8 
REMARK    2  A    between atoms: C16_18  and  C17_19 
REMARK       I    between atoms: C17_19  and  N1_21 
REMARK    3  A    between atoms: N1_21  and  C18_23 
REMARK    4  A    between atoms: C19_30  and  O3_32 
ROOT
HETATM    1  C1  UNL     1      42.080  39.160  33.554  1.00  0.00     0.015 C 
HETATM    2  C2  UNL     1      40.732  39.227  32.823  1.00  0.00    -0.041 C 
HETATM    3  C3  UNL     1      40.249  40.654  33.002  1.00  0.00     0.015 C 
HETATM    4  C4  UNL     1      39.764  38.307  33.422  1.00  0.00     0.009 C 
HETATM    5  C5  UNL     1      38.597  38.040  32.544  1.00  0.00     0.004 C 
HETATM    6  C6  UNL     1      38.553  38.720  31.240  1.00  0.00     0.038 C 
HETATM    7  C7  UNL     1      39.833  38.937  30.494  1.00  0.00     0.067 C 
HETATM    8  C8  UNL     1      41.057  38.944  31.355  1.00  0.00     0.028 C 
HETATM    9  C9  UNL     1      41.891  37.722  31.311  1.00  0.00     0.009 C 
HETATM   10  C10 UNL     1      41.930  36.947  30.053  1.00  0.00     0.013 C 
HETATM   11  C11 UNL     1      41.426  37.745  28.916  1.00  0.00    -0.006 C 
HETATM   12  C12 UNL     1      42.336  38.940  28.780  1.00  0.00     0.019 C 
HETATM   13  C13 UNL     1      39.983  38.110  29.231  1.00  0.00     0.031 C 
HETATM   14  C14 UNL     1      39.102  36.916  29.200  1.00  0.00     0.009 C 
HETATM   15  C15 UNL     1      39.498  35.726  28.425  1.00  0.00     0.017 C 
HETATM   16  C16 UNL     1      40.567  35.874  27.415  1.00  0.00     0.113 C 
HETATM   17  C19 UNL     1      41.441  37.074  27.574  1.00  0.00     0.074 C 
HETATM   18  C20 UNL     1      41.118  38.143  26.520  1.00  0.00     0.047 C 
ENDROOT
BRANCH  16  19
HETATM   19  C17 UNL     1      39.968  35.764  26.059  1.00  0.00     0.243 C 
HETATM   20  O2  UNL     1      39.745  36.812  25.403  1.00  0.00    -0.272 OA
HETATM   21  N1  UNL     1      39.618  34.557  25.434  1.00  0.00    -0.157 N 
ATOM     22  H1  UNL     1      40.371  34.050  24.969  1.00  0.00     0.187 HD
BRANCH  21  23
HETATM   23  C18 UNL     1      38.465  34.028  25.386  1.00  0.00     0.710 A 
HETATM   24  N2  UNL     1      38.030  32.817  25.778  1.00  0.00    -0.117 N 
HETATM   25  N3  UNL     1      36.734  32.737  25.516  1.00  0.00     0.006 NA
ATOM     26  H2  UNL     1      38.600  32.086  26.205  1.00  0.00     0.202 HD
HETATM   27  N4  UNL     1      36.323  33.863  24.963  1.00  0.00     0.006 NA
HETATM   28  N5  UNL     1      37.381  34.650  24.886  1.00  0.00    -0.117 N 
ATOM     29  H5  UNL     1      37.377  35.596  24.502  1.00  0.00     0.202 HD
ENDBRANCH  21  23
ENDBRANCH  16  19
BRANCH  17  30
HETATM   30  O3  UNL     1      42.767  36.697  27.353  1.00  0.00    -0.389 OA
ATOM     31  H3  UNL     1      42.758  35.750  27.275  1.00  0.00     0.210 HD
ENDBRANCH  17  30
BRANCH   7  32
HETATM   32  O1  UNL     1      39.746  40.281  30.007  1.00  0.00    -0.389 OA
ATOM     33  H1  UNL     1      40.171  40.258  29.158  1.00  0.00     0.210 HD
ENDBRANCH   7  32
TORSDOF 4
ENDMDL
MODEL 3
REMARK VINA RESULT: -7.922123905      8.511     10.298
REMARK  4 active torsions:
REMARK  status: ('A' for Active; 'I' for Inactive)
REMARK    1  A    between atoms: C7_7  and  O1_8 
REMARK    2  A    between atoms: C16_18  and  C17_19 
REMARK       I    between atoms: C17_19  and  N1_21 
REMARK    3  A    between atoms: N1_21  and  C18_23 
REMARK    4  A    between atoms: C19_30  and  O3_32 
ROOT
HETATM    1  C1  UNL     1      40.084  42.410  32.612  1.00  0.00     0.015 C 
HETATM    2  C2  UNL     1      40.915  42.272  31.330  1.00  0.00    -0.041 C 
HETATM    3  C3  UNL     1      42.331  42.644  31.727  1.00  0.00     0.015 C 
HETATM    4  C4  UNL     1      40.441  43.194  30.296  1.00  0.00     0.009 C 
HETATM    5  C5  UNL     1      40.931  42.846  28.939  1.00  0.00     0.004 C 
HETATM    6  C6  UNL     1      41.810  41.673  28.809  1.00  0.00     0.038 C 
HETATM    7  C7  UNL     1      41.565  40.484  29.686  1.00  0.00     0.067 C 
HETATM    8  C8  UNL     1      40.827  40.792  30.952  1.00  0.00     0.028 C 
HETATM    9  C9  UNL     1      39.398  40.408  30.983  1.00  0.00     0.009 C 
HETATM   10  C10 UNL     1      38.974  39.229  30.200  1.00  0.00     0.013 C 
HETATM   11  C11 UNL     1      40.132  38.392  29.821  1.00  0.00    -0.006 C 
HETATM   12  C12 UNL     1      40.773  37.921  31.103  1.00  0.00     0.019 C 
HETATM   13  C13 UNL     1      41.046  39.256  28.965  1.00  0.00     0.031 C 
HETATM   14  C14 UNL     1      40.428  39.561  27.650  1.00  0.00     0.009 C 
HETATM   15  C15 UNL     1      39.380  38.680  27.104  1.00  0.00     0.017 C 
HETATM   16  C16 UNL     1      39.226  37.331  27.689  1.00  0.00     0.113 C 
HETATM   17  C19 UNL     1      39.826  37.146  29.044  1.00  0.00     0.074 C 
HETATM   18  C20 UNL     1      41.118  36.317  28.974  1.00  0.00     0.047 C 
ENDROOT
BRANCH  16  19
HETATM   19  C17 UNL     1      39.691  36.321  26.702  1.00  0.00     0.243 C 
HETATM   20  O2  UNL     1      40.421  36.689  25.749  1.00  0.00    -0.272 OA
HETATM   21  N1  UNL     1      39.372  34.955  26.746  1.00  0.00    -0.157 N 
ATOM     22  H1  UNL     1      39.938  34.375  27.366  1.00  0.00     0.187 HD
BRANCH  21  23
HETATM   23  C18 UNL     1      38.457  34.363  26.095  1.00  0.00     0.710 A 
HETATM   24  N2  UNL     1      37.948  33.123  26.212  1.00  0.00    -0.117 N 
HETATM   25  N3  UNL     1      37.002  32.975  25.297  1.00  0.00     0.006 NA
ATOM     26  H2  UNL     1      38.240  32.418  26.889  1.00  0.00     0.202 HD
HETATM   27  N4  UNL     1      36.888  34.086  24.592  1.00  0.00     0.006 NA
HETATM   28  N5  UNL     1      37.777  34.932  25.082  1.00  0.00    -0.117 N 
ATOM     29  H5  UNL     1      37.927  35.882  24.741  1.00  0.00     0.202 HD
ENDBRANCH  21  23
ENDBRANCH  16  19
BRANCH  17  30
HETATM   30  O3  UNL     1      38.936  36.414  29.833  1.00  0.00    -0.389 OA
ATOM     31  H3  UNL     1      38.476  35.837  29.237  1.00  0.00     0.210 HD
ENDBRANCH  17  30
BRANCH   7  32
HETATM   32  O1  UNL     1      42.866  40.087  30.134  1.00  0.00    -0.389 OA
ATOM     33  H1  UNL     1      43.172  39.475  29.474  1.00  0.00     0.210 HD
ENDBRANCH   7  32
TORSDOF 4
ENDMDL
MODEL 4
REMARK VINA RESULT: -7.862281576      8.004      9.904
REMARK  4 active torsions:
REMARK  status: ('A' for Active; 'I' for Inactive)
REMARK    1  A    between atoms: C7_7  and  O1_8 
REMARK    2  A    between atoms: C16_18  and  C17_19 
REMARK       I    between atoms: C17_19  and  N1_21 
REMARK    3  A    between atoms: N1_21  and  C18_23 
REMARK    4  A    between atoms: C19_30  and  O3_32 
ROOT
HETATM    1  C1  UNL     1      42.058  40.322  33.003  1.00  0.00     0.015 C 
HETATM    2  C2  UNL     1      41.033  40.665  31.914  1.00  0.00    -0.041 C 
HETATM    3  C3  UNL     1      41.237  42.140  31.620  1.00  0.00     0.015 C 
HETATM    4  C4  UNL     1      39.666  40.450  32.395  1.00  0.00     0.009 C 
HETATM    5  C5  UNL     1      38.669  40.388  31.297  1.00  0.00     0.004 C 
HETATM    6  C6  UNL     1      39.156  40.559  29.919  1.00  0.00     0.038 C 
HETATM    7  C7  UNL     1      40.495  39.999  29.551  1.00  0.00     0.067 C 
HETATM    8  C8  UNL     1      41.426  39.810  30.708  1.00  0.00     0.028 C 
HETATM    9  C9  UNL     1      41.599  38.420  31.184  1.00  0.00     0.009 C 
HETATM   10  C10 UNL     1      41.482  37.324  30.200  1.00  0.00     0.013 C 
HETATM   11  C11 UNL     1      41.595  37.832  28.817  1.00  0.00    -0.006 C 
HETATM   12  C12 UNL     1      42.962  38.458  28.689  1.00  0.00     0.019 C 
HETATM   13  C13 UNL     1      40.453  38.814  28.606  1.00  0.00     0.031 C 
HETATM   14  C14 UNL     1      39.140  38.122  28.587  1.00  0.00     0.009 C 
HETATM   15  C15 UNL     1      39.065  36.688  28.249  1.00  0.00     0.017 C 
HETATM   16  C16 UNL     1      40.231  36.064  27.589  1.00  0.00     0.113 C 
HETATM   17  C19 UNL     1      41.520  36.807  27.724  1.00  0.00     0.074 C 
HETATM   18  C20 UNL     1      41.902  37.504  26.409  1.00  0.00     0.047 C 
ENDROOT
BRANCH  16  19
HETATM   19  C17 UNL     1      39.879  35.757  26.178  1.00  0.00     0.243 C 
HETATM   20  O2  UNL     1      39.834  36.694  25.342  1.00  0.00    -0.272 OA
HETATM   21  N1  UNL     1      39.582  34.476  25.688  1.00  0.00    -0.157 N 
ATOM     22  H1  UNL     1      40.378  33.884  25.451  1.00  0.00     0.187 HD
BRANCH  21  23
HETATM   23  C18 UNL     1      38.430  33.975  25.507  1.00  0.00     0.710 A 
HETATM   24  N2  UNL     1      37.962  32.732  25.719  1.00  0.00    -0.117 N 
HETATM   25  N3  UNL     1      36.684  32.705  25.374  1.00  0.00     0.006 NA
ATOM     26  H2  UNL     1      38.499  31.945  26.084  1.00  0.00     0.202 HD
HETATM   27  N4  UNL     1      36.315  33.898  24.943  1.00  0.00     0.006 NA
HETATM   28  N5  UNL     1      37.383  34.672  25.026  1.00  0.00    -0.117 N 
ATOM     29  H5  UNL     1      37.410  35.657  24.763  1.00  0.00     0.202 HD
ENDBRANCH  21  23
ENDBRANCH  16  19
BRANCH  17  30
HETATM   30  O3  UNL     1      42.539  35.891  27.990  1.00  0.00    -0.389 OA
ATOM     31  H3  UNL     1      42.113  35.047  28.080  1.00  0.00     0.210 HD
ENDBRANCH  17  30
BRANCH   7  32
HETATM   32  O1  UNL     1      41.117  41.027  28.772  1.00  0.00    -0.389 OA
ATOM     33  H1  UNL     1      41.641  40.562  28.131  1.00  0.00     0.210 HD
ENDBRANCH   7  32
TORSDOF 4
ENDMDL
MODEL 5
REMARK VINA RESULT: -7.502085200     10.155     12.743
REMARK  4 active torsions:
REMARK  status: ('A' for Active; 'I' for Inactive)
REMARK    1  A    between atoms: C7_7  and  O1_8 
REMARK    2  A    between atoms: C16_18  and  C17_19 
REMARK       I    between atoms: C17_19  and  N1_21 
REMARK    3  A    between atoms: N1_21  and  C18_23 
REMARK    4  A    between atoms: C19_30  and  O3_32 
ROOT
HETATM    1  C1  UNL     1      39.030  45.133  26.361  1.00  0.00     0.015 C 
HETATM    2  C2  UNL     1      40.014  43.956  26.382  1.00  0.00    -0.041 C 
HETATM    3  C3  UNL     1      41.374  44.564  26.093  1.00  0.00     0.015 C 
HETATM    4  C4  UNL     1      39.687  42.979  25.342  1.00  0.00     0.009 C 
HETATM    5  C5  UNL     1      40.340  41.663  25.555  1.00  0.00     0.004 C 
HETATM    6  C6  UNL     1      41.212  41.515  26.731  1.00  0.00     0.038 C 
HETATM    7  C7  UNL     1      40.842  42.218  28.000  1.00  0.00     0.067 C 
HETATM    8  C8  UNL     1      39.955  43.409  27.810  1.00  0.00     0.028 C 
HETATM    9  C9  UNL     1      38.528  43.220  28.156  1.00  0.00     0.009 C 
HETATM   10  C10 UNL     1      38.191  42.266  29.233  1.00  0.00     0.013 C 
HETATM   11  C11 UNL     1      39.376  41.943  30.055  1.00  0.00    -0.006 C 
HETATM   12  C12 UNL     1      39.844  43.235  30.678  1.00  0.00     0.019 C 
HETATM   13  C13 UNL     1      40.402  41.307  29.129  1.00  0.00     0.031 C 
HETATM   14  C14 UNL     1      39.959  39.968  28.667  1.00  0.00     0.009 C 
HETATM   15  C15 UNL     1      38.976  39.202  29.456  1.00  0.00     0.017 C 
HETATM   16  C16 UNL     1      38.732  39.612  30.855  1.00  0.00     0.113 C 
HETATM   17  C19 UNL     1      39.154  41.002  31.201  1.00  0.00     0.074 C 
HETATM   18  C20 UNL     1      40.433  41.001  32.052  1.00  0.00     0.047 C 
ENDROOT
BRANCH  16  19
HETATM   19  C17 UNL     1      39.304  38.584  31.765  1.00  0.00     0.243 C 
HETATM   20  O2  UNL     1      40.288  37.906  31.379  1.00  0.00    -0.272 OA
HETATM   21  N1  UNL     1      38.824  38.300  33.053  1.00  0.00    -0.157 N 
ATOM     22  H1  UNL     1      39.142  38.913  33.803  1.00  0.00     0.187 HD
BRANCH  21  23
HETATM   23  C18 UNL     1      38.035  37.361  33.384  1.00  0.00     0.710 A 
HETATM   24  N2  UNL     1      37.517  37.020  34.577  1.00  0.00    -0.117 N 
HETATM   25  N3  UNL     1      36.744  35.958  34.405  1.00  0.00     0.006 NA
ATOM     26  H2  UNL     1      37.691  37.496  35.462  1.00  0.00     0.202 HD
HETATM   27  N4  UNL     1      36.750  35.606  33.132  1.00  0.00     0.006 NA
HETATM   28  N5  UNL     1      37.539  36.464  32.510  1.00  0.00    -0.117 N 
ATOM     29  H5  UNL     1      37.743  36.449  31.511  1.00  0.00     0.202 HD
ENDBRANCH  21  23
ENDBRANCH  16  19
BRANCH  17  30
HETATM   30  O3  UNL     1      38.162  41.589  31.989  1.00  0.00    -0.389 OA
ATOM     31  H3  UNL     1      38.509  42.432  32.256  1.00  0.00     0.210 HD
ENDBRANCH  17  30
BRANCH   7  32
HETATM   32  O1  UNL     1      42.071  42.777  28.478  1.00  0.00    -0.389 OA
ATOM     33  H1  UNL     1      42.748  42.222  28.109  1.00  0.00     0.210 HD
ENDBRANCH   7  32
TORSDOF 4
ENDMDL
