MODEL 1
REMARK VINA RESULT: -7.048393363      0.000      0.000
REMARK  4 active torsions:
REMARK  status: ('A' for Active; 'I' for Inactive)
REMARK    1  A    between atoms: C2_2  and  O2_4 
REMARK    2  A    between atoms: O2_4  and  C3_5 
REMARK    3  A    between atoms: C9_13  and  C10_14 
REMARK    4  A    between atoms: C10_14  and  O4_15 
ROOT
HETATM    1  C3  UNL     1      -2.074 -10.536  20.074  1.00  0.00     0.140 C 
HETATM    2  C4  UNL     1      -1.236 -11.681  20.616  1.00  0.00     0.037 C 
HETATM    3  C5  UNL     1      -1.612 -11.893  22.037  1.00  0.00     0.059 C 
HETATM    4  C6  UNL     1      -1.671 -10.618  22.796  1.00  0.00     0.175 A 
HETATM    5  C7  UNL     1      -1.240 -10.752  24.210  1.00  0.00     0.100 C 
HETATM    6  N1  UNL     1      -0.893 -10.859  25.307  1.00  0.00    -0.194 NA
HETATM    7  O3  UNL     1      -2.815  -9.826  22.664  1.00  0.00    -0.353 OA
HETATM    8  C8  UNL     1      -1.480  -9.392  22.168  1.00  0.00     0.181 A 
HETATM    9  C9  UNL     1      -1.535  -9.270  20.688  1.00  0.00     0.072 C 
ENDROOT
BRANCH   9  10
HETATM   10  C10 UNL     1      -2.556  -8.170  20.368  1.00  0.00     0.174 C 
BRANCH  10  11
HETATM   11  O4  UNL     1      -2.388  -7.179  21.327  1.00  0.00    -0.400 OA
ATOM     12  H4  UNL     1      -3.247  -7.005  21.692  1.00  0.00     0.209 HD
ENDBRANCH  10  11
ENDBRANCH   9  10
BRANCH   1  13
HETATM   13  O2  UNL     1      -2.115 -10.502  18.680  1.00  0.00    -0.316 OA
BRANCH  13  14
HETATM   14  C2  UNL     1      -1.029 -10.638  17.847  1.00  0.00     0.255 C 
HETATM   15  C1  UNL     1       0.036  -9.608  17.706  1.00  0.00     0.126 C 
HETATM   16  O1  UNL     1      -0.938 -11.693  17.172  1.00  0.00    -0.266 OA
ENDBRANCH  13  14
ENDBRANCH   1  13
TORSDOF 4
ENDMDL
MODEL 2
REMARK VINA RESULT: -6.973419441      2.948      4.358
REMARK  4 active torsions:
REMARK  status: ('A' for Active; 'I' for Inactive)
REMARK    1  A    between atoms: C2_2  and  O2_4 
REMARK    2  A    between atoms: O2_4  and  C3_5 
REMARK    3  A    between atoms: C9_13  and  C10_14 
REMARK    4  A    between atoms: C10_14  and  O4_15 
ROOT
HETATM    1  C3  UNL     1      -1.108 -12.045  21.983  1.00  0.00     0.140 C 
HETATM    2  C4  UNL     1      -1.750 -12.004  20.607  1.00  0.00     0.037 C 
HETATM    3  C5  UNL     1      -1.631 -10.619  20.086  1.00  0.00     0.059 C 
HETATM    4  C6  UNL     1      -2.023  -9.605  21.098  1.00  0.00     0.175 A 
HETATM    5  C7  UNL     1      -2.687  -8.414  20.513  1.00  0.00     0.100 C 
HETATM    6  N1  UNL     1      -3.215  -7.493  20.055  1.00  0.00    -0.194 NA
HETATM    7  O3  UNL     1      -1.090  -9.262  22.080  1.00  0.00    -0.353 OA
HETATM    8  C8  UNL     1      -2.361  -9.970  22.396  1.00  0.00     0.181 A 
HETATM    9  C9  UNL     1      -2.038 -11.322  22.922  1.00  0.00     0.072 C 
ENDROOT
BRANCH   9  10
HETATM   10  C10 UNL     1      -1.255 -11.119  24.227  1.00  0.00     0.174 C 
BRANCH  10  11
HETATM   11  O4  UNL     1      -1.581 -12.185  25.056  1.00  0.00    -0.400 OA
ATOM     12  H4  UNL     1      -1.134 -12.035  25.881  1.00  0.00     0.209 HD
ENDBRANCH  10  11
ENDBRANCH   9  10
BRANCH   1  13
HETATM   13  O2  UNL     1      -0.795 -13.340  22.400  1.00  0.00    -0.316 OA
BRANCH  13  14
HETATM   14  C2  UNL     1      -0.911 -14.475  21.632  1.00  0.00     0.255 C 
HETATM   15  C1  UNL     1      -0.013 -14.791  20.488  1.00  0.00     0.126 C 
HETATM   16  O1  UNL     1      -1.827 -15.285  21.918  1.00  0.00    -0.266 OA
ENDBRANCH  13  14
ENDBRANCH   1  13
TORSDOF 4
ENDMDL
MODEL 3
REMARK VINA RESULT: -6.668236170      4.518      5.474
REMARK  4 active torsions:
REMARK  status: ('A' for Active; 'I' for Inactive)
REMARK    1  A    between atoms: C2_2  and  O2_4 
REMARK    2  A    between atoms: O2_4  and  C3_5 
REMARK    3  A    between atoms: C9_13  and  C10_14 
REMARK    4  A    between atoms: C10_14  and  O4_15 
ROOT
HETATM    1  C3  UNL     1      -4.045  -8.076  16.176  1.00  0.00     0.140 C 
HETATM    2  C4  UNL     1      -3.438  -9.374  16.679  1.00  0.00     0.037 C 
HETATM    3  C5  UNL     1      -3.751  -9.497  18.126  1.00  0.00     0.059 C 
HETATM    4  C6  UNL     1      -3.481  -8.237  18.865  1.00  0.00     0.175 A 
HETATM    5  C7  UNL     1      -2.992  -8.460  20.249  1.00  0.00     0.100 C 
HETATM    6  N1  UNL     1      -2.600  -8.637  21.322  1.00  0.00    -0.194 NA
HETATM    7  O3  UNL     1      -4.434  -7.218  18.798  1.00  0.00    -0.353 OA
HETATM    8  C8  UNL     1      -3.074  -7.084  18.205  1.00  0.00     0.181 A 
HETATM    9  C9  UNL     1      -3.204  -6.955  16.731  1.00  0.00     0.072 C 
ENDROOT
BRANCH   9  10
HETATM   10  C10 UNL     1      -3.984  -5.661  16.461  1.00  0.00     0.174 C 
BRANCH  10  11
HETATM   11  O4  UNL     1      -5.332  -5.976  16.579  1.00  0.00    -0.400 OA
ATOM     12  H4  UNL     1      -5.550  -6.523  15.834  1.00  0.00     0.209 HD
ENDBRANCH  10  11
ENDBRANCH   9  10
BRANCH   1  13
HETATM   13  O2  UNL     1      -4.175  -8.036  14.787  1.00  0.00    -0.316 OA
BRANCH  13  14
HETATM   14  C2  UNL     1      -5.350  -8.200  14.092  1.00  0.00     0.255 C 
HETATM   15  C1  UNL     1      -5.777  -9.491  13.486  1.00  0.00     0.126 C 
HETATM   16  O1  UNL     1      -6.100  -7.200  13.966  1.00  0.00    -0.266 OA
ENDBRANCH  13  14
ENDBRANCH   1  13
TORSDOF 4
ENDMDL
MODEL 4
REMARK VINA RESULT: -6.546088190      1.159      1.405
REMARK  4 active torsions:
REMARK  status: ('A' for Active; 'I' for Inactive)
REMARK    1  A    between atoms: C2_2  and  O2_4 
REMARK    2  A    between atoms: O2_4  and  C3_5 
REMARK    3  A    between atoms: C9_13  and  C10_14 
REMARK    4  A    between atoms: C10_14  and  O4_15 
ROOT
HETATM    1  C3  UNL     1      -2.062 -10.383  19.904  1.00  0.00     0.140 C 
HETATM    2  C4  UNL     1      -1.273 -11.577  20.413  1.00  0.00     0.037 C 
HETATM    3  C5  UNL     1      -1.703 -11.852  21.807  1.00  0.00     0.059 C 
HETATM    4  C6  UNL     1      -1.757 -10.616  22.630  1.00  0.00     0.175 A 
HETATM    5  C7  UNL     1      -1.379 -10.836  24.048  1.00  0.00     0.100 C 
HETATM    6  N1  UNL     1      -1.074 -11.008  25.150  1.00  0.00    -0.194 NA
HETATM    7  O3  UNL     1      -2.875  -9.789  22.501  1.00  0.00    -0.353 OA
HETATM    8  C8  UNL     1      -1.514  -9.366  22.074  1.00  0.00     0.181 A 
HETATM    9  C9  UNL     1      -1.513  -9.166  20.602  1.00  0.00     0.072 C 
ENDROOT
BRANCH   9  10
HETATM   10  C10 UNL     1      -2.495  -8.023  20.305  1.00  0.00     0.174 C 
BRANCH  10  11
HETATM   11  O4  UNL     1      -2.398  -7.130  21.365  1.00  0.00    -0.400 OA
ATOM     12  H4  UNL     1      -3.099  -7.348  21.969  1.00  0.00     0.209 HD
ENDBRANCH  10  11
ENDBRANCH   9  10
BRANCH   1  13
HETATM   13  O2  UNL     1      -2.054 -10.276  18.513  1.00  0.00    -0.316 OA
BRANCH  13  14
HETATM   14  C2  UNL     1      -3.065  -9.740  17.749  1.00  0.00     0.255 C 
HETATM   15  C1  UNL     1      -2.842  -8.739  16.671  1.00  0.00     0.126 C 
HETATM   16  O1  UNL     1      -4.238 -10.124  17.980  1.00  0.00    -0.266 OA
ENDBRANCH  13  14
ENDBRANCH   1  13
TORSDOF 4
ENDMDL
MODEL 5
REMARK VINA RESULT: -6.380470074      3.454      4.916
REMARK  4 active torsions:
REMARK  status: ('A' for Active; 'I' for Inactive)
REMARK    1  A    between atoms: C2_2  and  O2_4 
REMARK    2  A    between atoms: O2_4  and  C3_5 
REMARK    3  A    between atoms: C9_13  and  C10_14 
REMARK    4  A    between atoms: C10_14  and  O4_15 
ROOT
HETATM    1  C3  UNL     1      -2.662  -9.625  19.535  1.00  0.00     0.140 C 
HETATM    2  C4  UNL     1      -3.719  -9.900  18.480  1.00  0.00     0.037 C 
HETATM    3  C5  UNL     1      -3.619  -8.841  17.443  1.00  0.00     0.059 C 
HETATM    4  C6  UNL     1      -3.527  -7.483  18.038  1.00  0.00     0.175 A 
HETATM    5  C7  UNL     1      -4.204  -6.438  17.231  1.00  0.00     0.100 C 
HETATM    6  N1  UNL     1      -4.743  -5.629  16.605  1.00  0.00    -0.194 NA
HETATM    7  O3  UNL     1      -2.285  -7.059  18.519  1.00  0.00    -0.353 OA
HETATM    8  C8  UNL     1      -3.451  -7.299  19.414  1.00  0.00     0.181 A 
HETATM    9  C9  UNL     1      -3.131  -8.430  20.324  1.00  0.00     0.072 C 
ENDROOT
BRANCH   9  10
HETATM   10  C10 UNL     1      -1.938  -7.989  21.183  1.00  0.00     0.174 C 
BRANCH  10  11
HETATM   11  O4  UNL     1      -2.097  -8.592  22.425  1.00  0.00    -0.400 OA
ATOM     12  H4  UNL     1      -1.589  -9.395  22.404  1.00  0.00     0.209 HD
ENDBRANCH  10  11
ENDBRANCH   9  10
BRANCH   1  13
HETATM   13  O2  UNL     1      -2.381 -10.737  20.330  1.00  0.00    -0.316 OA
BRANCH  13  14
HETATM   14  C2  UNL     1      -1.454 -11.710  20.039  1.00  0.00     0.255 C 
HETATM   15  C1  UNL     1      -1.052 -12.779  20.993  1.00  0.00     0.126 C 
HETATM   16  O1  UNL     1      -0.921 -11.689  18.901  1.00  0.00    -0.266 OA
ENDBRANCH  13  14
ENDBRANCH   1  13
TORSDOF 4
ENDMDL
