MODEL 1
REMARK VINA RESULT: -9.947136254      0.000      0.000
REMARK  2 active torsions:
REMARK  status: ('A' for Active; 'I' for Inactive)
REMARK    1  A    between atoms: O1_1  and  N1_3 
REMARK    2  A    between atoms: C2_5  and  N2_6 
ROOT
HETATM    1  N1  UNL     1     -50.511 -11.177  -7.007  1.00  0.00    -0.242 N 
HETATM    2  C1  UNL     1     -50.827 -11.872  -8.263  1.00  0.00     0.184 C 
HETATM    3  C2  UNL     1     -51.498 -10.751  -9.012  1.00  0.00     0.145 C 
HETATM    4  C10 UNL     1     -52.207 -10.022  -7.974  1.00  0.00     0.010 A 
HETATM    5  C11 UNL     1     -53.304  -9.157  -7.909  1.00  0.00     0.014 A 
HETATM    6  C12 UNL     1     -53.717  -8.622  -6.709  1.00  0.00     0.018 A 
HETATM    7  C13 UNL     1     -53.067  -8.915  -5.515  1.00  0.00     0.090 A 
HETATM    8  N4  UNL     1     -52.017  -9.749  -5.605  1.00  0.00    -0.350 N 
ATOM      9  H4  UNL     1     -51.513  -9.990  -4.752  1.00  0.00     0.166 HD
HETATM   10  C14 UNL     1     -51.598 -10.283  -6.770  1.00  0.00     0.135 A 
ENDROOT
BRANCH   3  11
HETATM   11  N2  UNL     1     -52.315 -11.310 -10.048  1.00  0.00    -0.161 NA
HETATM   12  C3  UNL     1     -53.512 -11.850  -9.441  1.00  0.00     0.126 C 
HETATM   13  C4  UNL     1     -54.737 -11.269 -10.095  1.00  0.00     0.050 C 
HETATM   14  C5  UNL     1     -54.562 -11.418 -11.596  1.00  0.00     0.054 C 
HETATM   15  C6  UNL     1     -55.828 -10.920 -12.262  1.00  0.00     0.033 C 
HETATM   16  C9  UNL     1     -54.516 -12.840 -12.062  1.00  0.00     0.033 C 
HETATM   17  N3  UNL     1     -53.391 -10.681 -11.943  1.00  0.00    -0.273 N 
HETATM   18  C7  UNL     1     -56.783 -12.065 -12.013  1.00  0.00     0.002 C 
HETATM   19  C8  UNL     1     -55.956 -13.269 -12.324  1.00  0.00     0.002 C 
HETATM   20  O2  UNL     1     -52.575 -10.352 -10.959  1.00  0.00    -0.186 OA
ATOM     21  H3  UNL     1     -53.193 -10.420 -12.909  1.00  0.00     0.190 HD
ENDBRANCH   3  11
BRANCH   1  22
HETATM   22  O1  UNL     1     -49.412 -11.397  -6.290  1.00  0.00    -0.286 OA
ATOM     23  H1  UNL     1     -48.566 -11.013  -6.485  1.00  0.00     0.244 HD
ENDBRANCH   1  22
TORSDOF 2
ENDMDL
MODEL 2
REMARK VINA RESULT: -9.460332897      2.518      6.511
REMARK  2 active torsions:
REMARK  status: ('A' for Active; 'I' for Inactive)
REMARK    1  A    between atoms: O1_1  and  N1_3 
REMARK    2  A    between atoms: C2_5  and  N2_6 
ROOT
HETATM    1  N1  UNL     1     -57.000 -10.823 -12.548  1.00  0.00    -0.242 N 
HETATM    2  C1  UNL     1     -55.809 -10.202 -11.950  1.00  0.00     0.184 C 
HETATM    3  C2  UNL     1     -54.796 -11.282 -12.223  1.00  0.00     0.145 C 
HETATM    4  C10 UNL     1     -55.557 -12.511 -12.082  1.00  0.00     0.010 A 
HETATM    5  C11 UNL     1     -55.279 -13.853 -11.808  1.00  0.00     0.014 A 
HETATM    6  C12 UNL     1     -56.285 -14.792 -11.753  1.00  0.00     0.018 A 
HETATM    7  C13 UNL     1     -57.617 -14.450 -11.968  1.00  0.00     0.090 A 
HETATM    8  N4  UNL     1     -57.857 -13.155 -12.230  1.00  0.00    -0.350 N 
ATOM      9  H4  UNL     1     -58.821 -12.863 -12.393  1.00  0.00     0.166 HD
HETATM   10  C14 UNL     1     -56.886 -12.221 -12.287  1.00  0.00     0.135 A 
ENDROOT
BRANCH   3  11
HETATM   11  N2  UNL     1     -53.696 -11.125 -11.318  1.00  0.00    -0.161 NA
HETATM   12  C3  UNL     1     -54.228 -10.955  -9.983  1.00  0.00     0.126 C 
HETATM   13  C4  UNL     1     -53.623 -11.966  -9.047  1.00  0.00     0.050 C 
HETATM   14  C5  UNL     1     -52.117 -11.910  -9.233  1.00  0.00     0.054 C 
HETATM   15  C6  UNL     1     -51.491 -12.859  -8.232  1.00  0.00     0.033 C 
HETATM   16  C9  UNL     1     -51.505 -10.605  -8.835  1.00  0.00     0.033 C 
HETATM   17  N3  UNL     1     -51.864 -12.250 -10.595  1.00  0.00    -0.273 N 
HETATM   18  C7  UNL     1     -51.606 -12.075  -6.944  1.00  0.00     0.002 C 
HETATM   19  C8  UNL     1     -51.181 -10.701  -7.347  1.00  0.00     0.002 C 
HETATM   20  O2  UNL     1     -52.888 -12.198 -11.427  1.00  0.00    -0.186 OA
ATOM     21  H3  UNL     1     -50.934 -12.522 -10.912  1.00  0.00     0.190 HD
ENDBRANCH   3  11
BRANCH   1  22
HETATM   22  O1  UNL     1     -57.951 -10.147 -13.185  1.00  0.00    -0.286 OA
ATOM     23  H1  UNL     1     -58.554  -9.549 -12.760  1.00  0.00     0.244 HD
ENDBRANCH   1  22
TORSDOF 2
ENDMDL
MODEL 3
REMARK VINA RESULT: -9.220291755      1.460      1.907
REMARK  2 active torsions:
REMARK  status: ('A' for Active; 'I' for Inactive)
REMARK    1  A    between atoms: O1_1  and  N1_3 
REMARK    2  A    between atoms: C2_5  and  N2_6 
ROOT
HETATM    1  N1  UNL     1     -50.807 -11.092  -7.450  1.00  0.00    -0.242 N 
HETATM    2  C1  UNL     1     -51.638 -11.739  -8.476  1.00  0.00     0.184 C 
HETATM    3  C2  UNL     1     -52.575 -10.605  -8.795  1.00  0.00     0.145 C 
HETATM    4  C10 UNL     1     -52.761  -9.942  -7.516  1.00  0.00     0.010 A 
HETATM    5  C11 UNL     1     -53.722  -9.111  -6.933  1.00  0.00     0.014 A 
HETATM    6  C12 UNL     1     -53.570  -8.641  -5.647  1.00  0.00     0.018 A 
HETATM    7  C13 UNL     1     -52.460  -8.969  -4.875  1.00  0.00     0.090 A 
HETATM    8  N4  UNL     1     -51.552  -9.769  -5.459  1.00  0.00    -0.350 N 
ATOM      9  H4  UNL     1     -50.723 -10.033  -4.926  1.00  0.00     0.166 HD
HETATM   10  C14 UNL     1     -51.683 -10.239  -6.715  1.00  0.00     0.135 A 
ENDROOT
BRANCH   3  11
HETATM   11  N2  UNL     1     -53.761 -11.139  -9.397  1.00  0.00    -0.161 NA
HETATM   12  C3  UNL     1     -53.475 -11.424 -10.787  1.00  0.00     0.126 C 
HETATM   13  C4  UNL     1     -53.809 -12.857 -11.105  1.00  0.00     0.050 C 
HETATM   14  C5  UNL     1     -55.214 -13.118 -10.592  1.00  0.00     0.054 C 
HETATM   15  C6  UNL     1     -55.597 -14.529 -10.987  1.00  0.00     0.033 C 
HETATM   16  C9  UNL     1     -56.270 -12.314 -11.284  1.00  0.00     0.033 C 
HETATM   17  N3  UNL     1     -55.179 -12.895  -9.184  1.00  0.00    -0.273 N 
HETATM   18  C7  UNL     1     -55.901 -14.370 -12.460  1.00  0.00     0.002 C 
HETATM   19  C8  UNL     1     -56.713 -13.116 -12.503  1.00  0.00     0.002 C 
HETATM   20  O2  UNL     1     -54.144 -12.230  -8.706  1.00  0.00    -0.186 OA
ATOM     21  H3  UNL     1     -55.922 -13.235  -8.573  1.00  0.00     0.190 HD
ENDBRANCH   3  11
BRANCH   1  22
HETATM   22  O1  UNL     1     -49.504 -11.313  -7.300  1.00  0.00    -0.286 OA
ATOM     23  H1  UNL     1     -48.883 -11.342  -8.018  1.00  0.00     0.244 HD
ENDBRANCH   1  22
TORSDOF 2
ENDMDL
MODEL 4
REMARK VINA RESULT: -9.199820274      1.784      2.648
REMARK  2 active torsions:
REMARK  status: ('A' for Active; 'I' for Inactive)
REMARK    1  A    between atoms: O1_1  and  N1_3 
REMARK    2  A    between atoms: C2_5  and  N2_6 
ROOT
HETATM    1  N1  UNL     1     -52.709  -9.252  -6.462  1.00  0.00    -0.242 N 
HETATM    2  C1  UNL     1     -53.439  -9.455  -7.722  1.00  0.00     0.184 C 
HETATM    3  C2  UNL     1     -53.527 -10.958  -7.724  1.00  0.00     0.145 C 
HETATM    4  C10 UNL     1     -52.272 -11.377  -7.125  1.00  0.00     0.010 A 
HETATM    5  C11 UNL     1     -51.476 -12.526  -7.134  1.00  0.00     0.014 A 
HETATM    6  C12 UNL     1     -50.300 -12.582  -6.418  1.00  0.00     0.018 A 
HETATM    7  C13 UNL     1     -49.855 -11.505  -5.657  1.00  0.00     0.090 A 
HETATM    8  N4  UNL     1     -50.638 -10.414  -5.666  1.00  0.00    -0.350 N 
ATOM      9  H4  UNL     1     -50.347  -9.602  -5.121  1.00  0.00     0.166 HD
HETATM   10  C14 UNL     1     -51.791 -10.339  -6.361  1.00  0.00     0.135 A 
ENDROOT
BRANCH   3  11
HETATM   11  N2  UNL     1     -53.757 -11.407  -9.065  1.00  0.00    -0.161 NA
HETATM   12  C3  UNL     1     -54.341 -12.730  -9.007  1.00  0.00     0.126 C 
HETATM   13  C4  UNL     1     -55.630 -12.765  -9.783  1.00  0.00     0.050 C 
HETATM   14  C5  UNL     1     -55.352 -12.161 -11.149  1.00  0.00     0.054 C 
HETATM   15  C6  UNL     1     -56.619 -12.275 -11.972  1.00  0.00     0.033 C 
HETATM   16  C9  UNL     1     -54.385 -12.950 -11.974  1.00  0.00     0.033 C 
HETATM   17  N3  UNL     1     -54.924 -10.820 -10.919  1.00  0.00    -0.273 N 
HETATM   18  C7  UNL     1     -56.617 -13.739 -12.349  1.00  0.00     0.002 C 
HETATM   19  C8  UNL     1     -55.198 -13.983 -12.747  1.00  0.00     0.002 C 
HETATM   20  O2  UNL     1     -54.545 -10.513  -9.693  1.00  0.00    -0.186 OA
ATOM     21  H3  UNL     1     -54.910 -10.130 -11.670  1.00  0.00     0.190 HD
ENDBRANCH   3  11
BRANCH   1  22
HETATM   22  O1  UNL     1     -52.918  -8.229  -5.637  1.00  0.00    -0.286 OA
ATOM     23  H1  UNL     1     -52.358  -8.020  -4.899  1.00  0.00     0.244 HD
ENDBRANCH   1  22
TORSDOF 2
ENDMDL
MODEL 5
REMARK VINA RESULT: -9.162000581      2.441      6.664
REMARK  2 active torsions:
REMARK  status: ('A' for Active; 'I' for Inactive)
REMARK    1  A    between atoms: O1_1  and  N1_3 
REMARK    2  A    between atoms: C2_5  and  N2_6 
ROOT
HETATM    1  N1  UNL     1     -56.405 -11.327 -12.300  1.00  0.00    -0.242 N 
HETATM    2  C1  UNL     1     -55.210 -11.133 -11.466  1.00  0.00     0.184 C 
HETATM    3  C2  UNL     1     -54.558 -12.479 -11.641  1.00  0.00     0.145 C 
HETATM    4  C10 UNL     1     -55.680 -13.398 -11.722  1.00  0.00     0.010 A 
HETATM    5  C11 UNL     1     -55.894 -14.762 -11.502  1.00  0.00     0.014 A 
HETATM    6  C12 UNL     1     -57.138 -15.325 -11.688  1.00  0.00     0.018 A 
HETATM    7  C13 UNL     1     -58.230 -14.568 -12.100  1.00  0.00     0.090 A 
HETATM    8  N4  UNL     1     -57.997 -13.260 -12.303  1.00  0.00    -0.350 N 
ATOM      9  H4  UNL     1     -58.772 -12.670 -12.606  1.00  0.00     0.166 HD
HETATM   10  C14 UNL     1     -56.788 -12.690 -12.126  1.00  0.00     0.135 A 
ENDROOT
BRANCH   3  11
HETATM   11  N2  UNL     1     -53.650 -12.699 -10.554  1.00  0.00    -0.161 NA
HETATM   12  C3  UNL     1     -52.429 -11.973 -10.828  1.00  0.00     0.126 C 
HETATM   13  C4  UNL     1     -52.095 -11.062  -9.678  1.00  0.00     0.050 C 
HETATM   14  C5  UNL     1     -52.168 -11.891  -8.408  1.00  0.00     0.054 C 
HETATM   15  C6  UNL     1     -51.745 -11.008  -7.252  1.00  0.00     0.033 C 
HETATM   16  C9  UNL     1     -51.150 -12.985  -8.340  1.00  0.00     0.033 C 
HETATM   17  N3  UNL     1     -53.508 -12.372  -8.315  1.00  0.00    -0.273 N 
HETATM   18  C7  UNL     1     -50.244 -10.963  -7.427  1.00  0.00     0.002 C 
HETATM   19  C8  UNL     1     -49.894 -12.386  -7.714  1.00  0.00     0.002 C 
HETATM   20  O2  UNL     1     -54.245 -12.313  -9.408  1.00  0.00    -0.186 OA
ATOM     21  H3  UNL     1     -53.880 -12.744  -7.441  1.00  0.00     0.190 HD
ENDBRANCH   3  11
BRANCH   1  22
HETATM   22  O1  UNL     1     -56.960 -10.370 -13.039  1.00  0.00    -0.286 OA
ATOM     23  H1  UNL     1     -56.551  -9.531 -13.215  1.00  0.00     0.244 HD
ENDBRANCH   1  22
TORSDOF 2
ENDMDL
