MODEL 1
REMARK VINA RESULT: -8.770224673      0.000      0.000
REMARK  6 active torsions:
REMARK  status: ('A' for Active; 'I' for Inactive)
REMARK       I    between atoms: N1_2  and  C2_3 
REMARK    1  A    between atoms: N1_2  and  C16_26 
REMARK    2  A    between atoms: C2_3  and  C3_5 
REMARK    3  A    between atoms: C3_5  and  C4_6 
REMARK    4  A    between atoms: C5_8  and  N2_9 
REMARK    5  A    between atoms: N2_9  and  C6_11 
REMARK    6  A    between atoms: C15_23  and  O2_24 
ROOT
HETATM    1  C4  UNL     1      17.406  -1.692  -3.043  1.00  0.00     0.045 A 
HETATM    2  S1  UNL     1      15.732  -1.924  -2.787  1.00  0.00    -0.054 SA
HETATM    3  C5  UNL     1      15.793  -3.497  -2.118  1.00  0.00     0.149 A 
HETATM    4  N4  UNL     1      17.105  -3.765  -2.125  1.00  0.00    -0.317 N 
ATOM      5  H4  UNL     1      17.453  -4.657  -1.774  1.00  0.00     0.170 HD
HETATM    6  C15 UNL     1      17.927  -2.873  -2.585  1.00  0.00     0.155 A 
ENDROOT
BRANCH   3   7
HETATM    7  N2  UNL     1      14.865  -4.285  -1.665  1.00  0.00    -0.339 N 
ATOM      8  H2  UNL     1      14.306  -3.947  -0.882  1.00  0.00     0.164 HD
BRANCH   7   9
HETATM    9  C6  UNL     1      14.556  -5.596  -2.173  1.00  0.00     0.262 C 
HETATM   10  C7  UNL     1      14.102  -5.419  -3.617  1.00  0.00     0.061 C 
HETATM   11  C8  UNL     1      12.950  -6.309  -3.962  1.00  0.00     0.005 C 
HETATM   12  C9  UNL     1      13.263  -7.750  -4.096  1.00  0.00     0.000 C 
HETATM   13  C10 UNL     1      14.426  -8.119  -4.943  1.00  0.00     0.000 C 
HETATM   14  C11 UNL     1      15.112  -9.349  -4.328  1.00  0.00     0.000 C 
HETATM   15  C12 UNL     1      16.414  -8.943  -3.650  1.00  0.00     0.006 C 
HETATM   16  C13 UNL     1      16.260  -8.760  -2.182  1.00  0.00     0.059 C 
HETATM   17  C14 UNL     1      16.343  -7.316  -1.762  1.00  0.00     0.150 C 
HETATM   18  N3  UNL     1      15.493  -6.542  -1.969  1.00  0.00    -0.439 NA
ENDBRANCH   7   9
ENDBRANCH   3   7
BRANCH   1  19
HETATM   19  C3  UNL     1      18.148  -0.518  -3.596  1.00  0.00     0.153 C 
BRANCH  19  20
HETATM   20  C2  UNL     1      19.067   0.027  -2.602  1.00  0.00     0.224 C 
HETATM   21  N1  UNL     1      18.608   1.037  -1.717  1.00  0.00    -0.351 N 
HETATM   22  C1  UNL     1      17.252   1.548  -1.808  1.00  0.00     0.153 C 
HETATM   23  O1  UNL     1      20.255  -0.361  -2.494  1.00  0.00    -0.273 OA
BRANCH  21  24
HETATM   24  C16 UNL     1      19.441   1.606  -0.651  1.00  0.00     0.086 C 
HETATM   25  C17 UNL     1      20.077   2.913  -1.140  1.00  0.00     0.025 C 
HETATM   26  C18 UNL     1      19.345   4.016  -0.418  1.00  0.00     0.002 C 
HETATM   27  C19 UNL     1      18.660   3.436   0.765  1.00  0.00     0.002 C 
HETATM   28  C20 UNL     1      18.622   1.962   0.547  1.00  0.00     0.025 C 
ENDBRANCH  21  24
ENDBRANCH  19  20
ENDBRANCH   1  19
BRANCH   6  29
HETATM   29  O2  UNL     1      19.338  -3.093  -2.623  1.00  0.00    -0.345 OA
ATOM     30  H2  UNL     1      19.693  -3.805  -3.143  1.00  0.00     0.219 HD
ENDBRANCH   6  29
TORSDOF 6
ENDMDL
MODEL 2
REMARK VINA RESULT: -8.757074955      1.083      1.465
REMARK  6 active torsions:
REMARK  status: ('A' for Active; 'I' for Inactive)
REMARK       I    between atoms: N1_2  and  C2_3 
REMARK    1  A    between atoms: N1_2  and  C16_26 
REMARK    2  A    between atoms: C2_3  and  C3_5 
REMARK    3  A    between atoms: C3_5  and  C4_6 
REMARK    4  A    between atoms: C5_8  and  N2_9 
REMARK    5  A    between atoms: N2_9  and  C6_11 
REMARK    6  A    between atoms: C15_23  and  O2_24 
ROOT
HETATM    1  C4  UNL     1      17.033  -1.650  -3.033  1.00  0.00     0.045 A 
HETATM    2  S1  UNL     1      15.409  -2.101  -2.747  1.00  0.00    -0.054 SA
HETATM    3  C5  UNL     1      15.692  -3.625  -2.025  1.00  0.00     0.149 A 
HETATM    4  N4  UNL     1      17.029  -3.710  -2.040  1.00  0.00    -0.317 N 
ATOM      5  H4  UNL     1      17.499  -4.532  -1.663  1.00  0.00     0.170 HD
HETATM    6  C15 UNL     1      17.716  -2.731  -2.541  1.00  0.00     0.155 A 
ENDROOT
BRANCH   3   7
HETATM    7  N2  UNL     1      14.886  -4.517  -1.533  1.00  0.00    -0.339 N 
ATOM      8  H2  UNL     1      14.414  -4.288  -0.659  1.00  0.00     0.164 HD
BRANCH   7   9
HETATM    9  C6  UNL     1      14.600  -5.802  -2.115  1.00  0.00     0.262 C 
HETATM   10  C7  UNL     1      14.258  -5.562  -3.580  1.00  0.00     0.061 C 
HETATM   11  C8  UNL     1      13.126  -6.421  -4.045  1.00  0.00     0.005 C 
HETATM   12  C9  UNL     1      13.431  -7.860  -4.213  1.00  0.00     0.000 C 
HETATM   13  C10 UNL     1      14.649  -8.213  -4.986  1.00  0.00     0.000 C 
HETATM   14  C11 UNL     1      15.272  -9.476  -4.371  1.00  0.00     0.000 C 
HETATM   15  C12 UNL     1      16.524  -9.116  -3.581  1.00  0.00     0.006 C 
HETATM   16  C13 UNL     1      16.263  -8.989  -2.123  1.00  0.00     0.059 C 
HETATM   17  C14 UNL     1      16.331  -7.564  -1.640  1.00  0.00     0.150 C 
HETATM   18  N3  UNL     1      15.508  -6.769  -1.879  1.00  0.00    -0.439 NA
ENDBRANCH   7   9
ENDBRANCH   3   7
BRANCH   1  19
HETATM   19  C3  UNL     1      17.601  -0.406  -3.636  1.00  0.00     0.153 C 
BRANCH  19  20
HETATM   20  C2  UNL     1      17.525   0.705  -2.693  1.00  0.00     0.224 C 
HETATM   21  N1  UNL     1      18.589   1.643  -2.644  1.00  0.00    -0.351 N 
HETATM   22  C1  UNL     1      19.754   1.495  -3.496  1.00  0.00     0.153 C 
HETATM   23  O1  UNL     1      16.553   0.869  -1.918  1.00  0.00    -0.273 OA
BRANCH  21  24
HETATM   24  C16 UNL     1      18.577   2.822  -1.768  1.00  0.00     0.086 C 
HETATM   25  C17 UNL     1      18.974   2.408  -0.346  1.00  0.00     0.025 C 
HETATM   26  C18 UNL     1      20.369   2.940  -0.143  1.00  0.00     0.002 C 
HETATM   27  C19 UNL     1      20.626   3.998  -1.152  1.00  0.00     0.002 C 
HETATM   28  C20 UNL     1      19.585   3.834  -2.206  1.00  0.00     0.025 C 
ENDBRANCH  21  24
ENDBRANCH  19  20
ENDBRANCH   1  19
BRANCH   6  29
HETATM   29  O2  UNL     1      19.143  -2.756  -2.591  1.00  0.00    -0.345 OA
ATOM     30  H2  UNL     1      19.649  -2.496  -1.830  1.00  0.00     0.219 HD
ENDBRANCH   6  29
TORSDOF 6
ENDMDL
MODEL 3
REMARK VINA RESULT: -8.653748039      1.925      3.027
REMARK  6 active torsions:
REMARK  status: ('A' for Active; 'I' for Inactive)
REMARK       I    between atoms: N1_2  and  C2_3 
REMARK    1  A    between atoms: N1_2  and  C16_26 
REMARK    2  A    between atoms: C2_3  and  C3_5 
REMARK    3  A    between atoms: C3_5  and  C4_6 
REMARK    4  A    between atoms: C5_8  and  N2_9 
REMARK    5  A    between atoms: N2_9  and  C6_11 
REMARK    6  A    between atoms: C15_23  and  O2_24 
ROOT
HETATM    1  C4  UNL     1      17.514  -0.177  -2.504  1.00  0.00     0.045 A 
HETATM    2  S1  UNL     1      18.238  -1.622  -1.946  1.00  0.00    -0.054 SA
HETATM    3  C5  UNL     1      16.846  -2.616  -1.934  1.00  0.00     0.149 A 
HETATM    4  N4  UNL     1      15.890  -1.781  -2.362  1.00  0.00    -0.317 N 
ATOM      5  H4  UNL     1      14.928  -2.103  -2.459  1.00  0.00     0.170 HD
HETATM    6  C15 UNL     1      16.206  -0.557  -2.651  1.00  0.00     0.155 A 
ENDROOT
BRANCH   3   7
HETATM    7  N2  UNL     1      16.675  -3.868  -1.634  1.00  0.00    -0.339 N 
ATOM      8  H2  UNL     1      16.845  -4.143  -0.667  1.00  0.00     0.164 HD
BRANCH   7   9
HETATM    9  C6  UNL     1      16.266  -4.901  -2.549  1.00  0.00     0.262 C 
HETATM   10  C7  UNL     1      16.746  -6.226  -1.969  1.00  0.00     0.061 C 
HETATM   11  C8  UNL     1      17.275  -7.146  -3.022  1.00  0.00     0.005 C 
HETATM   12  C9  UNL     1      16.266  -7.752  -3.921  1.00  0.00     0.000 C 
HETATM   13  C10 UNL     1      15.078  -8.380  -3.287  1.00  0.00     0.000 C 
HETATM   14  C11 UNL     1      13.858  -8.148  -4.191  1.00  0.00     0.000 C 
HETATM   15  C12 UNL     1      12.950  -7.083  -3.590  1.00  0.00     0.006 C 
HETATM   16  C13 UNL     1      13.177  -5.738  -4.185  1.00  0.00     0.059 C 
HETATM   17  C14 UNL     1      13.848  -4.784  -3.232  1.00  0.00     0.150 C 
HETATM   18  N3  UNL     1      14.976  -4.867  -2.935  1.00  0.00    -0.439 NA
ENDBRANCH   7   9
ENDBRANCH   3   7
BRANCH   1  19
HETATM   19  C3  UNL     1      18.116   1.161  -2.790  1.00  0.00     0.153 C 
BRANCH  19  20
HETATM   20  C2  UNL     1      17.793   2.110  -1.730  1.00  0.00     0.224 C 
HETATM   21  N1  UNL     1      18.741   2.347  -0.702  1.00  0.00    -0.351 N 
HETATM   22  C1  UNL     1      20.009   1.640  -0.679  1.00  0.00     0.153 C 
HETATM   23  O1  UNL     1      16.703   2.730  -1.687  1.00  0.00    -0.273 OA
BRANCH  21  24
HETATM   24  C16 UNL     1      18.527   3.322   0.375  1.00  0.00     0.086 C 
HETATM   25  C17 UNL     1      17.860   2.629   1.569  1.00  0.00     0.025 C 
HETATM   26  C18 UNL     1      18.933   2.511   2.621  1.00  0.00     0.002 C 
HETATM   27  C19 UNL     1      20.020   3.471   2.302  1.00  0.00     0.002 C 
HETATM   28  C20 UNL     1      19.824   3.867   0.879  1.00  0.00     0.025 C 
ENDBRANCH  21  24
ENDBRANCH  19  20
ENDBRANCH   1  19
BRANCH   6  29
HETATM   29  O2  UNL     1      15.237   0.386  -3.111  1.00  0.00    -0.345 OA
ATOM     30  H2  UNL     1      14.592   0.126  -3.759  1.00  0.00     0.219 HD
ENDBRANCH   6  29
TORSDOF 6
ENDMDL
MODEL 4
REMARK VINA RESULT: -8.633889792      2.044      3.023
REMARK  6 active torsions:
REMARK  status: ('A' for Active; 'I' for Inactive)
REMARK       I    between atoms: N1_2  and  C2_3 
REMARK    1  A    between atoms: N1_2  and  C16_26 
REMARK    2  A    between atoms: C2_3  and  C3_5 
REMARK    3  A    between atoms: C3_5  and  C4_6 
REMARK    4  A    between atoms: C5_8  and  N2_9 
REMARK    5  A    between atoms: N2_9  and  C6_11 
REMARK    6  A    between atoms: C15_23  and  O2_24 
ROOT
HETATM    1  C4  UNL     1      17.692   0.391  -2.248  1.00  0.00     0.045 A 
HETATM    2  S1  UNL     1      18.662  -0.878  -1.640  1.00  0.00    -0.054 SA
HETATM    3  C5  UNL     1      17.497  -2.129  -1.678  1.00  0.00     0.149 A 
HETATM    4  N4  UNL     1      16.415  -1.503  -2.160  1.00  0.00    -0.317 N 
ATOM      5  H4  UNL     1      15.542  -2.011  -2.296  1.00  0.00     0.170 HD
HETATM    6  C15 UNL     1      16.495  -0.242  -2.450  1.00  0.00     0.155 A 
ENDROOT
BRANCH   3   7
HETATM    7  N2  UNL     1      17.565  -3.390  -1.370  1.00  0.00    -0.339 N 
ATOM      8  H2  UNL     1      17.944  -3.626  -0.454  1.00  0.00     0.164 HD
BRANCH   7   9
HETATM    9  C6  UNL     1      17.150  -4.482  -2.211  1.00  0.00     0.262 C 
HETATM   10  C7  UNL     1      18.056  -5.663  -1.886  1.00  0.00     0.061 C 
HETATM   11  C8  UNL     1      18.453  -6.426  -3.110  1.00  0.00     0.005 C 
HETATM   12  C9  UNL     1      17.388  -7.242  -3.738  1.00  0.00     0.000 C 
HETATM   13  C10 UNL     1      16.601  -8.135  -2.850  1.00  0.00     0.000 C 
HETATM   14  C11 UNL     1      15.153  -8.186  -3.363  1.00  0.00     0.000 C 
HETATM   15  C12 UNL     1      14.243  -7.367  -2.457  1.00  0.00     0.006 C 
HETATM   16  C13 UNL     1      13.987  -6.001  -2.990  1.00  0.00     0.059 C 
HETATM   17  C14 UNL     1      14.675  -4.926  -2.191  1.00  0.00     0.150 C 
HETATM   18  N3  UNL     1      15.829  -4.746  -2.223  1.00  0.00    -0.439 NA
ENDBRANCH   7   9
ENDBRANCH   3   7
BRANCH   1  19
HETATM   19  C3  UNL     1      18.030   1.821  -2.524  1.00  0.00     0.153 C 
BRANCH  19  20
HETATM   20  C2  UNL     1      19.322   2.168  -1.941  1.00  0.00     0.224 C 
HETATM   21  N1  UNL     1      19.370   2.658  -0.610  1.00  0.00    -0.351 N 
HETATM   22  C1  UNL     1      18.155   2.841   0.162  1.00  0.00     0.153 C 
HETATM   23  O1  UNL     1      20.401   2.053  -2.571  1.00  0.00    -0.273 OA
BRANCH  21  24
HETATM   24  C16 UNL     1      20.626   2.982   0.078  1.00  0.00     0.086 C 
HETATM   25  C17 UNL     1      21.011   4.437  -0.215  1.00  0.00     0.025 C 
HETATM   26  C18 UNL     1      20.744   5.193   1.061  1.00  0.00     0.002 C 
HETATM   27  C19 UNL     1      20.667   4.221   2.182  1.00  0.00     0.002 C 
HETATM   28  C20 UNL     1      20.474   2.880   1.561  1.00  0.00     0.025 C 
ENDBRANCH  21  24
ENDBRANCH  19  20
ENDBRANCH   1  19
BRANCH   6  29
HETATM   29  O2  UNL     1      15.381   0.488  -2.966  1.00  0.00    -0.345 OA
ATOM     30  H2  UNL     1      14.911   1.095  -2.405  1.00  0.00     0.219 HD
ENDBRANCH   6  29
TORSDOF 6
ENDMDL
MODEL 5
REMARK VINA RESULT: -8.633712862      1.443      1.909
REMARK  6 active torsions:
REMARK  status: ('A' for Active; 'I' for Inactive)
REMARK       I    between atoms: N1_2  and  C2_3 
REMARK    1  A    between atoms: N1_2  and  C16_26 
REMARK    2  A    between atoms: C2_3  and  C3_5 
REMARK    3  A    between atoms: C3_5  and  C4_6 
REMARK    4  A    between atoms: C5_8  and  N2_9 
REMARK    5  A    between atoms: N2_9  and  C6_11 
REMARK    6  A    between atoms: C15_23  and  O2_24 
ROOT
HETATM    1  C4  UNL     1      17.450  -1.344  -2.833  1.00  0.00     0.045 A 
HETATM    2  S1  UNL     1      16.211  -2.407  -2.327  1.00  0.00    -0.054 SA
HETATM    3  C5  UNL     1      17.192  -3.676  -1.734  1.00  0.00     0.149 A 
HETATM    4  N4  UNL     1      18.429  -3.215  -1.956  1.00  0.00    -0.317 N 
ATOM      5  H4  UNL     1      19.243  -3.771  -1.698  1.00  0.00     0.170 HD
HETATM    6  C15 UNL     1      18.577  -2.049  -2.506  1.00  0.00     0.155 A 
ENDROOT
BRANCH   3   7
HETATM    7  N2  UNL     1      16.900  -4.811  -1.171  1.00  0.00    -0.339 N 
ATOM      8  H2  UNL     1      17.310  -4.996  -0.256  1.00  0.00     0.164 HD
BRANCH   7   9
HETATM    9  C6  UNL     1      16.048  -5.829  -1.727  1.00  0.00     0.262 C 
HETATM   10  C7  UNL     1      14.829  -5.122  -2.306  1.00  0.00     0.061 C 
HETATM   11  C8  UNL     1      13.562  -5.872  -2.044  1.00  0.00     0.005 C 
HETATM   12  C9  UNL     1      13.375  -7.120  -2.820  1.00  0.00     0.000 C 
HETATM   13  C10 UNL     1      13.596  -7.049  -4.288  1.00  0.00     0.000 C 
HETATM   14  C11 UNL     1      14.212  -8.377  -4.756  1.00  0.00     0.000 C 
HETATM   15  C12 UNL     1      15.693  -8.193  -5.062  1.00  0.00     0.006 C 
HETATM   16  C13 UNL     1      16.566  -8.618  -3.935  1.00  0.00     0.059 C 
HETATM   17  C14 UNL     1      17.226  -7.457  -3.239  1.00  0.00     0.150 C 
HETATM   18  N3  UNL     1      16.649  -6.718  -2.542  1.00  0.00    -0.439 NA
ENDBRANCH   7   9
ENDBRANCH   3   7
BRANCH   1  19
HETATM   19  C3  UNL     1      17.367   0.015  -3.451  1.00  0.00     0.153 C 
BRANCH  19  20
HETATM   20  C2  UNL     1      17.390   1.051  -2.425  1.00  0.00     0.224 C 
HETATM   21  N1  UNL     1      18.474   1.966  -2.390  1.00  0.00    -0.351 N 
HETATM   22  C1  UNL     1      19.566   1.864  -3.342  1.00  0.00     0.153 C 
HETATM   23  O1  UNL     1      16.486   1.171  -1.564  1.00  0.00    -0.273 OA
BRANCH  21  24
HETATM   24  C16 UNL     1      18.557   3.073  -1.430  1.00  0.00     0.086 C 
HETATM   25  C17 UNL     1      19.099   2.554  -0.093  1.00  0.00     0.025 C 
HETATM   26  C18 UNL     1      20.510   3.075   0.004  1.00  0.00     0.002 C 
HETATM   27  C19 UNL     1      20.663   4.209  -0.942  1.00  0.00     0.002 C 
HETATM   28  C20 UNL     1      19.518   4.121  -1.892  1.00  0.00     0.025 C 
ENDBRANCH  21  24
ENDBRANCH  19  20
ENDBRANCH   1  19
BRANCH   6  29
HETATM   29  O2  UNL     1      19.866  -1.496  -2.773  1.00  0.00    -0.345 OA
ATOM     30  H2  UNL     1      20.166  -1.402  -3.670  1.00  0.00     0.219 HD
ENDBRANCH   6  29
TORSDOF 6
ENDMDL
