MODEL 1
REMARK VINA RESULT: -9.601975038      0.000      0.000
REMARK  12 active torsions:
REMARK  status: ('A' for Active; 'I' for Inactive)
REMARK    1  A    between atoms: N1_1  and  C1_4 
REMARK    2  A    between atoms: C2_6  and  C3_7 
REMARK    3  A    between atoms: N4_16  and  O3_17 
REMARK    4  A    between atoms: C6_19  and  S2_20 
REMARK    5  A    between atoms: S2_20  and  C7_21 
REMARK    6  A    between atoms: C7_21  and  C8_22 
REMARK       I    between atoms: C8_22  and  N5_24 
REMARK    7  A    between atoms: N5_24  and  C9_26 
REMARK    8  A    between atoms: N6_32  and  N7_33 
REMARK       I    between atoms: N7_33  and  C15_35 
REMARK    9  A    between atoms: C15_35  and  C16_37 
REMARK   10  A    between atoms: C16_37  and  C17_39 
REMARK   11  A    between atoms: C17_39  and  O7_40 
REMARK   12  A    between atoms: O7_40  and  N8_41 
ROOT
HETATM    1  C1  UNL     1     -12.522  -2.150   5.734  1.00  0.00     0.165 A 
HETATM    2  S1  UNL     1     -12.061  -1.132   7.022  1.00  0.00    -0.046 SA
HETATM    3  C2  UNL     1     -13.589  -1.159   7.893  1.00  0.00     0.091 A 
HETATM    4  C6  UNL     1     -14.319  -1.964   7.106  1.00  0.00     0.117 A 
HETATM    5  N6  UNL     1     -13.776  -2.464   6.002  1.00  0.00    -0.223 N 
ENDROOT
BRANCH   3   6
HETATM    6  C3  UNL     1     -13.777  -0.331   9.076  1.00  0.00     0.171 A 
HETATM    7  N2  UNL     1     -13.122  -0.727  10.221  1.00  0.00    -0.279 N 
HETATM    8  N3  UNL     1     -13.171  -0.028  11.329  1.00  0.00    -0.260 N 
ATOM      9  H2  UNL     1     -12.582  -1.592  10.207  1.00  0.00     0.189 HD
HETATM   10  C4  UNL     1     -13.866   1.117  11.405  1.00  0.00     0.330 A 
ATOM     11  H3  UNL     1     -12.669  -0.361  12.151  1.00  0.00     0.190 HD
HETATM   12  O1  UNL     1     -13.898   1.774  12.483  1.00  0.00    -0.260 OA
HETATM   13  C5  UNL     1     -14.525   1.539  10.289  1.00  0.00     0.343 A 
HETATM   14  O2  UNL     1     -15.177   2.599  10.335  1.00  0.00    -0.259 OA
HETATM   15  N4  UNL     1     -14.451   0.778   9.140  1.00  0.00    -0.163 N 
BRANCH  15  16
HETATM   16  O3  UNL     1     -15.094   1.339   8.067  1.00  0.00    -0.278 OA
ATOM     17  H3  UNL     1     -15.704   2.064   8.140  1.00  0.00     0.245 HD
ENDBRANCH  15  16
ENDBRANCH   3   6
BRANCH   4  18
HETATM   18  S2  UNL     1     -15.996  -2.368   7.657  1.00  0.00    -0.100 SA
BRANCH  18  19
HETATM   19  C7  UNL     1     -17.042  -1.025   8.007  1.00  0.00     0.184 C 
BRANCH  19  20
HETATM   20  C8  UNL     1     -17.776  -0.929   9.269  1.00  0.00     0.231 C 
HETATM   21  O4  UNL     1     -19.008  -0.811   9.294  1.00  0.00    -0.272 OA
HETATM   22  N5  UNL     1     -17.094  -0.971  10.508  1.00  0.00    -0.327 N 
ATOM     23  H5  UNL     1     -16.081  -1.071  10.442  1.00  0.00     0.169 HD
BRANCH  22  24
HETATM   24  C9  UNL     1     -17.601  -0.895  11.804  1.00  0.00     0.034 A 
HETATM   25  C10 UNL     1     -18.302  -1.870  12.447  1.00  0.00     0.029 A 
HETATM   26  C11 UNL     1     -18.764  -1.718  13.763  1.00  0.00     0.002 A 
HETATM   27  C12 UNL     1     -18.521  -0.563  14.452  1.00  0.00     0.000 A 
HETATM   28  C13 UNL     1     -17.823   0.422  13.822  1.00  0.00     0.002 A 
HETATM   29  C14 UNL     1     -17.358   0.300  12.535  1.00  0.00     0.029 A 
ENDBRANCH  22  24
ENDBRANCH  19  20
ENDBRANCH  18  19
ENDBRANCH   4  18
BRANCH   1  30
HETATM   30  N1  UNL     1     -11.672  -2.449   4.798  1.00  0.00    -0.378 N 
ATOM     31  H12 UNL     1     -10.796  -2.969   4.749  1.00  0.00     0.158 HD
ATOM     32  H11 UNL     1     -11.820  -2.117   3.845  1.00  0.00     0.158 HD
ENDBRANCH   1  30
BRANCH   5  33
HETATM   33  N7  UNL     1     -14.550  -3.212   5.085  1.00  0.00    -0.254 N 
HETATM   34  C15 UNL     1     -15.659  -2.877   4.349  1.00  0.00     0.308 C 
HETATM   35  O5  UNL     1     -16.298  -1.827   4.279  1.00  0.00    -0.263 OA
ATOM     36  H7  UNL     1     -14.226  -4.169   4.945  1.00  0.00     0.191 HD
BRANCH  34  37
HETATM   37  C16 UNL     1     -16.212  -3.963   3.472  1.00  0.00     0.243 C 
HETATM   38  O6  UNL     1     -15.551  -4.990   3.339  1.00  0.00    -0.285 OA
BRANCH  37  39
HETATM   39  C17 UNL     1     -17.503  -3.804   2.794  1.00  0.00     0.289 C 
BRANCH  39  40
HETATM   40  O7  UNL     1     -17.524  -4.582   1.619  1.00  0.00    -0.279 OA
BRANCH  40  41
HETATM   41  N8  UNL     1     -18.545  -5.473   1.670  1.00  0.00    -0.311 N 
ATOM     42  H82 UNL     1     -18.973  -5.806   2.534  1.00  0.00     0.184 HD
ATOM     43  H81 UNL     1     -18.812  -5.753   0.726  1.00  0.00     0.184 HD
ENDBRANCH  40  41
ENDBRANCH  39  40
ENDBRANCH  37  39
ENDBRANCH  34  37
ENDBRANCH   5  33
TORSDOF 12
ENDMDL
MODEL 2
REMARK VINA RESULT: -9.588129644      0.959      1.615
REMARK  12 active torsions:
REMARK  status: ('A' for Active; 'I' for Inactive)
REMARK    1  A    between atoms: N1_1  and  C1_4 
REMARK    2  A    between atoms: C2_6  and  C3_7 
REMARK    3  A    between atoms: N4_16  and  O3_17 
REMARK    4  A    between atoms: C6_19  and  S2_20 
REMARK    5  A    between atoms: S2_20  and  C7_21 
REMARK    6  A    between atoms: C7_21  and  C8_22 
REMARK       I    between atoms: C8_22  and  N5_24 
REMARK    7  A    between atoms: N5_24  and  C9_26 
REMARK    8  A    between atoms: N6_32  and  N7_33 
REMARK       I    between atoms: N7_33  and  C15_35 
REMARK    9  A    between atoms: C15_35  and  C16_37 
REMARK   10  A    between atoms: C16_37  and  C17_39 
REMARK   11  A    between atoms: C17_39  and  O7_40 
REMARK   12  A    between atoms: O7_40  and  N8_41 
ROOT
HETATM    1  C1  UNL     1     -12.346  -2.347   5.606  1.00  0.00     0.165 A 
HETATM    2  S1  UNL     1     -11.786  -1.353   6.872  1.00  0.00    -0.046 SA
HETATM    3  C2  UNL     1     -13.284  -1.290   7.793  1.00  0.00     0.091 A 
HETATM    4  C6  UNL     1     -14.084  -2.055   7.033  1.00  0.00     0.117 A 
HETATM    5  N6  UNL     1     -13.606  -2.588   5.915  1.00  0.00    -0.223 N 
ENDROOT
BRANCH   3   6
HETATM    6  C3  UNL     1     -13.386  -0.450   8.978  1.00  0.00     0.171 A 
HETATM    7  N2  UNL     1     -14.111   0.714   8.854  1.00  0.00    -0.279 N 
HETATM    8  N3  UNL     1     -14.319   1.517   9.868  1.00  0.00    -0.260 N 
ATOM      9  H2  UNL     1     -14.497   0.960   7.942  1.00  0.00     0.189 HD
HETATM   10  C4  UNL     1     -13.833   1.246  11.088  1.00  0.00     0.330 A 
ATOM     11  H3  UNL     1     -14.862   2.368   9.726  1.00  0.00     0.190 HD
HETATM   12  O1  UNL     1     -14.046   2.034  12.051  1.00  0.00    -0.260 OA
HETATM   13  C5  UNL     1     -13.112   0.100  11.247  1.00  0.00     0.343 A 
HETATM   14  O2  UNL     1     -12.651  -0.175  12.372  1.00  0.00    -0.259 OA
HETATM   15  N4  UNL     1     -12.914  -0.724  10.157  1.00  0.00    -0.163 N 
BRANCH  15  16
HETATM   16  O3  UNL     1     -12.236  -1.877  10.456  1.00  0.00    -0.278 OA
ATOM     17  H3  UNL     1     -11.591  -1.944  11.150  1.00  0.00     0.245 HD
ENDBRANCH  15  16
ENDBRANCH   3   6
BRANCH   4  18
HETATM   18  S2  UNL     1     -15.762  -2.362   7.641  1.00  0.00    -0.100 SA
BRANCH  18  19
HETATM   19  C7  UNL     1     -16.790  -0.971   7.817  1.00  0.00     0.184 C 
BRANCH  19  20
HETATM   20  C8  UNL     1     -17.494  -0.687   9.066  1.00  0.00     0.231 C 
HETATM   21  O4  UNL     1     -18.643  -0.227   9.073  1.00  0.00    -0.272 OA
HETATM   22  N5  UNL     1     -16.878  -0.934  10.316  1.00  0.00    -0.327 N 
ATOM     23  H5  UNL     1     -15.933  -1.315  10.266  1.00  0.00     0.169 HD
BRANCH  22  24
HETATM   24  C9  UNL     1     -17.370  -0.735  11.605  1.00  0.00     0.034 A 
HETATM   25  C10 UNL     1     -17.192   0.381  12.366  1.00  0.00     0.029 A 
HETATM   26  C11 UNL     1     -17.737   0.507  13.652  1.00  0.00     0.002 A 
HETATM   27  C12 UNL     1     -18.478  -0.507  14.191  1.00  0.00     0.000 A 
HETATM   28  C13 UNL     1     -18.664  -1.631  13.443  1.00  0.00     0.002 A 
HETATM   29  C14 UNL     1     -18.142  -1.780  12.181  1.00  0.00     0.029 A 
ENDBRANCH  22  24
ENDBRANCH  19  20
ENDBRANCH  18  19
ENDBRANCH   4  18
BRANCH   1  30
HETATM   30  N1  UNL     1     -11.544  -2.695   4.643  1.00  0.00    -0.378 N 
ATOM     31  H12 UNL     1     -10.549  -2.588   4.451  1.00  0.00     0.158 HD
ATOM     32  H11 UNL     1     -11.906  -3.191   3.828  1.00  0.00     0.158 HD
ENDBRANCH   1  30
BRANCH   5  33
HETATM   33  N7  UNL     1     -14.450  -3.293   5.026  1.00  0.00    -0.254 N 
HETATM   34  C15 UNL     1     -15.576  -2.905   4.344  1.00  0.00     0.308 C 
HETATM   35  O5  UNL     1     -16.173  -1.828   4.312  1.00  0.00    -0.263 OA
ATOM     36  H7  UNL     1     -14.173  -4.261   4.864  1.00  0.00     0.191 HD
BRANCH  34  37
HETATM   37  C16 UNL     1     -16.212  -3.958   3.484  1.00  0.00     0.243 C 
HETATM   38  O6  UNL     1     -15.580  -4.990   3.270  1.00  0.00    -0.285 OA
BRANCH  37  39
HETATM   39  C17 UNL     1     -17.550  -3.762   2.913  1.00  0.00     0.289 C 
BRANCH  39  40
HETATM   40  O7  UNL     1     -17.627  -4.388   1.652  1.00  0.00    -0.279 OA
BRANCH  40  41
HETATM   41  N8  UNL     1     -18.505  -5.420   1.699  1.00  0.00    -0.311 N 
ATOM     42  H82 UNL     1     -19.484  -5.328   1.970  1.00  0.00     0.184 HD
ATOM     43  H81 UNL     1     -18.041  -6.286   1.427  1.00  0.00     0.184 HD
ENDBRANCH  40  41
ENDBRANCH  39  40
ENDBRANCH  37  39
ENDBRANCH  34  37
ENDBRANCH   5  33
TORSDOF 12
ENDMDL
MODEL 3
REMARK VINA RESULT: -9.579908267      1.385      1.990
REMARK  12 active torsions:
REMARK  status: ('A' for Active; 'I' for Inactive)
REMARK    1  A    between atoms: N1_1  and  C1_4 
REMARK    2  A    between atoms: C2_6  and  C3_7 
REMARK    3  A    between atoms: N4_16  and  O3_17 
REMARK    4  A    between atoms: C6_19  and  S2_20 
REMARK    5  A    between atoms: S2_20  and  C7_21 
REMARK    6  A    between atoms: C7_21  and  C8_22 
REMARK       I    between atoms: C8_22  and  N5_24 
REMARK    7  A    between atoms: N5_24  and  C9_26 
REMARK    8  A    between atoms: N6_32  and  N7_33 
REMARK       I    between atoms: N7_33  and  C15_35 
REMARK    9  A    between atoms: C15_35  and  C16_37 
REMARK   10  A    between atoms: C16_37  and  C17_39 
REMARK   11  A    between atoms: C17_39  and  O7_40 
REMARK   12  A    between atoms: O7_40  and  N8_41 
ROOT
HETATM    1  C1  UNL     1     -12.750  -2.731   7.152  1.00  0.00     0.165 A 
HETATM    2  S1  UNL     1     -12.312  -1.781   8.498  1.00  0.00    -0.046 SA
HETATM    3  C2  UNL     1     -13.821  -0.888   8.647  1.00  0.00     0.091 A 
HETATM    4  C6  UNL     1     -14.531  -1.415   7.638  1.00  0.00     0.117 A 
HETATM    5  N6  UNL     1     -13.982  -2.351   6.873  1.00  0.00    -0.223 N 
ENDROOT
BRANCH   3   6
HETATM    6  C3  UNL     1     -13.952   0.179   9.628  1.00  0.00     0.171 A 
HETATM    7  N2  UNL     1     -14.380   1.402   9.163  1.00  0.00    -0.279 N 
HETATM    8  N3  UNL     1     -14.591   2.418   9.964  1.00  0.00    -0.260 N 
ATOM      9  H2  UNL     1     -14.539   1.522   8.163  1.00  0.00     0.189 HD
HETATM   10  C4  UNL     1     -14.398   2.319  11.288  1.00  0.00     0.330 A 
ATOM     11  H3  UNL     1     -14.908   3.304   9.572  1.00  0.00     0.190 HD
HETATM   12  O1  UNL     1     -14.607   3.311  12.040  1.00  0.00    -0.260 OA
HETATM   13  C5  UNL     1     -13.974   1.121  11.783  1.00  0.00     0.343 A 
HETATM   14  O2  UNL     1     -13.788   1.003  13.009  1.00  0.00    -0.259 OA
HETATM   15  N4  UNL     1     -13.765   0.072  10.910  1.00  0.00    -0.163 N 
BRANCH  15  16
HETATM   16  O3  UNL     1     -13.410  -1.097  11.531  1.00  0.00    -0.278 OA
ATOM     17  H3  UNL     1     -13.384  -1.204  12.475  1.00  0.00     0.245 HD
ENDBRANCH  15  16
ENDBRANCH   3   6
BRANCH   4  18
HETATM   18  S2  UNL     1     -16.240  -0.849   7.439  1.00  0.00    -0.100 SA
BRANCH  18  19
HETATM   19  C7  UNL     1     -17.399  -1.464   8.579  1.00  0.00     0.184 C 
BRANCH  19  20
HETATM   20  C8  UNL     1     -17.518  -0.913   9.929  1.00  0.00     0.231 C 
HETATM   21  O4  UNL     1     -17.178   0.248  10.188  1.00  0.00    -0.272 OA
HETATM   22  N5  UNL     1     -18.032  -1.699  10.987  1.00  0.00    -0.327 N 
ATOM     23  H5  UNL     1     -18.303  -2.649  10.731  1.00  0.00     0.169 HD
BRANCH  22  24
HETATM   24  C9  UNL     1     -18.224  -1.368  12.328  1.00  0.00     0.034 A 
HETATM   25  C10 UNL     1     -17.814  -0.220  12.935  1.00  0.00     0.029 A 
HETATM   26  C11 UNL     1     -18.063   0.043  14.290  1.00  0.00     0.002 A 
HETATM   27  C12 UNL     1     -18.736  -0.866  15.058  1.00  0.00     0.000 A 
HETATM   28  C13 UNL     1     -19.151  -2.020  14.466  1.00  0.00     0.002 A 
HETATM   29  C14 UNL     1     -18.921  -2.302  13.141  1.00  0.00     0.029 A 
ENDBRANCH  22  24
ENDBRANCH  19  20
ENDBRANCH  18  19
ENDBRANCH   4  18
BRANCH   1  30
HETATM   30  N1  UNL     1     -11.914  -3.600   6.664  1.00  0.00    -0.378 N 
ATOM     31  H12 UNL     1     -11.024  -4.000   6.961  1.00  0.00     0.158 HD
ATOM     32  H11 UNL     1     -12.097  -4.037   5.761  1.00  0.00     0.158 HD
ENDBRANCH   1  30
BRANCH   5  33
HETATM   33  N7  UNL     1     -14.650  -2.839   5.726  1.00  0.00    -0.254 N 
HETATM   34  C15 UNL     1     -14.177  -3.247   4.505  1.00  0.00     0.308 C 
HETATM   35  O5  UNL     1     -13.031  -3.305   4.058  1.00  0.00    -0.263 OA
ATOM     36  H7  UNL     1     -15.664  -2.898   5.825  1.00  0.00     0.191 HD
BRANCH  34  37
HETATM   37  C16 UNL     1     -15.216  -3.705   3.522  1.00  0.00     0.243 C 
HETATM   38  O6  UNL     1     -14.836  -4.115   2.428  1.00  0.00    -0.285 OA
BRANCH  37  39
HETATM   39  C17 UNL     1     -16.644  -3.664   3.856  1.00  0.00     0.289 C 
BRANCH  39  40
HETATM   40  O7  UNL     1     -17.413  -3.772   2.680  1.00  0.00    -0.279 OA
BRANCH  40  41
HETATM   41  N8  UNL     1     -17.655  -5.077   2.401  1.00  0.00    -0.311 N 
ATOM     42  H82 UNL     1     -16.976  -5.826   2.533  1.00  0.00     0.184 HD
ATOM     43  H81 UNL     1     -18.603  -5.188   2.045  1.00  0.00     0.184 HD
ENDBRANCH  40  41
ENDBRANCH  39  40
ENDBRANCH  37  39
ENDBRANCH  34  37
ENDBRANCH   5  33
TORSDOF 12
ENDMDL
MODEL 4
REMARK VINA RESULT: -9.443812399      1.694      6.779
REMARK  12 active torsions:
REMARK  status: ('A' for Active; 'I' for Inactive)
REMARK    1  A    between atoms: N1_1  and  C1_4 
REMARK    2  A    between atoms: C2_6  and  C3_7 
REMARK    3  A    between atoms: N4_16  and  O3_17 
REMARK    4  A    between atoms: C6_19  and  S2_20 
REMARK    5  A    between atoms: S2_20  and  C7_21 
REMARK    6  A    between atoms: C7_21  and  C8_22 
REMARK       I    between atoms: C8_22  and  N5_24 
REMARK    7  A    between atoms: N5_24  and  C9_26 
REMARK    8  A    between atoms: N6_32  and  N7_33 
REMARK       I    between atoms: N7_33  and  C15_35 
REMARK    9  A    between atoms: C15_35  and  C16_37 
REMARK   10  A    between atoms: C16_37  and  C17_39 
REMARK   11  A    between atoms: C17_39  and  O7_40 
REMARK   12  A    between atoms: O7_40  and  N8_41 
ROOT
HETATM    1  C1  UNL     1     -12.039  -1.653   8.575  1.00  0.00     0.165 A 
HETATM    2  S1  UNL     1     -12.261  -2.746   7.286  1.00  0.00    -0.046 SA
HETATM    3  C2  UNL     1     -13.788  -2.098   6.698  1.00  0.00     0.091 A 
HETATM    4  C6  UNL     1     -13.983  -1.084   7.556  1.00  0.00     0.117 A 
HETATM    5  N6  UNL     1     -13.093  -0.862   8.516  1.00  0.00    -0.223 N 
ENDROOT
BRANCH   3   6
HETATM    6  C3  UNL     1     -14.500  -2.759   5.615  1.00  0.00     0.171 A 
HETATM    7  N2  UNL     1     -15.870  -2.843   5.732  1.00  0.00    -0.279 N 
HETATM    8  N3  UNL     1     -16.619  -3.364   4.792  1.00  0.00    -0.260 N 
ATOM      9  H2  UNL     1     -16.315  -2.488   6.578  1.00  0.00     0.189 HD
HETATM   10  C4  UNL     1     -16.088  -3.847   3.659  1.00  0.00     0.330 A 
ATOM     11  H3  UNL     1     -17.630  -3.404   4.924  1.00  0.00     0.190 HD
HETATM   12  O1  UNL     1     -16.830  -4.345   2.766  1.00  0.00    -0.260 OA
HETATM   13  C5  UNL     1     -14.734  -3.779   3.509  1.00  0.00     0.343 A 
HETATM   14  O2  UNL     1     -14.217  -4.221   2.465  1.00  0.00    -0.259 OA
HETATM   15  N4  UNL     1     -13.976  -3.222   4.519  1.00  0.00    -0.163 N 
BRANCH  15  16
HETATM   16  O3  UNL     1     -12.640  -3.146   4.224  1.00  0.00    -0.278 OA
ATOM     17  H3  UNL     1     -12.254  -3.504   3.433  1.00  0.00     0.245 HD
ENDBRANCH  15  16
ENDBRANCH   3   6
BRANCH   4  18
HETATM   18  S2  UNL     1     -15.436  -0.037   7.288  1.00  0.00    -0.100 SA
BRANCH  18  19
HETATM   19  C7  UNL     1     -16.893  -0.506   8.112  1.00  0.00     0.184 C 
BRANCH  19  20
HETATM   20  C8  UNL     1     -17.184  -0.062   9.474  1.00  0.00     0.231 C 
HETATM   21  O4  UNL     1     -17.252   1.140   9.764  1.00  0.00    -0.272 OA
HETATM   22  N5  UNL     1     -17.398  -1.000  10.511  1.00  0.00    -0.327 N 
ATOM     23  H5  UNL     1     -17.335  -1.979  10.230  1.00  0.00     0.169 HD
BRANCH  22  24
HETATM   24  C9  UNL     1     -17.684  -0.786  11.858  1.00  0.00     0.034 A 
HETATM   25  C10 UNL     1     -17.291   0.287  12.599  1.00  0.00     0.029 A 
HETATM   26  C11 UNL     1     -17.636   0.433  13.951  1.00  0.00     0.002 A 
HETATM   27  C12 UNL     1     -18.391  -0.518  14.578  1.00  0.00     0.000 A 
HETATM   28  C13 UNL     1     -18.790  -1.599  13.852  1.00  0.00     0.002 A 
HETATM   29  C14 UNL     1     -18.467  -1.767  12.527  1.00  0.00     0.029 A 
ENDBRANCH  22  24
ENDBRANCH  19  20
ENDBRANCH  18  19
ENDBRANCH   4  18
BRANCH   1  30
HETATM   30  N1  UNL     1     -10.982  -1.735   9.329  1.00  0.00    -0.378 N 
ATOM     31  H12 UNL     1     -10.175  -2.354   9.384  1.00  0.00     0.158 HD
ATOM     32  H11 UNL     1     -10.841  -1.069  10.089  1.00  0.00     0.158 HD
ENDBRANCH   1  30
BRANCH   5  33
HETATM   33  N7  UNL     1     -13.327   0.113   9.513  1.00  0.00    -0.254 N 
HETATM   34  C15 UNL     1     -13.832   0.009  10.785  1.00  0.00     0.308 C 
HETATM   35  O5  UNL     1     -14.226  -0.969  11.422  1.00  0.00    -0.263 OA
ATOM     36  H7  UNL     1     -13.076   1.063   9.238  1.00  0.00     0.191 HD
BRANCH  34  37
HETATM   37  C16 UNL     1     -13.936   1.294  11.553  1.00  0.00     0.243 C 
HETATM   38  O6  UNL     1     -13.863   1.242  12.779  1.00  0.00    -0.285 OA
BRANCH  37  39
HETATM   39  C17 UNL     1     -14.118   2.576  10.864  1.00  0.00     0.289 C 
BRANCH  39  40
HETATM   40  O7  UNL     1     -15.199   3.277  11.436  1.00  0.00    -0.279 OA
BRANCH  40  41
HETATM   41  N8  UNL     1     -14.740   4.320  12.170  1.00  0.00    -0.311 N 
ATOM     42  H82 UNL     1     -13.762   4.605  12.211  1.00  0.00     0.184 HD
ATOM     43  H81 UNL     1     -15.512   4.766  12.665  1.00  0.00     0.184 HD
ENDBRANCH  40  41
ENDBRANCH  39  40
ENDBRANCH  37  39
ENDBRANCH  34  37
ENDBRANCH   5  33
TORSDOF 12
ENDMDL
MODEL 5
REMARK VINA RESULT: -9.440977615      2.856      8.103
REMARK  12 active torsions:
REMARK  status: ('A' for Active; 'I' for Inactive)
REMARK    1  A    between atoms: N1_1  and  C1_4 
REMARK    2  A    between atoms: C2_6  and  C3_7 
REMARK    3  A    between atoms: N4_16  and  O3_17 
REMARK    4  A    between atoms: C6_19  and  S2_20 
REMARK    5  A    between atoms: S2_20  and  C7_21 
REMARK    6  A    between atoms: C7_21  and  C8_22 
REMARK       I    between atoms: C8_22  and  N5_24 
REMARK    7  A    between atoms: N5_24  and  C9_26 
REMARK    8  A    between atoms: N6_32  and  N7_33 
REMARK       I    between atoms: N7_33  and  C15_35 
REMARK    9  A    between atoms: C15_35  and  C16_37 
REMARK   10  A    between atoms: C16_37  and  C17_39 
REMARK   11  A    between atoms: C17_39  and  O7_40 
REMARK   12  A    between atoms: O7_40  and  N8_41 
ROOT
HETATM    1  C1  UNL     1     -12.185  -0.708  11.519  1.00  0.00     0.165 A 
HETATM    2  S1  UNL     1     -11.139  -1.784  10.710  1.00  0.00    -0.046 SA
HETATM    3  C2  UNL     1     -11.901  -1.697   9.127  1.00  0.00     0.091 A 
HETATM    4  C6  UNL     1     -12.897  -0.831   9.369  1.00  0.00     0.117 A 
HETATM    5  N6  UNL     1     -13.045  -0.332  10.591  1.00  0.00    -0.223 N 
ENDROOT
BRANCH   3   6
HETATM    6  C3  UNL     1     -11.436  -2.544   8.038  1.00  0.00     0.171 A 
HETATM    7  N2  UNL     1     -10.209  -2.239   7.493  1.00  0.00    -0.279 N 
HETATM    8  N3  UNL     1      -9.664  -2.966   6.549  1.00  0.00    -0.260 N 
ATOM      9  H2  UNL     1      -9.707  -1.418   7.835  1.00  0.00     0.189 HD
HETATM   10  C4  UNL     1     -10.278  -4.054   6.061  1.00  0.00     0.330 A 
ATOM     11  H3  UNL     1      -8.753  -2.700   6.177  1.00  0.00     0.190 HD
HETATM   12  O1  UNL     1      -9.734  -4.741   5.151  1.00  0.00    -0.260 OA
HETATM   13  C5  UNL     1     -11.495  -4.387   6.579  1.00  0.00     0.343 A 
HETATM   14  O2  UNL     1     -12.085  -5.394   6.142  1.00  0.00    -0.259 OA
HETATM   15  N4  UNL     1     -12.037  -3.598   7.573  1.00  0.00    -0.163 N 
BRANCH  15  16
HETATM   16  O3  UNL     1     -13.227  -4.072   8.062  1.00  0.00    -0.278 OA
ATOM     17  H3  UNL     1     -13.588  -3.819   8.904  1.00  0.00     0.245 HD
ENDBRANCH  15  16
ENDBRANCH   3   6
BRANCH   4  18
HETATM   18  S2  UNL     1     -13.939  -0.350   7.969  1.00  0.00    -0.100 SA
BRANCH  18  19
HETATM   19  C7  UNL     1     -15.498  -1.111   7.863  1.00  0.00     0.184 C 
BRANCH  19  20
HETATM   20  C8  UNL     1     -15.759  -2.207   6.930  1.00  0.00     0.231 C 
HETATM   21  O4  UNL     1     -16.157  -3.311   7.322  1.00  0.00    -0.272 OA
HETATM   22  N5  UNL     1     -15.563  -2.034   5.539  1.00  0.00    -0.327 N 
ATOM     23  H5  UNL     1     -15.237  -1.109   5.259  1.00  0.00     0.169 HD
BRANCH  22  24
HETATM   24  C9  UNL     1     -15.750  -2.940   4.497  1.00  0.00     0.034 A 
HETATM   25  C10 UNL     1     -14.771  -3.475   3.716  1.00  0.00     0.029 A 
HETATM   26  C11 UNL     1     -15.045  -4.395   2.693  1.00  0.00     0.002 A 
HETATM   27  C12 UNL     1     -16.330  -4.789   2.445  1.00  0.00     0.000 A 
HETATM   28  C13 UNL     1     -17.321  -4.262   3.216  1.00  0.00     0.002 A 
HETATM   29  C14 UNL     1     -17.081  -3.360   4.223  1.00  0.00     0.029 A 
ENDBRANCH  22  24
ENDBRANCH  19  20
ENDBRANCH  18  19
ENDBRANCH   4  18
BRANCH   1  30
HETATM   30  N1  UNL     1     -11.998  -0.432  12.775  1.00  0.00    -0.378 N 
ATOM     31  H12 UNL     1     -11.918   0.421  13.329  1.00  0.00     0.158 HD
ATOM     32  H11 UNL     1     -11.876  -1.184  13.453  1.00  0.00     0.158 HD
ENDBRANCH   1  30
BRANCH   5  33
HETATM   33  N7  UNL     1     -14.155   0.482  10.915  1.00  0.00    -0.254 N 
HETATM   34  C15 UNL     1     -15.416   0.164  11.353  1.00  0.00     0.308 C 
HETATM   35  O5  UNL     1     -15.941  -0.925  11.590  1.00  0.00    -0.263 OA
ATOM     36  H7  UNL     1     -13.989   1.482  10.804  1.00  0.00     0.191 HD
BRANCH  34  37
HETATM   37  C16 UNL     1     -16.336   1.326  11.590  1.00  0.00     0.243 C 
HETATM   38  O6  UNL     1     -17.267   1.175  12.378  1.00  0.00    -0.285 OA
BRANCH  37  39
HETATM   39  C17 UNL     1     -16.133   2.606  10.902  1.00  0.00     0.289 C 
BRANCH  39  40
HETATM   40  O7  UNL     1     -14.920   3.187  11.323  1.00  0.00    -0.279 OA
BRANCH  40  41
HETATM   41  N8  UNL     1     -15.168   4.294  12.065  1.00  0.00    -0.311 N 
ATOM     42  H82 UNL     1     -16.102   4.641  12.282  1.00  0.00     0.184 HD
ATOM     43  H81 UNL     1     -14.290   4.718  12.365  1.00  0.00     0.184 HD
ENDBRANCH  40  41
ENDBRANCH  39  40
ENDBRANCH  37  39
ENDBRANCH  34  37
ENDBRANCH   5  33
TORSDOF 12
ENDMDL
