MODEL 1
REMARK VINA RESULT: -8.806851786      0.000      0.000
REMARK  4 active torsions:
REMARK  status: ('A' for Active; 'I' for Inactive)
REMARK    1  A    between atoms: C2_5  and  N2_6 
REMARK    2  A    between atoms: N2_6  and  C3_8 
REMARK    3  A    between atoms: C6_16  and  C7_17 
REMARK    4  A    between atoms: C8_18  and  C9_19 
ROOT
HETATM    1  O1  UNL     1      -2.144   5.769   7.206  1.00  0.00    -0.247 OA
HETATM    2  C1  UNL     1      -2.475   5.297   8.308  1.00  0.00     0.328 A 
HETATM    3  N1  UNL     1      -1.698   4.392   8.916  1.00  0.00    -0.293 N 
ATOM      4  H1  UNL     1      -0.826   4.077   8.491  1.00  0.00     0.172 HD
HETATM    5  C2  UNL     1      -2.109   3.905  10.125  1.00  0.00     0.126 A 
HETATM    6  C6  UNL     1      -3.275   4.306  10.726  1.00  0.00     0.076 A 
HETATM    7  C16 UNL     1      -4.050   5.265  10.030  1.00  0.00     0.263 A 
HETATM    8  O3  UNL     1      -5.126   5.644  10.574  1.00  0.00    -0.267 OA
HETATM    9  N6  UNL     1      -3.623   5.711   8.870  1.00  0.00    -0.275 N 
ATOM     10  H6  UNL     1      -4.187   6.403   8.375  1.00  0.00     0.173 HD
ENDROOT
BRANCH   6  11
HETATM   11  C7  UNL     1      -3.755   3.805  11.987  1.00  0.00     0.023 C 
HETATM   12  C8  UNL     1      -4.458   2.764  12.292  1.00  0.00     0.030 C 
BRANCH  12  13
HETATM   13  C9  UNL     1      -4.823   2.476  13.711  1.00  0.00     0.034 A 
HETATM   14  C10 UNL     1      -5.745   3.186  14.451  1.00  0.00     0.041 A 
HETATM   15  C11 UNL     1      -5.770   2.584  15.701  1.00  0.00    -0.005 A 
HETATM   16  C12 UNL     1      -4.878   1.536  15.702  1.00  0.00     0.149 A 
HETATM   17  C15 UNL     1      -6.581   2.933  16.896  1.00  0.00     0.045 C 
HETATM   18  N5  UNL     1      -4.319   1.496  14.481  1.00  0.00    -0.337 N 
HETATM   19  O2  UNL     1      -4.722   0.766  16.861  1.00  0.00    -0.335 OA
ATOM     20  H5  UNL     1      -3.615   0.821  14.182  1.00  0.00     0.168 HD
HETATM   21  C13 UNL     1      -5.829   0.702  17.738  1.00  0.00     0.178 C 
HETATM   22  C14 UNL     1      -6.198   2.122  18.099  1.00  0.00     0.031 C 
ENDBRANCH  12  13
ENDBRANCH   6  11
BRANCH   5  23
HETATM   23  N2  UNL     1      -1.236   2.948  10.747  1.00  0.00    -0.327 N 
ATOM     24  H2  UNL     1      -0.528   3.264  11.410  1.00  0.00     0.169 HD
BRANCH  23  25
HETATM   25  C3  UNL     1      -1.342   1.679  10.469  1.00  0.00     0.124 A 
HETATM   26  C4  UNL     1      -1.959   0.669  11.139  1.00  0.00     0.088 A 
HETATM   27  C5  UNL     1      -1.783  -0.511  10.425  1.00  0.00     0.098 A 
HETATM   28 BR1  UNL     1      -2.428  -2.257  10.880  1.00  0.00    -0.030 Br
HETATM   29  N3  UNL     1      -1.066  -0.166   9.348  1.00  0.00    -0.292 N 
HETATM   30  N4  UNL     1      -0.803   1.119   9.369  1.00  0.00    -0.284 N 
ATOM     31  H3  UNL     1      -0.766  -0.811   8.617  1.00  0.00     0.187 HD
ATOM     32  H4  UNL     1      -0.271   1.620   8.657  1.00  0.00     0.188 HD
ENDBRANCH  23  25
ENDBRANCH   5  23
TORSDOF 4
ENDMDL
MODEL 2
REMARK VINA RESULT: -8.505768810      3.331      7.854
REMARK  4 active torsions:
REMARK  status: ('A' for Active; 'I' for Inactive)
REMARK    1  A    between atoms: C2_5  and  N2_6 
REMARK    2  A    between atoms: N2_6  and  C3_8 
REMARK    3  A    between atoms: C6_16  and  C7_17 
REMARK    4  A    between atoms: C8_18  and  C9_19 
ROOT
HETATM    1  O1  UNL     1      -7.096   2.300  18.202  1.00  0.00    -0.247 OA
HETATM    2  C1  UNL     1      -6.377   2.246  17.189  1.00  0.00     0.328 A 
HETATM    3  N1  UNL     1      -6.536   3.136  16.201  1.00  0.00    -0.293 N 
ATOM      4  H1  UNL     1      -7.243   3.869  16.262  1.00  0.00     0.172 HD
HETATM    5  C2  UNL     1      -5.721   3.032  15.109  1.00  0.00     0.126 A 
HETATM    6  C6  UNL     1      -4.760   2.060  14.994  1.00  0.00     0.076 A 
HETATM    7  C16 UNL     1      -4.644   1.151  16.073  1.00  0.00     0.263 A 
HETATM    8  O3  UNL     1      -3.762   0.250  15.979  1.00  0.00    -0.267 OA
HETATM    9  N6  UNL     1      -5.445   1.282  17.107  1.00  0.00    -0.275 N 
ATOM     10  H6  UNL     1      -5.355   0.623  17.881  1.00  0.00     0.173 HD
ENDROOT
BRANCH   6  11
HETATM   11  C7  UNL     1      -3.895   1.901  13.855  1.00  0.00     0.023 C 
HETATM   12  C8  UNL     1      -4.092   1.387  12.685  1.00  0.00     0.030 C 
BRANCH  12  13
HETATM   13  C9  UNL     1      -2.996   1.351  11.671  1.00  0.00     0.034 A 
HETATM   14  C10 UNL     1      -2.607   0.232  10.965  1.00  0.00     0.041 A 
HETATM   15  C11 UNL     1      -1.567   0.645  10.143  1.00  0.00    -0.005 A 
HETATM   16  C12 UNL     1      -1.345   1.986  10.359  1.00  0.00     0.149 A 
HETATM   17  C15 UNL     1      -0.771  -0.142   9.168  1.00  0.00     0.045 C 
HETATM   18  N5  UNL     1      -2.226   2.385  11.291  1.00  0.00    -0.337 N 
HETATM   19  O2  UNL     1      -0.336   2.641   9.641  1.00  0.00    -0.335 OA
ATOM     20  H5  UNL     1      -2.300   3.335  11.657  1.00  0.00     0.168 HD
HETATM   21  C13 UNL     1      -0.002   2.103   8.377  1.00  0.00     0.178 C 
HETATM   22  C14 UNL     1       0.364   0.652   8.589  1.00  0.00     0.031 C 
ENDBRANCH  12  13
ENDBRANCH   6  11
BRANCH   5  23
HETATM   23  N2  UNL     1      -5.917   4.017  14.082  1.00  0.00    -0.327 N 
ATOM     24  H2  UNL     1      -6.757   3.987  13.505  1.00  0.00     0.169 HD
BRANCH  23  25
HETATM   25  C3  UNL     1      -5.027   4.950  13.882  1.00  0.00     0.124 A 
HETATM   26  C4  UNL     1      -4.303   5.691  14.762  1.00  0.00     0.088 A 
HETATM   27  C5  UNL     1      -3.486   6.559  14.045  1.00  0.00     0.098 A 
HETATM   28 BR1  UNL     1      -2.248   7.842  14.746  1.00  0.00    -0.030 Br
HETATM   29  N3  UNL     1      -3.751   6.307  12.758  1.00  0.00    -0.292 N 
HETATM   30  N4  UNL     1      -4.656   5.362  12.656  1.00  0.00    -0.284 N 
ATOM     31  H3  UNL     1      -3.312   6.781  11.969  1.00  0.00     0.187 HD
ATOM     32  H4  UNL     1      -5.024   4.994  11.778  1.00  0.00     0.188 HD
ENDBRANCH  23  25
ENDBRANCH   5  23
TORSDOF 4
ENDMDL
MODEL 3
REMARK VINA RESULT: -8.435883240      2.811      4.179
REMARK  4 active torsions:
REMARK  status: ('A' for Active; 'I' for Inactive)
REMARK    1  A    between atoms: C2_5  and  N2_6 
REMARK    2  A    between atoms: N2_6  and  C3_8 
REMARK    3  A    between atoms: C6_16  and  C7_17 
REMARK    4  A    between atoms: C8_18  and  C9_19 
ROOT
HETATM    1  O1  UNL     1       0.211   3.586   7.714  1.00  0.00    -0.247 OA
HETATM    2  C1  UNL     1      -0.472   3.442   8.744  1.00  0.00     0.328 A 
HETATM    3  N1  UNL     1      -0.998   4.509   9.359  1.00  0.00    -0.293 N 
ATOM      4  H1  UNL     1      -0.852   5.451   8.997  1.00  0.00     0.172 HD
HETATM    5  C2  UNL     1      -1.739   4.295  10.487  1.00  0.00     0.126 A 
HETATM    6  C6  UNL     1      -1.957   3.043  11.003  1.00  0.00     0.076 A 
HETATM    7  C16 UNL     1      -1.372   1.958  10.304  1.00  0.00     0.263 A 
HETATM    8  O3  UNL     1      -1.566   0.799  10.768  1.00  0.00    -0.267 OA
HETATM    9  N6  UNL     1      -0.666   2.202   9.222  1.00  0.00    -0.275 N 
ATOM     10  H6  UNL     1      -0.248   1.416   8.724  1.00  0.00     0.173 HD
ENDROOT
BRANCH   6  11
HETATM   11  C7  UNL     1      -2.713   2.774  12.197  1.00  0.00     0.023 C 
HETATM   12  C8  UNL     1      -3.985   2.714  12.420  1.00  0.00     0.030 C 
BRANCH  12  13
HETATM   13  C9  UNL     1      -4.509   2.410  13.785  1.00  0.00     0.034 A 
HETATM   14  C10 UNL     1      -5.460   3.153  14.452  1.00  0.00     0.041 A 
HETATM   15  C11 UNL     1      -5.648   2.521  15.673  1.00  0.00    -0.005 A 
HETATM   16  C12 UNL     1      -4.821   1.422  15.728  1.00  0.00     0.149 A 
HETATM   17  C15 UNL     1      -6.556   2.885  16.791  1.00  0.00     0.045 C 
HETATM   18  N5  UNL     1      -4.143   1.382  14.569  1.00  0.00    -0.337 N 
HETATM   19  O2  UNL     1      -4.828   0.612  16.871  1.00  0.00    -0.335 OA
ATOM     20  H5  UNL     1      -3.451   0.674  14.321  1.00  0.00     0.168 HD
HETATM   21  C13 UNL     1      -6.021   0.591  17.630  1.00  0.00     0.178 C 
HETATM   22  C14 UNL     1      -6.344   2.020  17.999  1.00  0.00     0.031 C 
ENDBRANCH  12  13
ENDBRANCH   6  11
BRANCH   5  23
HETATM   23  N2  UNL     1      -2.297   5.466  11.104  1.00  0.00    -0.327 N 
ATOM     24  H2  UNL     1      -1.758   5.975  11.805  1.00  0.00     0.169 HD
BRANCH  23  25
HETATM   25  C3  UNL     1      -3.488   5.883  10.775  1.00  0.00     0.124 A 
HETATM   26  C4  UNL     1      -4.326   6.759  11.390  1.00  0.00     0.088 A 
HETATM   27  C5  UNL     1      -5.490   6.865  10.637  1.00  0.00     0.098 A 
HETATM   28 BR1  UNL     1      -7.026   7.948  11.008  1.00  0.00    -0.030 Br
HETATM   29  N3  UNL     1      -5.308   6.047   9.593  1.00  0.00    -0.292 N 
HETATM   30  N4  UNL     1      -4.133   5.467   9.669  1.00  0.00    -0.284 N 
ATOM     31  H3  UNL     1      -5.985   5.897   8.845  1.00  0.00     0.187 HD
ATOM     32  H4  UNL     1      -3.764   4.800   8.991  1.00  0.00     0.188 HD
ENDBRANCH  23  25
ENDBRANCH   5  23
TORSDOF 4
ENDMDL
MODEL 4
REMARK VINA RESULT: -8.174461367      4.313      5.084
REMARK  4 active torsions:
REMARK  status: ('A' for Active; 'I' for Inactive)
REMARK    1  A    between atoms: C2_5  and  N2_6 
REMARK    2  A    between atoms: N2_6  and  C3_8 
REMARK    3  A    between atoms: C6_16  and  C7_17 
REMARK    4  A    between atoms: C8_18  and  C9_19 
ROOT
HETATM    1  O1  UNL     1      -1.732   9.873  11.048  1.00  0.00    -0.247 OA
HETATM    2  C1  UNL     1      -2.227   8.908  11.656  1.00  0.00     0.328 A 
HETATM    3  N1  UNL     1      -2.926   7.979  10.993  1.00  0.00    -0.293 N 
ATOM      4  H1  UNL     1      -3.064   8.044   9.984  1.00  0.00     0.172 HD
HETATM    5  C2  UNL     1      -3.449   6.939  11.709  1.00  0.00     0.126 A 
HETATM    6  C6  UNL     1      -3.284   6.819  13.066  1.00  0.00     0.076 A 
HETATM    7  C16 UNL     1      -2.534   7.835  13.706  1.00  0.00     0.263 A 
HETATM    8  O3  UNL     1      -2.374   7.736  14.956  1.00  0.00    -0.267 OA
HETATM    9  N6  UNL     1      -2.046   8.820  12.985  1.00  0.00    -0.275 N 
ATOM     10  H6  UNL     1      -1.507   9.548  13.453  1.00  0.00     0.173 HD
ENDROOT
BRANCH   6  11
HETATM   11  C7  UNL     1      -3.833   5.754  13.862  1.00  0.00     0.023 C 
HETATM   12  C8  UNL     1      -3.409   4.559  14.119  1.00  0.00     0.030 C 
BRANCH  12  13
HETATM   13  C9  UNL     1      -4.195   3.640  14.996  1.00  0.00     0.034 A 
HETATM   14  C10 UNL     1      -5.548   3.744  15.240  1.00  0.00     0.041 A 
HETATM   15  C11 UNL     1      -5.859   2.699  16.098  1.00  0.00    -0.005 A 
HETATM   16  C12 UNL     1      -4.709   1.989  16.358  1.00  0.00     0.149 A 
HETATM   17  C15 UNL     1      -7.169   2.326  16.690  1.00  0.00     0.045 C 
HETATM   18  N5  UNL     1      -3.717   2.584  15.675  1.00  0.00    -0.337 N 
HETATM   19  O2  UNL     1      -4.764   0.875  17.206  1.00  0.00    -0.335 OA
ATOM     20  H5  UNL     1      -2.743   2.279  15.673  1.00  0.00     0.168 HD
HETATM   21  C13 UNL     1      -6.002   0.197  17.287  1.00  0.00     0.178 C 
HETATM   22  C14 UNL     1      -7.045   1.214  17.689  1.00  0.00     0.031 C 
ENDBRANCH  12  13
ENDBRANCH   6  11
BRANCH   5  23
HETATM   23  N2  UNL     1      -4.178   5.959  10.954  1.00  0.00    -0.327 N 
ATOM     24  H2  UNL     1      -3.984   4.967  11.091  1.00  0.00     0.169 HD
BRANCH  23  25
HETATM   25  C3  UNL     1      -5.087   6.329  10.095  1.00  0.00     0.124 A 
HETATM   26  C4  UNL     1      -6.200   7.094  10.251  1.00  0.00     0.088 A 
HETATM   27  C5  UNL     1      -6.846   7.195   9.024  1.00  0.00     0.098 A 
HETATM   28 BR1  UNL     1      -8.463   8.144   8.631  1.00  0.00    -0.030 Br
HETATM   29  N3  UNL     1      -6.095   6.485   8.173  1.00  0.00    -0.292 N 
HETATM   30  N4  UNL     1      -5.060   5.974   8.796  1.00  0.00    -0.284 N 
ATOM     31  H3  UNL     1      -6.298   6.361   7.181  1.00  0.00     0.187 HD
ATOM     32  H4  UNL     1      -4.342   5.394   8.362  1.00  0.00     0.188 HD
ENDBRANCH  23  25
ENDBRANCH   5  23
TORSDOF 4
ENDMDL
MODEL 5
REMARK VINA RESULT: -8.098079516      3.284      4.357
REMARK  4 active torsions:
REMARK  status: ('A' for Active; 'I' for Inactive)
REMARK    1  A    between atoms: C2_5  and  N2_6 
REMARK    2  A    between atoms: N2_6  and  C3_8 
REMARK    3  A    between atoms: C6_16  and  C7_17 
REMARK    4  A    between atoms: C8_18  and  C9_19 
ROOT
HETATM    1  O1  UNL     1       0.083   3.937   7.737  1.00  0.00    -0.247 OA
HETATM    2  C1  UNL     1      -0.595   3.753   8.764  1.00  0.00     0.328 A 
HETATM    3  N1  UNL     1      -1.259   4.772   9.326  1.00  0.00    -0.293 N 
ATOM      4  H1  UNL     1      -1.221   5.709   8.925  1.00  0.00     0.172 HD
HETATM    5  C2  UNL     1      -1.988   4.516  10.453  1.00  0.00     0.126 A 
HETATM    6  C6  UNL     1      -2.061   3.268  11.019  1.00  0.00     0.076 A 
HETATM    7  C16 UNL     1      -1.337   2.236  10.375  1.00  0.00     0.263 A 
HETATM    8  O3  UNL     1      -1.396   1.082  10.886  1.00  0.00    -0.267 OA
HETATM    9  N6  UNL     1      -0.646   2.519   9.293  1.00  0.00    -0.275 N 
ATOM     10  H6  UNL     1      -0.127   1.770   8.834  1.00  0.00     0.173 HD
ENDROOT
BRANCH   6  11
HETATM   11  C7  UNL     1      -2.799   2.959  12.214  1.00  0.00     0.023 C 
HETATM   12  C8  UNL     1      -4.067   2.957  12.471  1.00  0.00     0.030 C 
BRANCH  12  13
HETATM   13  C9  UNL     1      -4.572   2.587  13.827  1.00  0.00     0.034 A 
HETATM   14  C10 UNL     1      -5.567   3.253  14.510  1.00  0.00     0.041 A 
HETATM   15  C11 UNL     1      -5.716   2.579  15.714  1.00  0.00    -0.005 A 
HETATM   16  C12 UNL     1      -4.824   1.532  15.744  1.00  0.00     0.149 A 
HETATM   17  C15 UNL     1      -6.645   2.858  16.839  1.00  0.00     0.045 C 
HETATM   18  N5  UNL     1      -4.144   1.563  14.586  1.00  0.00    -0.337 N 
HETATM   19  O2  UNL     1      -4.781   0.695  16.866  1.00  0.00    -0.335 OA
ATOM     20  H5  UNL     1      -3.410   0.906  14.321  1.00  0.00     0.168 HD
HETATM   21  C13 UNL     1      -5.971   0.580  17.621  1.00  0.00     0.178 C 
HETATM   22  C14 UNL     1      -6.382   1.977  18.025  1.00  0.00     0.031 C 
ENDBRANCH  12  13
ENDBRANCH   6  11
BRANCH   5  23
HETATM   23  N2  UNL     1      -2.695   5.634  11.012  1.00  0.00    -0.327 N 
ATOM     24  H2  UNL     1      -3.629   5.864  10.674  1.00  0.00     0.169 HD
BRANCH  23  25
HETATM   25  C3  UNL     1      -2.148   6.359  11.949  1.00  0.00     0.124 A 
HETATM   26  C4  UNL     1      -2.692   6.955  13.043  1.00  0.00     0.088 A 
HETATM   27  C5  UNL     1      -1.684   7.620  13.733  1.00  0.00     0.098 A 
HETATM   28 BR1  UNL     1      -1.852   8.637  15.348  1.00  0.00    -0.030 Br
HETATM   29  N3  UNL     1      -0.569   7.398  13.027  1.00  0.00    -0.292 N 
HETATM   30  N4  UNL     1      -0.836   6.657  11.977  1.00  0.00    -0.284 N 
ATOM     31  H3  UNL     1       0.355   7.753  13.270  1.00  0.00     0.187 HD
ATOM     32  H4  UNL     1      -0.151   6.353  11.285  1.00  0.00     0.188 HD
ENDBRANCH  23  25
ENDBRANCH   5  23
TORSDOF 4
ENDMDL
