MODEL 1
REMARK VINA RESULT: -8.704326510      0.000      0.000
REMARK  5 active torsions:
REMARK  status: ('A' for Active; 'I' for Inactive)
REMARK    1  A    between atoms: C2_5  and  N2_6 
REMARK    2  A    between atoms: N2_6  and  C3_8 
REMARK    3  A    between atoms: C3_8  and  C4_9 
REMARK    4  A    between atoms: C9_20  and  N6_21 
REMARK    5  A    between atoms: N6_21  and  C10_23 
ROOT
HETATM    1  O1  UNL     1      -2.647  -1.354  10.283  1.00  0.00    -0.266 OA
HETATM    2  C1  UNL     1      -1.942  -0.374  10.011  1.00  0.00     0.279 A 
HETATM    3  N1  UNL     1      -0.992  -0.411   9.056  1.00  0.00    -0.155 N 
ATOM      4  H1  UNL     1      -0.851  -1.280   8.540  1.00  0.00     0.187 HD
HETATM    5  C2  UNL     1      -0.223   0.647   8.754  1.00  0.00     0.682 A 
HETATM    6  N4  UNL     1      -0.412   1.805   9.439  1.00  0.00    -0.175 N 
ATOM      7  H4  UNL     1       0.169   2.611   9.210  1.00  0.00     0.186 HD
HETATM    8  C8  UNL     1      -1.336   1.931  10.406  1.00  0.00     0.158 A 
HETATM    9  N5  UNL     1      -1.489   3.106  11.065  1.00  0.00    -0.175 N 
ATOM     10  H5  UNL     1      -0.900   3.905  10.829  1.00  0.00     0.186 HD
HETATM   11  C9  UNL     1      -2.419   3.218  12.032  1.00  0.00     0.687 A 
HETATM   12  N7  UNL     1      -3.181   2.147  12.322  1.00  0.00    -0.155 N 
ATOM     13  H7  UNL     1      -3.884   2.235  13.055  1.00  0.00     0.187 HD
HETATM   14  C16 UNL     1      -3.057   0.967  11.690  1.00  0.00     0.279 A 
HETATM   15  O2  UNL     1      -3.766  -0.040  11.956  1.00  0.00    -0.266 OA
HETATM   16  C17 UNL     1      -2.104   0.820  10.686  1.00  0.00     0.146 A 
ENDROOT
BRANCH   5  17
HETATM   17  N2  UNL     1       0.675   0.567   7.831  1.00  0.00    -0.222 N 
ATOM     18  H2  UNL     1       0.360   0.517   6.861  1.00  0.00     0.178 HD
BRANCH  17  19
HETATM   19  C3  UNL     1       2.080   0.542   8.080  1.00  0.00     0.178 C 
BRANCH  19  20
HETATM   20  C4  UNL     1       2.694  -0.779   7.898  1.00  0.00    -0.023 A 
HETATM   21  C5  UNL     1       2.386  -1.922   8.597  1.00  0.00     0.027 A 
HETATM   22  C6  UNL     1       3.174  -2.929   8.132  1.00  0.00     0.088 A 
HETATM   23  N3  UNL     1       3.972  -2.458   7.158  1.00  0.00    -0.375 N 
HETATM   24  C7  UNL     1       3.684  -1.148   7.011  1.00  0.00     0.096 A 
ATOM     25  H3  UNL     1       4.664  -2.990   6.631  1.00  0.00     0.164 HD
ENDBRANCH  19  20
ENDBRANCH  17  19
ENDBRANCH   5  17
BRANCH  11  26
HETATM   26  N6  UNL     1      -2.565   4.334  12.658  1.00  0.00    -0.192 N 
ATOM     27  H6  UNL     1      -1.893   4.596  13.380  1.00  0.00     0.184 HD
BRANCH  26  28
HETATM   28  C10 UNL     1      -3.643   5.203  12.360  1.00  0.00     0.049 A 
HETATM   29  C11 UNL     1      -4.728   5.323  13.196  1.00  0.00     0.031 A 
HETATM   30  C12 UNL     1      -5.776   6.158  12.918  1.00  0.00     0.021 A 
HETATM   31  C13 UNL     1      -5.778   6.921  11.772  1.00  0.00     0.011 A 
HETATM   32 BR1  UNL     1      -7.226   8.095  11.357  1.00  0.00    -0.051 Br
HETATM   33  C14 UNL     1      -4.692   6.803  10.930  1.00  0.00     0.021 A 
HETATM   34  C15 UNL     1      -3.637   5.961  11.212  1.00  0.00     0.031 A 
ENDBRANCH  26  28
ENDBRANCH  11  26
TORSDOF 5
ENDMDL
MODEL 2
REMARK VINA RESULT: -8.564447489      2.919      3.602
REMARK  5 active torsions:
REMARK  status: ('A' for Active; 'I' for Inactive)
REMARK    1  A    between atoms: C2_5  and  N2_6 
REMARK    2  A    between atoms: N2_6  and  C3_8 
REMARK    3  A    between atoms: C3_8  and  C4_9 
REMARK    4  A    between atoms: C9_20  and  N6_21 
REMARK    5  A    between atoms: N6_21  and  C10_23 
ROOT
HETATM    1  O1  UNL     1      -2.465  -1.832  10.239  1.00  0.00    -0.266 OA
HETATM    2  C1  UNL     1      -2.089  -0.654  10.194  1.00  0.00     0.279 A 
HETATM    3  N1  UNL     1      -1.049  -0.257   9.433  1.00  0.00    -0.155 N 
ATOM      4  H1  UNL     1      -0.557  -0.955   8.875  1.00  0.00     0.187 HD
HETATM    5  C2  UNL     1      -0.634   1.018   9.377  1.00  0.00     0.682 A 
HETATM    6  N4  UNL     1      -1.290   1.949  10.119  1.00  0.00    -0.175 N 
ATOM      7  H4  UNL     1      -0.977   2.918  10.077  1.00  0.00     0.186 HD
HETATM    8  C8  UNL     1      -2.335   1.642  10.904  1.00  0.00     0.158 A 
HETATM    9  N5  UNL     1      -2.960   2.604  11.629  1.00  0.00    -0.175 N 
ATOM     10  H5  UNL     1      -2.637   3.570  11.581  1.00  0.00     0.186 HD
HETATM   11  C9  UNL     1      -4.006   2.282  12.411  1.00  0.00     0.687 A 
HETATM   12  N7  UNL     1      -4.409   0.999  12.455  1.00  0.00    -0.155 N 
ATOM     13  H7  UNL     1      -5.202   0.758  13.049  1.00  0.00     0.187 HD
HETATM   14  C16 UNL     1      -3.815   0.019  11.752  1.00  0.00     0.279 A 
HETATM   15  O2  UNL     1      -4.186  -1.184  11.788  1.00  0.00    -0.266 OA
HETATM   16  C17 UNL     1      -2.730   0.320  10.933  1.00  0.00     0.146 A 
ENDROOT
BRANCH   5  17
HETATM   17  N2  UNL     1       0.366   1.353   8.634  1.00  0.00    -0.222 N 
ATOM     18  H2  UNL     1       0.592   2.345   8.555  1.00  0.00     0.178 HD
BRANCH  17  19
HETATM   19  C3  UNL     1       1.178   0.424   7.916  1.00  0.00     0.178 C 
BRANCH  19  20
HETATM   20  C4  UNL     1       2.608   0.757   7.918  1.00  0.00    -0.023 A 
HETATM   21  C5  UNL     1       3.149   2.021   7.877  1.00  0.00     0.027 A 
HETATM   22  C6  UNL     1       4.504   1.903   7.895  1.00  0.00     0.088 A 
HETATM   23  N3  UNL     1       4.838   0.601   7.947  1.00  0.00    -0.375 N 
HETATM   24  C7  UNL     1       3.687  -0.101   7.962  1.00  0.00     0.096 A 
ATOM     25  H3  UNL     1       5.783   0.218   7.971  1.00  0.00     0.164 HD
ENDBRANCH  19  20
ENDBRANCH  17  19
ENDBRANCH   5  17
BRANCH  11  26
HETATM   26  N6  UNL     1      -4.600   3.195  13.100  1.00  0.00    -0.192 N 
ATOM     27  H6  UNL     1      -4.772   4.109  12.680  1.00  0.00     0.184 HD
BRANCH  26  28
HETATM   28  C10 UNL     1      -5.017   2.950  14.431  1.00  0.00     0.049 A 
HETATM   29  C11 UNL     1      -4.316   2.112  15.266  1.00  0.00     0.031 A 
HETATM   30  C12 UNL     1      -4.710   1.867  16.554  1.00  0.00     0.021 A 
HETATM   31  C13 UNL     1      -5.841   2.461  17.064  1.00  0.00     0.011 A 
HETATM   32 BR1  UNL     1      -6.416   2.138  18.857  1.00  0.00    -0.051 Br
HETATM   33  C14 UNL     1      -6.548   3.302  16.230  1.00  0.00     0.021 A 
HETATM   34  C15 UNL     1      -6.150   3.548  14.933  1.00  0.00     0.031 A 
ENDBRANCH  26  28
ENDBRANCH  11  26
TORSDOF 5
ENDMDL
MODEL 3
REMARK VINA RESULT: -8.477824060      1.085      1.736
REMARK  5 active torsions:
REMARK  status: ('A' for Active; 'I' for Inactive)
REMARK    1  A    between atoms: C2_5  and  N2_6 
REMARK    2  A    between atoms: N2_6  and  C3_8 
REMARK    3  A    between atoms: C3_8  and  C4_9 
REMARK    4  A    between atoms: C9_20  and  N6_21 
REMARK    5  A    between atoms: N6_21  and  C10_23 
ROOT
HETATM    1  O1  UNL     1      -3.214  -1.613  10.735  1.00  0.00    -0.266 OA
HETATM    2  C1  UNL     1      -2.525  -0.610  10.511  1.00  0.00     0.279 A 
HETATM    3  N1  UNL     1      -1.560  -0.592   9.569  1.00  0.00    -0.155 N 
ATOM      4  H1  UNL     1      -1.395  -1.437   9.023  1.00  0.00     0.187 HD
HETATM    5  C2  UNL     1      -0.808   0.492   9.320  1.00  0.00     0.682 A 
HETATM    6  N4  UNL     1      -1.030   1.619  10.046  1.00  0.00    -0.175 N 
ATOM      7  H4  UNL     1      -0.461   2.443   9.857  1.00  0.00     0.186 HD
HETATM    8  C8  UNL     1      -1.969   1.689  11.003  1.00  0.00     0.158 A 
HETATM    9  N5  UNL     1      -2.155   2.835  11.704  1.00  0.00    -0.175 N 
ATOM     10  H5  UNL     1      -1.579   3.654  11.508  1.00  0.00     0.186 HD
HETATM   11  C9  UNL     1      -3.101   2.892  12.660  1.00  0.00     0.687 A 
HETATM   12  N7  UNL     1      -3.845   1.796  12.897  1.00  0.00    -0.155 N 
ATOM     13  H7  UNL     1      -4.561   1.843  13.622  1.00  0.00     0.187 HD
HETATM   14  C16 UNL     1      -3.690   0.643  12.223  1.00  0.00     0.279 A 
HETATM   15  O2  UNL     1      -4.382  -0.386  12.440  1.00  0.00    -0.266 OA
HETATM   16  C17 UNL     1      -2.720   0.554  11.228  1.00  0.00     0.146 A 
ENDROOT
BRANCH   5  17
HETATM   17  N2  UNL     1       0.104   0.464   8.408  1.00  0.00    -0.222 N 
ATOM     18  H2  UNL     1       0.154  -0.359   7.807  1.00  0.00     0.178 HD
BRANCH  17  19
HETATM   19  C3  UNL     1       1.049   1.511   8.187  1.00  0.00     0.178 C 
BRANCH  19  20
HETATM   20  C4  UNL     1       2.420   1.037   7.961  1.00  0.00    -0.023 A 
HETATM   21  C5  UNL     1       3.547   1.820   7.868  1.00  0.00     0.027 A 
HETATM   22  C6  UNL     1       4.615   1.005   7.656  1.00  0.00     0.088 A 
HETATM   23  N3  UNL     1       4.198  -0.273   7.612  1.00  0.00    -0.375 N 
HETATM   24  C7  UNL     1       2.862  -0.260   7.798  1.00  0.00     0.096 A 
ATOM     25  H3  UNL     1       4.782  -1.097   7.466  1.00  0.00     0.164 HD
ENDBRANCH  19  20
ENDBRANCH  17  19
ENDBRANCH   5  17
BRANCH  11  26
HETATM   26  N6  UNL     1      -3.278   3.980  13.326  1.00  0.00    -0.192 N 
ATOM     27  H6  UNL     1      -2.740   4.140  14.179  1.00  0.00     0.184 HD
BRANCH  26  28
HETATM   28  C10 UNL     1      -4.207   4.958  12.894  1.00  0.00     0.049 A 
HETATM   29  C11 UNL     1      -3.963   5.752  11.798  1.00  0.00     0.031 A 
HETATM   30  C12 UNL     1      -4.853   6.701  11.372  1.00  0.00     0.021 A 
HETATM   31  C13 UNL     1      -6.042   6.894  12.037  1.00  0.00     0.011 A 
HETATM   32 BR1  UNL     1      -7.303   8.211  11.466  1.00  0.00    -0.051 Br
HETATM   33  C14 UNL     1      -6.290   6.100  13.137  1.00  0.00     0.021 A 
HETATM   34  C15 UNL     1      -5.392   5.146  13.566  1.00  0.00     0.031 A 
ENDBRANCH  26  28
ENDBRANCH  11  26
TORSDOF 5
ENDMDL
MODEL 4
REMARK VINA RESULT: -8.169468751      2.015      2.507
REMARK  5 active torsions:
REMARK  status: ('A' for Active; 'I' for Inactive)
REMARK    1  A    between atoms: C2_5  and  N2_6 
REMARK    2  A    between atoms: N2_6  and  C3_8 
REMARK    3  A    between atoms: C3_8  and  C4_9 
REMARK    4  A    between atoms: C9_20  and  N6_21 
REMARK    5  A    between atoms: N6_21  and  C10_23 
ROOT
HETATM    1  O1  UNL     1      -2.406  -1.861  10.415  1.00  0.00    -0.266 OA
HETATM    2  C1  UNL     1      -2.070  -0.676  10.293  1.00  0.00     0.279 A 
HETATM    3  N1  UNL     1      -1.041  -0.294   9.510  1.00  0.00    -0.155 N 
ATOM      4  H1  UNL     1      -0.524  -1.010   9.000  1.00  0.00     0.187 HD
HETATM    5  C2  UNL     1      -0.669   0.988   9.373  1.00  0.00     0.682 A 
HETATM    6  N4  UNL     1      -1.360   1.942  10.051  1.00  0.00    -0.175 N 
ATOM      7  H4  UNL     1      -1.080   2.917   9.946  1.00  0.00     0.186 HD
HETATM    8  C8  UNL     1      -2.397   1.651  10.852  1.00  0.00     0.158 A 
HETATM    9  N5  UNL     1      -3.058   2.636  11.511  1.00  0.00    -0.175 N 
ATOM     10  H5  UNL     1      -2.768   3.608  11.401  1.00  0.00     0.186 HD
HETATM   11  C9  UNL     1      -4.095   2.330  12.311  1.00  0.00     0.687 A 
HETATM   12  N7  UNL     1      -4.454   1.039  12.438  1.00  0.00    -0.155 N 
ATOM     13  H7  UNL     1      -5.241   0.811  13.045  1.00  0.00     0.187 HD
HETATM   14  C16 UNL     1      -3.824   0.037  11.801  1.00  0.00     0.279 A 
HETATM   15  O2  UNL     1      -4.154  -1.174  11.915  1.00  0.00    -0.266 OA
HETATM   16  C17 UNL     1      -2.747   0.321  10.967  1.00  0.00     0.146 A 
ENDROOT
BRANCH   5  17
HETATM   17  N2  UNL     1       0.322   1.308   8.611  1.00  0.00    -0.222 N 
ATOM     18  H2  UNL     1       0.566   2.296   8.534  1.00  0.00     0.178 HD
BRANCH  17  19
HETATM   19  C3  UNL     1       1.099   0.368   7.869  1.00  0.00     0.178 C 
BRANCH  19  20
HETATM   20  C4  UNL     1       2.539   0.655   7.870  1.00  0.00    -0.023 A 
HETATM   21  C5  UNL     1       3.120   1.901   7.871  1.00  0.00     0.027 A 
HETATM   22  C6  UNL     1       4.471   1.740   7.870  1.00  0.00     0.088 A 
HETATM   23  N3  UNL     1       4.763   0.427   7.870  1.00  0.00    -0.375 N 
HETATM   24  C7  UNL     1       3.590  -0.239   7.869  1.00  0.00     0.096 A 
ATOM     25  H3  UNL     1       5.696   0.014   7.869  1.00  0.00     0.164 HD
ENDBRANCH  19  20
ENDBRANCH  17  19
ENDBRANCH   5  17
BRANCH  11  26
HETATM   26  N6  UNL     1      -4.723   3.265  12.937  1.00  0.00    -0.192 N 
ATOM     27  H6  UNL     1      -5.727   3.179  13.094  1.00  0.00     0.184 HD
BRANCH  26  28
HETATM   28  C10 UNL     1      -4.039   4.411  13.412  1.00  0.00     0.049 A 
HETATM   29  C11 UNL     1      -3.112   4.332  14.424  1.00  0.00     0.031 A 
HETATM   30  C12 UNL     1      -2.446   5.433  14.892  1.00  0.00     0.021 A 
HETATM   31  C13 UNL     1      -2.686   6.677  14.355  1.00  0.00     0.011 A 
HETATM   32 BR1  UNL     1      -1.773   8.231  14.987  1.00  0.00    -0.051 Br
HETATM   33  C14 UNL     1      -3.616   6.761  13.339  1.00  0.00     0.021 A 
HETATM   34  C15 UNL     1      -4.286   5.651  12.870  1.00  0.00     0.031 A 
ENDBRANCH  26  28
ENDBRANCH  11  26
TORSDOF 5
ENDMDL
MODEL 5
REMARK VINA RESULT: -8.124695714      3.990      8.615
REMARK  5 active torsions:
REMARK  status: ('A' for Active; 'I' for Inactive)
REMARK    1  A    between atoms: C2_5  and  N2_6 
REMARK    2  A    between atoms: N2_6  and  C3_8 
REMARK    3  A    between atoms: C3_8  and  C4_9 
REMARK    4  A    between atoms: C9_20  and  N6_21 
REMARK    5  A    between atoms: N6_21  and  C10_23 
ROOT
HETATM    1  O1  UNL     1      -3.796  -1.263  11.638  1.00  0.00    -0.266 OA
HETATM    2  C1  UNL     1      -3.623  -0.046  11.773  1.00  0.00     0.279 A 
HETATM    3  N1  UNL     1      -4.359   0.698  12.624  1.00  0.00    -0.155 N 
ATOM      4  H1  UNL     1      -5.083   0.237  13.175  1.00  0.00     0.187 HD
HETATM    5  C2  UNL     1      -4.179   2.019  12.776  1.00  0.00     0.682 A 
HETATM    6  N4  UNL     1      -3.213   2.633  12.043  1.00  0.00    -0.175 N 
ATOM      7  H4  UNL     1      -3.074   3.637  12.159  1.00  0.00     0.186 HD
HETATM    8  C8  UNL     1      -2.435   1.970  11.173  1.00  0.00     0.158 A 
HETATM    9  N5  UNL     1      -1.483   2.624  10.461  1.00  0.00    -0.175 N 
ATOM     10  H5  UNL     1      -1.354   3.629  10.584  1.00  0.00     0.186 HD
HETATM   11  C9  UNL     1      -0.710   1.947   9.593  1.00  0.00     0.687 A 
HETATM   12  N7  UNL     1      -0.904   0.623   9.452  1.00  0.00    -0.155 N 
ATOM     13  H7  UNL     1      -0.316   0.113   8.793  1.00  0.00     0.187 HD
HETATM   14  C16 UNL     1      -1.837  -0.059  10.140  1.00  0.00     0.279 A 
HETATM   15  O2  UNL     1      -2.025  -1.298  10.013  1.00  0.00    -0.266 OA
HETATM   16  C17 UNL     1      -2.652   0.614  11.046  1.00  0.00     0.146 A 
ENDROOT
BRANCH   5  17
HETATM   17  N2  UNL     1      -4.906   2.692  13.603  1.00  0.00    -0.222 N 
ATOM     18  H2  UNL     1      -5.792   3.068  13.263  1.00  0.00     0.178 HD
BRANCH  17  19
HETATM   19  C3  UNL     1      -4.551   2.942  14.963  1.00  0.00     0.178 C 
BRANCH  19  20
HETATM   20  C4  UNL     1      -5.221   2.059  15.925  1.00  0.00    -0.023 A 
HETATM   21  C5  UNL     1      -6.364   2.346  16.634  1.00  0.00     0.027 A 
HETATM   22  C6  UNL     1      -6.660   1.272  17.415  1.00  0.00     0.088 A 
HETATM   23  N3  UNL     1      -5.738   0.313  17.222  1.00  0.00    -0.375 N 
HETATM   24  C7  UNL     1      -4.859   0.786  16.315  1.00  0.00     0.096 A 
ATOM     25  H3  UNL     1      -5.709  -0.601  17.676  1.00  0.00     0.164 HD
ENDBRANCH  19  20
ENDBRANCH  17  19
ENDBRANCH   5  17
BRANCH  11  26
HETATM   26  N6  UNL     1       0.194   2.568   8.916  1.00  0.00    -0.192 N 
ATOM     27  H6  UNL     1       0.095   3.569   8.746  1.00  0.00     0.184 HD
BRANCH  26  28
HETATM   28  C10 UNL     1       1.323   1.882   8.406  1.00  0.00     0.049 A 
HETATM   29  C11 UNL     1       1.257   0.562   8.027  1.00  0.00     0.031 A 
HETATM   30  C12 UNL     1       2.342  -0.112   7.533  1.00  0.00     0.021 A 
HETATM   31  C13 UNL     1       3.555   0.522   7.396  1.00  0.00     0.011 A 
HETATM   32 BR1  UNL     1       5.087  -0.391   6.711  1.00  0.00    -0.051 Br
HETATM   33  C14 UNL     1       3.627   1.846   7.776  1.00  0.00     0.021 A 
HETATM   34  C15 UNL     1       2.533   2.523   8.273  1.00  0.00     0.031 A 
ENDBRANCH  26  28
ENDBRANCH  11  26
TORSDOF 5
ENDMDL
