MODEL 1
REMARK VINA RESULT: -8.725593567      0.000      0.000
REMARK  9 active torsions:
REMARK  status: ('A' for Active; 'I' for Inactive)
REMARK    1  A    between atoms: C2_2  and  C3_3 
REMARK    2  A    between atoms: C3_3  and  N1_4 
REMARK    3  A    between atoms: C9_12  and  N3_13 
REMARK    4  A    between atoms: N3_13  and  C10_15 
REMARK    5  A    between atoms: C10_15  and  C11_16 
REMARK    6  A    between atoms: C11_16  and  C12_17 
REMARK    7  A    between atoms: C12_17  and  C13_18 
REMARK    8  A    between atoms: C13_18  and  C14_19 
REMARK    9  A    between atoms: C14_19  and  N4_20 
ROOT
HETATM    1  N1  UNL     1      -8.086  -7.672 -10.741  1.00  0.00     0.093 N 
HETATM    2  C4  UNL     1      -6.786  -8.215 -10.990  1.00  0.00     0.277 C 
HETATM    3  C5  UNL     1      -5.747  -7.262 -10.412  1.00  0.00     0.070 C 
HETATM    4  C6  UNL     1      -6.065  -7.021  -9.008  1.00  0.00    -0.036 A 
HETATM    5  C7  UNL     1      -5.070  -6.489  -8.185  1.00  0.00    -0.029 A 
HETATM    6  C8  UNL     1      -5.358  -6.270  -6.858  1.00  0.00     0.017 A 
HETATM    7  N2  UNL     1      -6.558  -6.563  -6.367  1.00  0.00    -0.345 N 
ATOM      8  H2  UNL     1      -6.731  -6.388  -5.377  1.00  0.00     0.167 HD
HETATM    9  C9  UNL     1      -7.585  -7.092  -7.128  1.00  0.00     0.110 A 
HETATM   10  C15 UNL     1      -7.305  -7.317  -8.489  1.00  0.00     0.021 A 
HETATM   11  C16 UNL     1      -8.388  -7.858  -9.331  1.00  0.00     0.315 C 
HETATM   12  C17 UNL     1      -4.474  -5.713  -5.795  1.00  0.00     0.057 C 
HETATM   13  C18 UNL     1      -3.126  -6.357  -5.777  1.00  0.00     0.006 C 
HETATM   14  C19 UNL     1      -2.368  -6.315  -7.056  1.00  0.00     0.001 C 
HETATM   15  C20 UNL     1      -2.921  -5.397  -8.102  1.00  0.00     0.005 C 
HETATM   16  C21 UNL     1      -3.841  -6.266  -8.981  1.00  0.00     0.041 C 
ENDROOT
BRANCH   9  17
HETATM   17  N3  UNL     1      -8.655  -7.344  -6.571  1.00  0.00    -0.376 N 
ATOM     18  H3  UNL     1      -8.469  -7.377  -5.569  1.00  0.00     0.161 HD
BRANCH  17  19
HETATM   19  C10 UNL     1      -9.992  -7.598  -6.738  1.00  0.00     0.121 C 
BRANCH  19  20
HETATM   20  C11 UNL     1     -10.263  -9.079  -6.396  1.00  0.00     0.020 C 
BRANCH  20  21
HETATM   21  C12 UNL     1     -10.675  -9.845  -7.622  1.00  0.00     0.003 C 
BRANCH  21  22
HETATM   22  C13 UNL     1     -12.135  -9.592  -7.875  1.00  0.00     0.027 C 
BRANCH  22  23
HETATM   23  C14 UNL     1     -12.773 -10.715  -8.631  1.00  0.00     0.229 C 
BRANCH  23  24
HETATM   24  N4  UNL     1     -13.869 -10.212  -9.458  1.00  0.00    -0.079 N 
ATOM     25  H43 UNL     1     -14.286  -9.368  -9.066  1.00  0.00     0.274 HD
ATOM     26  H42 UNL     1     -13.533  -9.820 -10.338  1.00  0.00     0.274 HD
ATOM     27  H41 UNL     1     -14.563 -10.944  -9.610  1.00  0.00     0.274 HD
ENDBRANCH  23  24
ENDBRANCH  22  23
ENDBRANCH  21  22
ENDBRANCH  20  21
ENDBRANCH  19  20
ENDBRANCH  17  19
ENDBRANCH   9  17
BRANCH   1  28
HETATM   28  C3  UNL     1      -9.143  -8.278 -11.489  1.00  0.00     0.272 C 
BRANCH  28  29
HETATM   29  C2  UNL     1     -10.289  -8.774 -10.681  1.00  0.00     0.026 C 
HETATM   30  C1  UNL     1     -11.540  -8.041 -11.126  1.00  0.00     0.007 C 
ENDBRANCH  28  29
ENDBRANCH   1  28
TORSDOF 9
ENDMDL
MODEL 2
REMARK VINA RESULT: -7.962977700      4.026      7.831
REMARK  9 active torsions:
REMARK  status: ('A' for Active; 'I' for Inactive)
REMARK    1  A    between atoms: C2_2  and  C3_3 
REMARK    2  A    between atoms: C3_3  and  N1_4 
REMARK    3  A    between atoms: C9_12  and  N3_13 
REMARK    4  A    between atoms: N3_13  and  C10_15 
REMARK    5  A    between atoms: C10_15  and  C11_16 
REMARK    6  A    between atoms: C11_16  and  C12_17 
REMARK    7  A    between atoms: C12_17  and  C13_18 
REMARK    8  A    between atoms: C13_18  and  C14_19 
REMARK    9  A    between atoms: C14_19  and  N4_20 
ROOT
HETATM    1  N1  UNL     1      -1.487  -7.965  -3.650  1.00  0.00     0.093 N 
HETATM    2  C4  UNL     1      -1.706  -7.360  -2.372  1.00  0.00     0.277 C 
HETATM    3  C5  UNL     1      -0.938  -6.045  -2.325  1.00  0.00     0.070 C 
HETATM    4  C6  UNL     1      -1.328  -5.236  -3.475  1.00  0.00    -0.036 A 
HETATM    5  C7  UNL     1      -1.046  -3.868  -3.449  1.00  0.00    -0.029 A 
HETATM    6  C8  UNL     1      -1.421  -3.095  -4.524  1.00  0.00     0.017 A 
HETATM    7  N2  UNL     1      -2.043  -3.639  -5.565  1.00  0.00    -0.345 N 
ATOM      8  H2  UNL     1      -2.307  -3.032  -6.341  1.00  0.00     0.167 HD
HETATM    9  C9  UNL     1      -2.352  -4.985  -5.652  1.00  0.00     0.110 A 
HETATM   10  C15 UNL     1      -1.970  -5.787  -4.560  1.00  0.00     0.021 A 
HETATM   11  C16 UNL     1      -2.264  -7.230  -4.634  1.00  0.00     0.315 C 
HETATM   12  C17 UNL     1      -1.228  -1.632  -4.729  1.00  0.00     0.057 C 
HETATM   13  C18 UNL     1      -1.638  -0.829  -3.538  1.00  0.00     0.006 C 
HETATM   14  C19 UNL     1      -0.984  -1.190  -2.252  1.00  0.00     0.001 C 
HETATM   15  C20 UNL     1       0.195  -2.106  -2.365  1.00  0.00     0.005 C 
HETATM   16  C21 UNL     1      -0.360  -3.531  -2.180  1.00  0.00     0.041 C 
ENDROOT
BRANCH   9  17
HETATM   17  N3  UNL     1      -2.947  -5.385  -6.654  1.00  0.00    -0.376 N 
ATOM     18  H3  UNL     1      -3.617  -6.088  -6.343  1.00  0.00     0.161 HD
BRANCH  17  19
HETATM   19  C10 UNL     1      -3.083  -5.277  -8.014  1.00  0.00     0.121 C 
BRANCH  19  20
HETATM   20  C11 UNL     1      -4.001  -6.414  -8.513  1.00  0.00     0.020 C 
BRANCH  20  21
HETATM   21  C12 UNL     1      -5.285  -6.448  -7.732  1.00  0.00     0.003 C 
BRANCH  21  22
HETATM   22  C13 UNL     1      -6.404  -6.807  -8.669  1.00  0.00     0.027 C 
BRANCH  22  23
HETATM   23  C14 UNL     1      -7.477  -7.593  -7.983  1.00  0.00     0.229 C 
BRANCH  23  24
HETATM   24  N4  UNL     1      -7.933  -6.891  -6.784  1.00  0.00    -0.079 N 
ATOM     25  H43 UNL     1      -7.250  -6.947  -6.028  1.00  0.00     0.274 HD
ATOM     26  H42 UNL     1      -7.933  -5.879  -6.912  1.00  0.00     0.274 HD
ATOM     27  H41 UNL     1      -8.848  -7.237  -6.496  1.00  0.00     0.274 HD
ENDBRANCH  23  24
ENDBRANCH  22  23
ENDBRANCH  21  22
ENDBRANCH  20  21
ENDBRANCH  19  20
ENDBRANCH  17  19
ENDBRANCH   9  17
BRANCH   1  28
HETATM   28  C3  UNL     1      -1.876  -9.339  -3.738  1.00  0.00     0.272 C 
BRANCH  28  29
HETATM   29  C2  UNL     1      -0.937 -10.218  -4.483  1.00  0.00     0.026 C 
HETATM   30  C1  UNL     1      -1.619 -11.552  -4.723  1.00  0.00     0.007 C 
ENDBRANCH  28  29
ENDBRANCH   1  28
TORSDOF 9
ENDMDL
MODEL 3
REMARK VINA RESULT: -7.848513439      4.092      7.985
REMARK  9 active torsions:
REMARK  status: ('A' for Active; 'I' for Inactive)
REMARK    1  A    between atoms: C2_2  and  C3_3 
REMARK    2  A    between atoms: C3_3  and  N1_4 
REMARK    3  A    between atoms: C9_12  and  N3_13 
REMARK    4  A    between atoms: N3_13  and  C10_15 
REMARK    5  A    between atoms: C10_15  and  C11_16 
REMARK    6  A    between atoms: C11_16  and  C12_17 
REMARK    7  A    between atoms: C12_17  and  C13_18 
REMARK    8  A    between atoms: C13_18  and  C14_19 
REMARK    9  A    between atoms: C14_19  and  N4_20 
ROOT
HETATM    1  N1  UNL     1      -1.041  -7.704  -4.219  1.00  0.00     0.093 N 
HETATM    2  C4  UNL     1      -1.240  -7.260  -2.874  1.00  0.00     0.277 C 
HETATM    3  C5  UNL     1      -0.590  -5.890  -2.719  1.00  0.00     0.070 C 
HETATM    4  C6  UNL     1      -1.115  -5.005  -3.754  1.00  0.00    -0.036 A 
HETATM    5  C7  UNL     1      -0.954  -3.627  -3.592  1.00  0.00    -0.029 A 
HETATM    6  C8  UNL     1      -1.457  -2.785  -4.557  1.00  0.00     0.017 A 
HETATM    7  N2  UNL     1      -2.087  -3.273  -5.621  1.00  0.00    -0.345 N 
ATOM      8  H2  UNL     1      -2.447  -2.616  -6.313  1.00  0.00     0.167 HD
HETATM    9  C9  UNL     1      -2.279  -4.626  -5.840  1.00  0.00     0.110 A 
HETATM   10  C15 UNL     1      -1.767  -5.499  -4.862  1.00  0.00     0.021 A 
HETATM   11  C16 UNL     1      -1.935  -6.947  -5.079  1.00  0.00     0.315 C 
HETATM   12  C17 UNL     1      -1.406  -1.297  -4.610  1.00  0.00     0.057 C 
HETATM   13  C18 UNL     1      -1.818  -0.665  -3.321  1.00  0.00     0.006 C 
HETATM   14  C19 UNL     1      -1.062  -1.096  -2.114  1.00  0.00     0.001 C 
HETATM   15  C20 UNL     1       0.185  -1.879  -2.382  1.00  0.00     0.005 C 
HETATM   16  C21 UNL     1      -0.230  -3.362  -2.328  1.00  0.00     0.041 C 
ENDROOT
BRANCH   9  17
HETATM   17  N3  UNL     1      -2.893  -4.973  -6.851  1.00  0.00    -0.376 N 
ATOM     18  H3  UNL     1      -3.842  -5.206  -6.558  1.00  0.00     0.161 HD
BRANCH  17  19
HETATM   19  C10 UNL     1      -2.831  -5.176  -8.205  1.00  0.00     0.121 C 
BRANCH  19  20
HETATM   20  C11 UNL     1      -3.795  -6.321  -8.582  1.00  0.00     0.020 C 
BRANCH  20  21
HETATM   21  C12 UNL     1      -4.963  -6.370  -7.636  1.00  0.00     0.003 C 
BRANCH  21  22
HETATM   22  C13 UNL     1      -6.189  -6.763  -8.411  1.00  0.00     0.027 C 
BRANCH  22  23
HETATM   23  C14 UNL     1      -5.916  -6.857  -9.879  1.00  0.00     0.229 C 
BRANCH  23  24
HETATM   24  N4  UNL     1      -7.143  -7.183 -10.605  1.00  0.00    -0.079 N 
ATOM     25  H43 UNL     1      -7.918  -6.581 -10.329  1.00  0.00     0.274 HD
ATOM     26  H42 UNL     1      -7.085  -6.915 -11.587  1.00  0.00     0.274 HD
ATOM     27  H41 UNL     1      -7.370  -8.171 -10.494  1.00  0.00     0.274 HD
ENDBRANCH  23  24
ENDBRANCH  22  23
ENDBRANCH  21  22
ENDBRANCH  20  21
ENDBRANCH  19  20
ENDBRANCH  17  19
ENDBRANCH   9  17
BRANCH   1  28
HETATM   28  C3  UNL     1      -1.311  -9.092  -4.438  1.00  0.00     0.272 C 
BRANCH  28  29
HETATM   29  C2  UNL     1      -1.644  -9.874  -3.219  1.00  0.00     0.026 C 
HETATM   30  C1  UNL     1      -1.946 -11.302  -3.634  1.00  0.00     0.007 C 
ENDBRANCH  28  29
ENDBRANCH   1  28
TORSDOF 9
ENDMDL
MODEL 4
REMARK VINA RESULT: -7.584205978      4.868      8.955
REMARK  9 active torsions:
REMARK  status: ('A' for Active; 'I' for Inactive)
REMARK    1  A    between atoms: C2_2  and  C3_3 
REMARK    2  A    between atoms: C3_3  and  N1_4 
REMARK    3  A    between atoms: C9_12  and  N3_13 
REMARK    4  A    between atoms: N3_13  and  C10_15 
REMARK    5  A    between atoms: C10_15  and  C11_16 
REMARK    6  A    between atoms: C11_16  and  C12_17 
REMARK    7  A    between atoms: C12_17  and  C13_18 
REMARK    8  A    between atoms: C13_18  and  C14_19 
REMARK    9  A    between atoms: C14_19  and  N4_20 
ROOT
HETATM    1  N1  UNL     1      -0.777  -6.472  -2.484  1.00  0.00     0.093 N 
HETATM    2  C4  UNL     1      -1.264  -5.668  -1.405  1.00  0.00     0.277 C 
HETATM    3  C5  UNL     1      -0.597  -4.300  -1.485  1.00  0.00     0.070 C 
HETATM    4  C6  UNL     1      -0.814  -3.753  -2.820  1.00  0.00    -0.036 A 
HETATM    5  C7  UNL     1      -0.624  -2.383  -3.015  1.00  0.00    -0.029 A 
HETATM    6  C8  UNL     1      -0.839  -1.857  -4.267  1.00  0.00     0.017 A 
HETATM    7  N2  UNL     1      -1.224  -2.636  -5.273  1.00  0.00    -0.345 N 
ATOM      8  H2  UNL     1      -1.375  -2.207  -6.186  1.00  0.00     0.167 HD
HETATM    9  C9  UNL     1      -1.431  -3.998  -5.146  1.00  0.00     0.110 A 
HETATM   10  C15 UNL     1      -1.211  -4.550  -3.870  1.00  0.00     0.021 A 
HETATM   11  C16 UNL     1      -1.400  -6.004  -3.710  1.00  0.00     0.315 C 
HETATM   12  C17 UNL     1      -0.697  -0.443  -4.718  1.00  0.00     0.057 C 
HETATM   13  C18 UNL     1      -1.368   0.520  -3.795  1.00  0.00     0.006 C 
HETATM   14  C19 UNL     1      -0.943   0.461  -2.371  1.00  0.00     0.001 C 
HETATM   15  C20 UNL     1       0.288  -0.346  -2.100  1.00  0.00     0.005 C 
HETATM   16  C21 UNL     1      -0.206  -1.760  -1.738  1.00  0.00     0.041 C 
ENDROOT
BRANCH   9  17
HETATM   17  N3  UNL     1      -1.805  -4.627  -6.138  1.00  0.00    -0.376 N 
ATOM     18  H3  UNL     1      -2.807  -4.460  -6.236  1.00  0.00     0.161 HD
BRANCH  17  19
HETATM   19  C10 UNL     1      -1.436  -5.457  -7.165  1.00  0.00     0.121 C 
BRANCH  19  20
HETATM   20  C11 UNL     1      -2.532  -6.526  -7.358  1.00  0.00     0.020 C 
BRANCH  20  21
HETATM   21  C12 UNL     1      -3.777  -5.918  -7.943  1.00  0.00     0.003 C 
BRANCH  21  22
HETATM   22  C13 UNL     1      -4.920  -6.168  -6.999  1.00  0.00     0.027 C 
BRANCH  22  23
HETATM   23  C14 UNL     1      -6.166  -6.568  -7.725  1.00  0.00     0.229 C 
BRANCH  23  24
HETATM   24  N4  UNL     1      -7.264  -6.765  -6.779  1.00  0.00    -0.079 N 
ATOM     25  H43 UNL     1      -7.286  -7.718  -6.417  1.00  0.00     0.274 HD
ATOM     26  H42 UNL     1      -7.102  -6.272  -5.901  1.00  0.00     0.274 HD
ATOM     27  H41 UNL     1      -8.151  -6.498  -7.205  1.00  0.00     0.274 HD
ENDBRANCH  23  24
ENDBRANCH  22  23
ENDBRANCH  21  22
ENDBRANCH  20  21
ENDBRANCH  19  20
ENDBRANCH  17  19
ENDBRANCH   9  17
BRANCH   1  28
HETATM   28  C3  UNL     1      -1.060  -7.869  -2.366  1.00  0.00     0.272 C 
BRANCH  28  29
HETATM   29  C2  UNL     1      -1.997  -8.415  -3.384  1.00  0.00     0.026 C 
HETATM   30  C1  UNL     1      -1.429  -9.721  -3.905  1.00  0.00     0.007 C 
ENDBRANCH  28  29
ENDBRANCH   1  28
TORSDOF 9
ENDMDL
MODEL 5
REMARK VINA RESULT: -7.576045210      1.516      1.786
REMARK  9 active torsions:
REMARK  status: ('A' for Active; 'I' for Inactive)
REMARK    1  A    between atoms: C2_2  and  C3_3 
REMARK    2  A    between atoms: C3_3  and  N1_4 
REMARK    3  A    between atoms: C9_12  and  N3_13 
REMARK    4  A    between atoms: N3_13  and  C10_15 
REMARK    5  A    between atoms: C10_15  and  C11_16 
REMARK    6  A    between atoms: C11_16  and  C12_17 
REMARK    7  A    between atoms: C12_17  and  C13_18 
REMARK    8  A    between atoms: C13_18  and  C14_19 
REMARK    9  A    between atoms: C14_19  and  N4_20 
ROOT
HETATM    1  N1  UNL     1      -8.349  -7.798 -10.605  1.00  0.00     0.093 N 
HETATM    2  C4  UNL     1      -7.062  -8.333 -10.930  1.00  0.00     0.277 C 
HETATM    3  C5  UNL     1      -5.998  -7.358 -10.438  1.00  0.00     0.070 C 
HETATM    4  C6  UNL     1      -6.227  -7.094  -9.021  1.00  0.00    -0.036 A 
HETATM    5  C7  UNL     1      -5.187  -6.536  -8.274  1.00  0.00    -0.029 A 
HETATM    6  C8  UNL     1      -5.389  -6.295  -6.936  1.00  0.00     0.017 A 
HETATM    7  N2  UNL     1      -6.551  -6.591  -6.362  1.00  0.00    -0.345 N 
ATOM      8  H2  UNL     1      -6.661  -6.399  -5.366  1.00  0.00     0.167 HD
HETATM    9  C9  UNL     1      -7.620  -7.145  -7.045  1.00  0.00     0.110 A 
HETATM   10  C15 UNL     1      -7.427  -7.393  -8.416  1.00  0.00     0.021 A 
HETATM   11  C16 UNL     1      -8.556  -7.961  -9.176  1.00  0.00     0.315 C 
HETATM   12  C17 UNL     1      -4.444  -5.709  -5.943  1.00  0.00     0.057 C 
HETATM   13  C18 UNL     1      -3.091  -6.338  -6.003  1.00  0.00     0.006 C 
HETATM   14  C19 UNL     1      -2.419  -6.312  -7.329  1.00  0.00     0.001 C 
HETATM   15  C20 UNL     1      -3.049  -5.420  -8.353  1.00  0.00     0.005 C 
HETATM   16  C21 UNL     1      -4.015  -6.315  -9.153  1.00  0.00     0.041 C 
ENDROOT
BRANCH   9  17
HETATM   17  N3  UNL     1      -8.648  -7.398  -6.414  1.00  0.00    -0.376 N 
ATOM     18  H3  UNL     1      -8.503  -7.063  -5.461  1.00  0.00     0.161 HD
BRANCH  17  19
HETATM   19  C10 UNL     1      -9.906  -7.941  -6.460  1.00  0.00     0.121 C 
BRANCH  19  20
HETATM   20  C11 UNL     1      -9.786  -9.479  -6.396  1.00  0.00     0.020 C 
BRANCH  20  21
HETATM   21  C12 UNL     1     -10.867 -10.064  -5.530  1.00  0.00     0.003 C 
BRANCH  21  22
HETATM   22  C13 UNL     1     -10.266 -11.153  -4.686  1.00  0.00     0.027 C 
BRANCH  22  23
HETATM   23  C14 UNL     1     -11.299 -11.858  -3.864  1.00  0.00     0.229 C 
BRANCH  23  24
HETATM   24  N4  UNL     1     -12.193 -12.630  -4.725  1.00  0.00    -0.079 N 
ATOM     25  H43 UNL     1     -12.484 -12.098  -5.545  1.00  0.00     0.274 HD
ATOM     26  H42 UNL     1     -11.703 -13.386  -5.202  1.00  0.00     0.274 HD
ATOM     27  H41 UNL     1     -12.992 -12.972  -4.191  1.00  0.00     0.274 HD
ENDBRANCH  23  24
ENDBRANCH  22  23
ENDBRANCH  21  22
ENDBRANCH  20  21
ENDBRANCH  19  20
ENDBRANCH  17  19
ENDBRANCH   9  17
BRANCH   1  28
HETATM   28  C3  UNL     1      -9.446  -8.430 -11.271  1.00  0.00     0.272 C 
BRANCH  28  29
HETATM   29  C2  UNL     1     -10.538  -8.908 -10.383  1.00  0.00     0.026 C 
HETATM   30  C1  UNL     1     -11.832  -8.246 -10.818  1.00  0.00     0.007 C 
ENDBRANCH  28  29
ENDBRANCH   1  28
TORSDOF 9
ENDMDL
