MODEL 1
REMARK VINA RESULT: -6.859670364      0.000      0.000
REMARK  6 active torsions:
REMARK  status: ('A' for Active; 'I' for Inactive)
REMARK    1  A    between atoms: C2_2  and  C3_3 
REMARK    2  A    between atoms: C3_3  and  C4_4 
REMARK    3  A    between atoms: C4_4  and  C5_5 
REMARK    4  A    between atoms: N1_7  and  C7_8 
REMARK    5  A    between atoms: C12_16  and  C13_17 
REMARK    6  A    between atoms: C13_17  and  O2_18 
ROOT
HETATM    1  C5  UNL     1      -1.216  -6.120  -4.379  1.00  0.00     0.140 C 
HETATM    2  C6  UNL     1      -1.905  -6.899  -5.482  1.00  0.00     0.149 C 
HETATM    3  N1  UNL     1      -2.296  -5.977  -6.500  1.00  0.00    -0.395 N 
HETATM    4  C11 UNL     1      -2.551  -4.655  -6.058  1.00  0.00     0.151 C 
HETATM    5  C12 UNL     1      -1.250  -4.105  -5.509  1.00  0.00     0.163 C 
HETATM    6  O3  UNL     1      -0.474  -5.101  -4.966  1.00  0.00    -0.375 OA
ENDROOT
BRANCH   3   7
HETATM    7  C7  UNL     1      -3.151  -6.469  -7.509  1.00  0.00     0.173 C 
HETATM    8  C8  UNL     1      -3.012  -5.734  -8.840  1.00  0.00     0.054 C 
HETATM    9  C9  UNL     1      -4.219  -6.325  -9.584  1.00  0.00     0.125 C 
HETATM   10  N2  UNL     1      -5.219  -6.487  -8.526  1.00  0.00    -0.359 N 
HETATM   11  C10 UNL     1      -4.577  -6.359  -7.256  1.00  0.00     0.240 C 
ATOM     12  H2  UNL     1      -6.213  -6.664  -8.672  1.00  0.00     0.162 HD
HETATM   13  O1  UNL     1      -5.242  -6.188  -6.204  1.00  0.00    -0.271 OA
ENDBRANCH   3   7
BRANCH   1  14
HETATM   14  C4  UNL     1      -0.211  -7.083  -3.734  1.00  0.00     0.037 C 
BRANCH  14  15
HETATM   15  C3  UNL     1      -0.233  -6.984  -2.247  1.00  0.00     0.029 C 
BRANCH  15  16
HETATM   16  C2  UNL     1       0.226  -8.248  -1.629  1.00  0.00    -0.037 C 
HETATM   17  C1  UNL     1       1.106  -8.242  -0.672  1.00  0.00     0.007 C 
ENDBRANCH  15  16
ENDBRANCH  14  15
ENDBRANCH   1  14
BRANCH   5  18
HETATM   18  C13 UNL     1      -1.594  -3.016  -4.518  1.00  0.00     0.197 C 
BRANCH  18  19
HETATM   19  O2  UNL     1      -2.960  -3.029  -4.277  1.00  0.00    -0.398 OA
ATOM     20  H2  UNL     1      -3.222  -3.901  -4.005  1.00  0.00     0.209 HD
ENDBRANCH  18  19
ENDBRANCH   5  18
TORSDOF 6
ENDMDL
MODEL 2
REMARK VINA RESULT: -6.828861292      2.221      5.581
REMARK  6 active torsions:
REMARK  status: ('A' for Active; 'I' for Inactive)
REMARK    1  A    between atoms: C2_2  and  C3_3 
REMARK    2  A    between atoms: C3_3  and  C4_4 
REMARK    3  A    between atoms: C4_4  and  C5_5 
REMARK    4  A    between atoms: N1_7  and  C7_8 
REMARK    5  A    between atoms: C12_16  and  C13_17 
REMARK    6  A    between atoms: C13_17  and  O2_18 
ROOT
HETATM    1  C5  UNL     1      -2.664  -5.500  -6.281  1.00  0.00     0.140 C 
HETATM    2  C6  UNL     1      -2.344  -6.838  -5.642  1.00  0.00     0.149 C 
HETATM    3  N1  UNL     1      -1.761  -6.591  -4.363  1.00  0.00    -0.395 N 
HETATM    4  C11 UNL     1      -1.067  -5.362  -4.237  1.00  0.00     0.151 C 
HETATM    5  C12 UNL     1      -2.080  -4.251  -4.427  1.00  0.00     0.163 C 
HETATM    6  O3  UNL     1      -3.087  -4.633  -5.280  1.00  0.00    -0.375 OA
ENDROOT
BRANCH   3   7
HETATM    7  C7  UNL     1      -1.186  -7.698  -3.702  1.00  0.00     0.173 C 
HETATM    8  C8  UNL     1      -1.497  -9.037  -4.366  1.00  0.00     0.054 C 
HETATM    9  C9  UNL     1      -0.966  -9.987  -3.282  1.00  0.00     0.125 C 
HETATM   10  N2  UNL     1      -1.284  -9.287  -2.036  1.00  0.00    -0.359 N 
HETATM   11  C10 UNL     1      -1.626  -7.933  -2.337  1.00  0.00     0.240 C 
ATOM     12  H2  UNL     1      -1.264  -9.700  -1.103  1.00  0.00     0.162 HD
HETATM   13  O1  UNL     1      -2.195  -7.200  -1.491  1.00  0.00    -0.271 OA
ENDBRANCH   3   7
BRANCH   1  14
HETATM   14  C4  UNL     1      -3.869  -5.738  -7.199  1.00  0.00     0.037 C 
BRANCH  14  15
HETATM   15  C3  UNL     1      -3.457  -6.330  -8.503  1.00  0.00     0.029 C 
BRANCH  15  16
HETATM   16  C2  UNL     1      -4.631  -6.538  -9.381  1.00  0.00    -0.037 C 
HETATM   17  C1  UNL     1      -5.800  -6.805  -8.881  1.00  0.00     0.007 C 
ENDBRANCH  15  16
ENDBRANCH  14  15
ENDBRANCH   1  14
BRANCH   5  18
HETATM   18  C13 UNL     1      -1.334  -3.025  -4.901  1.00  0.00     0.197 C 
BRANCH  18  19
HETATM   19  O2  UNL     1      -2.231  -2.135  -5.474  1.00  0.00    -0.398 OA
ATOM     20  H2  UNL     1      -1.820  -1.709  -6.217  1.00  0.00     0.209 HD
ENDBRANCH  18  19
ENDBRANCH   5  18
TORSDOF 6
ENDMDL
MODEL 3
REMARK VINA RESULT: -6.823373783      0.857      1.094
REMARK  6 active torsions:
REMARK  status: ('A' for Active; 'I' for Inactive)
REMARK    1  A    between atoms: C2_2  and  C3_3 
REMARK    2  A    between atoms: C3_3  and  C4_4 
REMARK    3  A    between atoms: C4_4  and  C5_5 
REMARK    4  A    between atoms: N1_7  and  C7_8 
REMARK    5  A    between atoms: C12_16  and  C13_17 
REMARK    6  A    between atoms: C13_17  and  O2_18 
ROOT
HETATM    1  C5  UNL     1      -1.233  -6.110  -4.359  1.00  0.00     0.140 C 
HETATM    2  C6  UNL     1      -1.923  -6.889  -5.462  1.00  0.00     0.149 C 
HETATM    3  N1  UNL     1      -2.288  -5.971  -6.493  1.00  0.00    -0.395 N 
HETATM    4  C11 UNL     1      -2.527  -4.641  -6.066  1.00  0.00     0.151 C 
HETATM    5  C12 UNL     1      -1.223  -4.106  -5.508  1.00  0.00     0.163 C 
HETATM    6  O3  UNL     1      -0.469  -5.109  -4.948  1.00  0.00    -0.375 OA
ENDROOT
BRANCH   3   7
HETATM    7  C7  UNL     1      -3.139  -6.459  -7.507  1.00  0.00     0.173 C 
HETATM    8  C8  UNL     1      -2.999  -5.716  -8.834  1.00  0.00     0.054 C 
HETATM    9  C9  UNL     1      -4.203  -6.306  -9.584  1.00  0.00     0.125 C 
HETATM   10  N2  UNL     1      -5.205  -6.477  -8.529  1.00  0.00    -0.359 N 
HETATM   11  C10 UNL     1      -4.566  -6.354  -7.256  1.00  0.00     0.240 C 
ATOM     12  H2  UNL     1      -6.197  -6.656  -8.679  1.00  0.00     0.162 HD
HETATM   13  O1  UNL     1      -5.233  -6.192  -6.205  1.00  0.00    -0.271 OA
ENDBRANCH   3   7
BRANCH   1  14
HETATM   14  C4  UNL     1      -0.252  -7.083  -3.693  1.00  0.00     0.037 C 
BRANCH  14  15
HETATM   15  C3  UNL     1      -0.854  -7.738  -2.498  1.00  0.00     0.029 C 
BRANCH  15  16
HETATM   16  C2  UNL     1      -0.815  -9.212  -2.630  1.00  0.00    -0.037 C 
HETATM   17  C1  UNL     1      -1.739  -9.848  -3.285  1.00  0.00     0.007 C 
ENDBRANCH  15  16
ENDBRANCH  14  15
ENDBRANCH   1  14
BRANCH   5  18
HETATM   18  C13 UNL     1      -1.560  -3.002  -4.532  1.00  0.00     0.197 C 
BRANCH  18  19
HETATM   19  O2  UNL     1      -2.928  -2.999  -4.297  1.00  0.00    -0.398 OA
ATOM     20  H2  UNL     1      -3.266  -3.881  -4.398  1.00  0.00     0.209 HD
ENDBRANCH  18  19
ENDBRANCH   5  18
TORSDOF 6
ENDMDL
MODEL 4
REMARK VINA RESULT: -6.734904752      1.362      3.468
REMARK  6 active torsions:
REMARK  status: ('A' for Active; 'I' for Inactive)
REMARK    1  A    between atoms: C2_2  and  C3_3 
REMARK    2  A    between atoms: C3_3  and  C4_4 
REMARK    3  A    between atoms: C4_4  and  C5_5 
REMARK    4  A    between atoms: N1_7  and  C7_8 
REMARK    5  A    between atoms: C12_16  and  C13_17 
REMARK    6  A    between atoms: C13_17  and  O2_18 
ROOT
HETATM    1  C5  UNL     1      -1.228  -4.211  -5.173  1.00  0.00     0.140 C 
HETATM    2  C6  UNL     1      -2.142  -4.498  -6.349  1.00  0.00     0.149 C 
HETATM    3  N1  UNL     1      -2.572  -5.856  -6.256  1.00  0.00    -0.395 N 
HETATM    4  C11 UNL     1      -1.676  -6.734  -5.596  1.00  0.00     0.151 C 
HETATM    5  C12 UNL     1      -1.557  -6.261  -4.161  1.00  0.00     0.163 C 
HETATM    6  O3  UNL     1      -1.715  -4.899  -4.068  1.00  0.00    -0.375 OA
ENDROOT
BRANCH   3   7
HETATM    7  C7  UNL     1      -3.248  -6.387  -7.374  1.00  0.00     0.173 C 
HETATM    8  C8  UNL     1      -2.977  -5.629  -8.671  1.00  0.00     0.054 C 
HETATM    9  C9  UNL     1      -4.032  -6.285  -9.575  1.00  0.00     0.125 C 
HETATM   10  N2  UNL     1      -5.153  -6.522  -8.664  1.00  0.00    -0.359 N 
HETATM   11  C10 UNL     1      -4.700  -6.370  -7.318  1.00  0.00     0.240 C 
ATOM     12  H2  UNL     1      -6.105  -6.759  -8.945  1.00  0.00     0.162 HD
HETATM   13  O1  UNL     1      -5.511  -6.254  -6.366  1.00  0.00    -0.271 OA
ENDBRANCH   3   7
BRANCH   1  14
HETATM   14  C4  UNL     1      -1.379  -2.715  -4.865  1.00  0.00     0.037 C 
BRANCH  14  15
HETATM   15  C3  UNL     1      -0.843  -2.376  -3.517  1.00  0.00     0.029 C 
BRANCH  15  16
HETATM   16  C2  UNL     1       0.339  -1.492  -3.628  1.00  0.00    -0.037 C 
HETATM   17  C1  UNL     1       1.481  -1.835  -3.111  1.00  0.00     0.007 C 
ENDBRANCH  15  16
ENDBRANCH  14  15
ENDBRANCH   1  14
BRANCH   5  18
HETATM   18  C13 UNL     1      -0.227  -6.742  -3.628  1.00  0.00     0.197 C 
BRANCH  18  19
HETATM   19  O2  UNL     1       0.249  -7.766  -4.435  1.00  0.00    -0.398 OA
ATOM     20  H2  UNL     1       1.186  -7.854  -4.311  1.00  0.00     0.209 HD
ENDBRANCH  18  19
ENDBRANCH   5  18
TORSDOF 6
ENDMDL
MODEL 5
REMARK VINA RESULT: -6.686131736      2.089      5.444
REMARK  6 active torsions:
REMARK  status: ('A' for Active; 'I' for Inactive)
REMARK    1  A    between atoms: C2_2  and  C3_3 
REMARK    2  A    between atoms: C3_3  and  C4_4 
REMARK    3  A    between atoms: C4_4  and  C5_5 
REMARK    4  A    between atoms: N1_7  and  C7_8 
REMARK    5  A    between atoms: C12_16  and  C13_17 
REMARK    6  A    between atoms: C13_17  and  O2_18 
ROOT
HETATM    1  C5  UNL     1      -1.038  -5.070  -6.255  1.00  0.00     0.140 C 
HETATM    2  C6  UNL     1      -0.977  -6.329  -5.411  1.00  0.00     0.149 C 
HETATM    3  N1  UNL     1      -1.473  -6.016  -4.110  1.00  0.00    -0.395 N 
HETATM    4  C11 UNL     1      -1.307  -4.669  -3.703  1.00  0.00     0.151 C 
HETATM    5  C12 UNL     1      -2.119  -3.808  -4.650  1.00  0.00     0.163 C 
HETATM    6  O3  UNL     1      -2.185  -4.368  -5.904  1.00  0.00    -0.375 OA
ENDROOT
BRANCH   3   7
HETATM    7  C7  UNL     1      -1.292  -6.993  -3.108  1.00  0.00     0.173 C 
HETATM    8  C8  UNL     1       0.139  -7.072  -2.582  1.00  0.00     0.054 C 
HETATM    9  C9  UNL     1       0.031  -8.355  -1.744  1.00  0.00     0.125 C 
HETATM   10  N2  UNL     1      -0.895  -9.185  -2.519  1.00  0.00    -0.359 N 
HETATM   11  C10 UNL     1      -1.543  -8.370  -3.497  1.00  0.00     0.240 C 
ATOM     12  H2  UNL     1      -1.052 -10.183  -2.382  1.00  0.00     0.162 HD
HETATM   13  O1  UNL     1      -2.174  -8.879  -4.456  1.00  0.00    -0.271 OA
ENDBRANCH   3   7
BRANCH   1  14
HETATM   14  C4  UNL     1      -1.229  -5.533  -7.705  1.00  0.00     0.037 C 
BRANCH  14  15
HETATM   15  C3  UNL     1      -2.588  -5.194  -8.215  1.00  0.00     0.029 C 
BRANCH  15  16
HETATM   16  C2  UNL     1      -3.174  -6.338  -8.950  1.00  0.00    -0.037 C 
HETATM   17  C1  UNL     1      -4.462  -6.473  -9.058  1.00  0.00     0.007 C 
ENDBRANCH  15  16
ENDBRANCH  14  15
ENDBRANCH   1  14
BRANCH   5  18
HETATM   18  C13 UNL     1      -1.510  -2.425  -4.650  1.00  0.00     0.197 C 
BRANCH  18  19
HETATM   19  O2  UNL     1      -2.178  -1.629  -5.571  1.00  0.00    -0.398 OA
ATOM     20  H2  UNL     1      -1.985  -0.716  -5.395  1.00  0.00     0.209 HD
ENDBRANCH  18  19
ENDBRANCH   5  18
TORSDOF 6
ENDMDL
