MODEL 1
REMARK VINA RESULT: -8.124121947      0.000      0.000
REMARK  6 active torsions:
REMARK  status: ('A' for Active; 'I' for Inactive)
REMARK    1  A    between atoms: C1_1  and  C2_2 
REMARK    2  A    between atoms: C1_1  and  C8_16 
REMARK    3  A    between atoms: C2_2  and  N1_3 
REMARK    4  A    between atoms: N1_3  and  C3_5 
REMARK    5  A    between atoms: C4_8  and  C5_9 
REMARK    6  A    between atoms: C8_16  and  N5_17 
ROOT
HETATM    1  C3  UNL     1      -7.616  -7.259  -7.710  1.00  0.00     0.694 A 
HETATM    2  N2  UNL     1      -8.055  -7.986  -8.757  1.00  0.00    -0.178 N 
ATOM      3  H2  UNL     1      -7.498  -8.223  -9.579  1.00  0.00     0.185 HD
HETATM    4  C4  UNL     1      -9.328  -8.352  -8.560  1.00  0.00     0.116 A 
HETATM    5  N3  UNL     1      -9.686  -7.844  -7.369  1.00  0.00    -0.274 N 
ATOM      6  H3  UNL     1     -10.601  -7.946  -6.929  1.00  0.00     0.189 HD
HETATM    7  N4  UNL     1      -8.652  -7.186  -6.860  1.00  0.00    -0.131 N 
ATOM      8  H4  UNL     1      -8.645  -6.701  -5.963  1.00  0.00     0.205 HD
ENDROOT
BRANCH   1   9
HETATM    9  N1  UNL     1      -6.420  -6.750  -7.590  1.00  0.00    -0.225 N 
ATOM     10  H1  UNL     1      -6.098  -6.368  -6.701  1.00  0.00     0.177 HD
BRANCH   9  11
HETATM   11  C2  UNL     1      -5.568  -6.746  -8.755  1.00  0.00     0.140 C 
BRANCH  11  12
HETATM   12  C1  UNL     1      -4.145  -6.383  -8.310  1.00  0.00     0.050 C 
BRANCH  12  13
HETATM   13  C8  UNL     1      -4.235  -6.034  -6.848  1.00  0.00     0.274 C 
BRANCH  13  14
HETATM   14  N5  UNL     1      -2.995  -5.539  -6.309  1.00  0.00     0.092 N 
HETATM   15  C9  UNL     1      -2.019  -5.546  -7.370  1.00  0.00     0.298 C 
HETATM   16  C10 UNL     1      -0.619  -5.278  -6.879  1.00  0.00     0.198 C 
HETATM   17  O1  UNL     1      -0.269  -6.066  -5.800  1.00  0.00    -0.388 OA
HETATM   18  C11 UNL     1      -1.165  -6.050  -4.765  1.00  0.00     0.198 C 
HETATM   19  C12 UNL     1      -2.586  -6.334  -5.170  1.00  0.00     0.298 C 
ENDBRANCH  13  14
ENDBRANCH  12  13
ENDBRANCH  11  12
ENDBRANCH   9  11
ENDBRANCH   1   9
BRANCH   4  20
HETATM   20  C5  UNL     1     -10.188  -9.169  -9.484  1.00  0.00     0.055 A 
HETATM   21  C6  UNL     1     -11.497  -8.557  -9.939  1.00  0.00     0.013 A 
HETATM   22  C7  UNL     1     -10.348  -8.546 -10.906  1.00  0.00     0.013 A 
ENDBRANCH   4  20
TORSDOF 6
ENDMDL
MODEL 2
REMARK VINA RESULT: -8.019905979      0.675      1.183
REMARK  6 active torsions:
REMARK  status: ('A' for Active; 'I' for Inactive)
REMARK    1  A    between atoms: C1_1  and  C2_2 
REMARK    2  A    between atoms: C1_1  and  C8_16 
REMARK    3  A    between atoms: C2_2  and  N1_3 
REMARK    4  A    between atoms: N1_3  and  C3_5 
REMARK    5  A    between atoms: C4_8  and  C5_9 
REMARK    6  A    between atoms: C8_16  and  N5_17 
ROOT
HETATM    1  C3  UNL     1      -7.609  -7.264  -7.735  1.00  0.00     0.694 A 
HETATM    2  N2  UNL     1      -8.052  -8.006  -8.770  1.00  0.00    -0.178 N 
ATOM      3  H2  UNL     1      -7.501  -8.253  -9.591  1.00  0.00     0.185 HD
HETATM    4  C4  UNL     1      -9.324  -8.371  -8.560  1.00  0.00     0.116 A 
HETATM    5  N3  UNL     1      -9.676  -7.847  -7.374  1.00  0.00    -0.274 N 
ATOM      6  H3  UNL     1     -10.588  -7.945  -6.928  1.00  0.00     0.189 HD
HETATM    7  N4  UNL     1      -8.639  -7.181  -6.880  1.00  0.00    -0.131 N 
ATOM      8  H4  UNL     1      -8.628  -6.684  -5.989  1.00  0.00     0.205 HD
ENDROOT
BRANCH   1   9
HETATM    9  N1  UNL     1      -6.413  -6.753  -7.629  1.00  0.00    -0.225 N 
ATOM     10  H1  UNL     1      -6.080  -6.373  -6.743  1.00  0.00     0.177 HD
BRANCH   9  11
HETATM   11  C2  UNL     1      -5.577  -6.741  -8.806  1.00  0.00     0.140 C 
BRANCH  11  12
HETATM   12  C1  UNL     1      -4.150  -6.371  -8.379  1.00  0.00     0.050 C 
BRANCH  12  13
HETATM   13  C8  UNL     1      -4.227  -5.997  -6.923  1.00  0.00     0.274 C 
BRANCH  13  14
HETATM   14  N5  UNL     1      -2.936  -5.926  -6.289  1.00  0.00     0.092 N 
HETATM   15  C9  UNL     1      -2.999  -4.905  -5.273  1.00  0.00     0.298 C 
HETATM   16  C10 UNL     1      -1.648  -4.566  -4.699  1.00  0.00     0.198 C 
HETATM   17  O1  UNL     1      -0.698  -4.320  -5.672  1.00  0.00    -0.388 OA
HETATM   18  C11 UNL     1      -0.596  -5.293  -6.630  1.00  0.00     0.198 C 
HETATM   19  C12 UNL     1      -1.903  -5.672  -7.271  1.00  0.00     0.298 C 
ENDBRANCH  13  14
ENDBRANCH  12  13
ENDBRANCH  11  12
ENDBRANCH   9  11
ENDBRANCH   1   9
BRANCH   4  20
HETATM   20  C5  UNL     1     -10.188  -9.202  -9.468  1.00  0.00     0.055 A 
HETATM   21  C6  UNL     1     -11.497  -8.594  -9.930  1.00  0.00     0.013 A 
HETATM   22  C7  UNL     1     -10.350  -8.602 -10.900  1.00  0.00     0.013 A 
ENDBRANCH   4  20
TORSDOF 6
ENDMDL
MODEL 3
REMARK VINA RESULT: -7.807634616      1.012      1.175
REMARK  6 active torsions:
REMARK  status: ('A' for Active; 'I' for Inactive)
REMARK    1  A    between atoms: C1_1  and  C2_2 
REMARK    2  A    between atoms: C1_1  and  C8_16 
REMARK    3  A    between atoms: C2_2  and  N1_3 
REMARK    4  A    between atoms: N1_3  and  C3_5 
REMARK    5  A    between atoms: C4_8  and  C5_9 
REMARK    6  A    between atoms: C8_16  and  N5_17 
ROOT
HETATM    1  C3  UNL     1      -6.554  -6.930  -7.761  1.00  0.00     0.694 A 
HETATM    2  N2  UNL     1      -7.026  -7.746  -8.725  1.00  0.00    -0.178 N 
ATOM      3  H2  UNL     1      -6.504  -8.037  -9.551  1.00  0.00     0.185 HD
HETATM    4  C4  UNL     1      -8.281  -8.116  -8.438  1.00  0.00     0.116 A 
HETATM    5  N3  UNL     1      -8.593  -7.521  -7.275  1.00  0.00    -0.274 N 
ATOM      6  H3  UNL     1      -9.484  -7.603  -6.785  1.00  0.00     0.189 HD
HETATM    7  N4  UNL     1      -7.550  -6.807  -6.869  1.00  0.00    -0.131 N 
ATOM      8  H4  UNL     1      -7.511  -6.252  -6.015  1.00  0.00     0.205 HD
ENDROOT
BRANCH   1   9
HETATM    9  N1  UNL     1      -5.364  -6.394  -7.739  1.00  0.00    -0.225 N 
ATOM     10  H1  UNL     1      -5.026  -5.896  -6.915  1.00  0.00     0.177 HD
BRANCH   9  11
HETATM   11  C2  UNL     1      -4.542  -6.526  -8.918  1.00  0.00     0.140 C 
BRANCH  11  12
HETATM   12  C1  UNL     1      -3.072  -6.549  -8.480  1.00  0.00     0.050 C 
BRANCH  12  13
HETATM   13  C8  UNL     1      -2.824  -5.250  -7.761  1.00  0.00     0.274 C 
BRANCH  13  14
HETATM   14  N5  UNL     1      -2.184  -5.425  -6.483  1.00  0.00     0.092 N 
HETATM   15  C9  UNL     1      -0.823  -4.965  -6.604  1.00  0.00     0.298 C 
HETATM   16  C10 UNL     1       0.022  -5.315  -5.406  1.00  0.00     0.198 C 
HETATM   17  O1  UNL     1      -0.082  -6.644  -5.046  1.00  0.00    -0.388 OA
HETATM   18  C11 UNL     1      -1.366  -7.097  -4.892  1.00  0.00     0.198 C 
HETATM   19  C12 UNL     1      -2.270  -6.807  -6.059  1.00  0.00     0.298 C 
ENDBRANCH  13  14
ENDBRANCH  12  13
ENDBRANCH  11  12
ENDBRANCH   9  11
ENDBRANCH   1   9
BRANCH   4  20
HETATM   20  C5  UNL     1      -9.166  -9.019  -9.252  1.00  0.00     0.055 A 
HETATM   21  C6  UNL     1     -10.639  -8.672  -9.319  1.00  0.00     0.013 A 
HETATM   22  C7  UNL     1      -9.785  -8.324 -10.505  1.00  0.00     0.013 A 
ENDBRANCH   4  20
TORSDOF 6
ENDMDL
MODEL 4
REMARK VINA RESULT: -7.806827631      0.799      1.295
REMARK  6 active torsions:
REMARK  status: ('A' for Active; 'I' for Inactive)
REMARK    1  A    between atoms: C1_1  and  C2_2 
REMARK    2  A    between atoms: C1_1  and  C8_16 
REMARK    3  A    between atoms: C2_2  and  N1_3 
REMARK    4  A    between atoms: N1_3  and  C3_5 
REMARK    5  A    between atoms: C4_8  and  C5_9 
REMARK    6  A    between atoms: C8_16  and  N5_17 
ROOT
HETATM    1  C3  UNL     1      -7.043  -7.132  -7.815  1.00  0.00     0.694 A 
HETATM    2  N2  UNL     1      -7.624  -7.949  -8.716  1.00  0.00    -0.178 N 
ATOM      3  H2  UNL     1      -7.172  -8.308  -9.557  1.00  0.00     0.185 HD
HETATM    4  C4  UNL     1      -8.883  -8.218  -8.345  1.00  0.00     0.116 A 
HETATM    5  N3  UNL     1      -9.086  -7.558  -7.193  1.00  0.00    -0.274 N 
ATOM      6  H3  UNL     1      -9.950  -7.559  -6.652  1.00  0.00     0.189 HD
HETATM    7  N4  UNL     1      -7.974  -6.905  -6.876  1.00  0.00    -0.131 N 
ATOM      8  H4  UNL     1      -7.848  -6.321  -6.049  1.00  0.00     0.205 HD
ENDROOT
BRANCH   1   9
HETATM    9  N1  UNL     1      -5.820  -6.680  -7.881  1.00  0.00    -0.225 N 
ATOM     10  H1  UNL     1      -5.338  -6.342  -7.048  1.00  0.00     0.177 HD
BRANCH   9  11
HETATM   11  C2  UNL     1      -5.172  -6.674  -9.171  1.00  0.00     0.140 C 
BRANCH  11  12
HETATM   12  C1  UNL     1      -3.685  -6.358  -8.962  1.00  0.00     0.050 C 
BRANCH  12  13
HETATM   13  C8  UNL     1      -3.578  -5.702  -7.611  1.00  0.00     0.274 C 
BRANCH  13  14
HETATM   14  N5  UNL     1      -2.494  -6.219  -6.817  1.00  0.00     0.092 N 
HETATM   15  C9  UNL     1      -3.001  -6.471  -5.490  1.00  0.00     0.298 C 
HETATM   16  C10 UNL     1      -1.912  -6.789  -4.498  1.00  0.00     0.198 C 
HETATM   17  O1  UNL     1      -0.875  -5.876  -4.529  1.00  0.00    -0.388 OA
HETATM   18  C11 UNL     1      -0.354  -5.645  -5.775  1.00  0.00     0.198 C 
HETATM   19  C12 UNL     1      -1.378  -5.297  -6.821  1.00  0.00     0.298 C 
ENDBRANCH  13  14
ENDBRANCH  12  13
ENDBRANCH  11  12
ENDBRANCH   9  11
ENDBRANCH   1   9
BRANCH   4  20
HETATM   20  C5  UNL     1      -9.873  -9.087  -9.070  1.00  0.00     0.055 A 
HETATM   21  C6  UNL     1     -11.154  -8.432  -9.547  1.00  0.00     0.013 A 
HETATM   22  C7  UNL     1     -10.079  -8.688 -10.565  1.00  0.00     0.013 A 
ENDBRANCH   4  20
TORSDOF 6
ENDMDL
MODEL 5
REMARK VINA RESULT: -7.657965090      1.051      1.564
REMARK  6 active torsions:
REMARK  status: ('A' for Active; 'I' for Inactive)
REMARK    1  A    between atoms: C1_1  and  C2_2 
REMARK    2  A    between atoms: C1_1  and  C8_16 
REMARK    3  A    between atoms: C2_2  and  N1_3 
REMARK    4  A    between atoms: N1_3  and  C3_5 
REMARK    5  A    between atoms: C4_8  and  C5_9 
REMARK    6  A    between atoms: C8_16  and  N5_17 
ROOT
HETATM    1  C3  UNL     1      -7.057  -7.696  -9.215  1.00  0.00     0.694 A 
HETATM    2  N2  UNL     1      -8.333  -7.540  -8.807  1.00  0.00    -0.178 N 
ATOM      3  H2  UNL     1      -8.634  -6.922  -8.054  1.00  0.00     0.185 HD
HETATM    4  C4  UNL     1      -9.146  -8.315  -9.537  1.00  0.00     0.116 A 
HETATM    5  N3  UNL     1      -8.362  -8.964 -10.414  1.00  0.00    -0.274 N 
ATOM      6  H3  UNL     1      -8.680  -9.633 -11.114  1.00  0.00     0.189 HD
HETATM    7  N4  UNL     1      -7.104  -8.588 -10.218  1.00  0.00    -0.131 N 
ATOM      8  H4  UNL     1      -6.299  -8.924 -10.745  1.00  0.00     0.205 HD
ENDROOT
BRANCH   1   9
HETATM    9  N1  UNL     1      -6.021  -7.084  -8.711  1.00  0.00    -0.225 N 
ATOM     10  H1  UNL     1      -5.905  -6.989  -7.703  1.00  0.00     0.177 HD
BRANCH   9  11
HETATM   11  C2  UNL     1      -5.044  -6.545  -9.628  1.00  0.00     0.140 C 
BRANCH  11  12
HETATM   12  C1  UNL     1      -3.728  -6.344  -8.866  1.00  0.00     0.050 C 
BRANCH  12  13
HETATM   13  C8  UNL     1      -4.103  -6.126  -7.424  1.00  0.00     0.274 C 
BRANCH  13  14
HETATM   14  N5  UNL     1      -3.007  -5.645  -6.622  1.00  0.00     0.092 N 
HETATM   15  C9  UNL     1      -1.863  -5.492  -7.485  1.00  0.00     0.298 C 
HETATM   16  C10 UNL     1      -0.589  -5.224  -6.727  1.00  0.00     0.198 C 
HETATM   17  O1  UNL     1      -0.384  -6.114  -5.690  1.00  0.00    -0.388 OA
HETATM   18  C11 UNL     1      -1.446  -6.251  -4.837  1.00  0.00     0.198 C 
HETATM   19  C12 UNL     1      -2.755  -6.546  -5.517  1.00  0.00     0.298 C 
ENDBRANCH  13  14
ENDBRANCH  12  13
ENDBRANCH  11  12
ENDBRANCH   9  11
ENDBRANCH   1   9
BRANCH   4  20
HETATM   20  C5  UNL     1     -10.639  -8.437  -9.404  1.00  0.00     0.055 A 
HETATM   21  C6  UNL     1     -11.335  -9.453 -10.285  1.00  0.00     0.013 A 
HETATM   22  C7  UNL     1     -11.107  -9.817  -8.846  1.00  0.00     0.013 A 
ENDBRANCH   4  20
TORSDOF 6
ENDMDL
