MODEL 1
REMARK VINA RESULT: -7.204747336      0.000      0.000
REMARK  7 active torsions:
REMARK  status: ('A' for Active; 'I' for Inactive)
REMARK    1  A    between atoms: N1_2  and  C2_4 
REMARK    2  A    between atoms: C2_4  and  N2_6 
REMARK    3  A    between atoms: N2_6  and  C3_8 
REMARK    4  A    between atoms: C5_10  and  N3_11 
REMARK    5  A    between atoms: N3_11  and  S2_13 
REMARK    6  A    between atoms: C7_19  and  N5_20 
REMARK    7  A    between atoms: N5_20  and  C8_22 
ROOT
HETATM    1  C3  UNL     1      28.967  64.880  11.732  1.00  0.00     0.126 A 
HETATM    2  C4  UNL     1      27.629  65.068  11.469  1.00  0.00     0.098 A 
HETATM    3  C5  UNL     1      27.257  65.365  10.164  1.00  0.00     0.133 A 
HETATM    4  N4  UNL     1      28.199  65.460   9.209  1.00  0.00    -0.176 N 
ATOM      5  H4  UNL     1      27.914  65.678   8.255  1.00  0.00     0.186 HD
HETATM    6  C7  UNL     1      29.500  65.278   9.469  1.00  0.00     0.681 A 
HETATM    7  N6  UNL     1      29.874  64.987  10.742  1.00  0.00    -0.177 N 
ATOM      8  H6  UNL     1      30.862  64.848  10.953  1.00  0.00     0.186 HD
ENDROOT
BRANCH   1   9
HETATM    9  N2  UNL     1      29.379  64.606  12.907  1.00  0.00    -0.319 N 
ATOM     10  H2  UNL     1      30.251  64.084  12.991  1.00  0.00     0.169 HD
BRANCH   9  11
HETATM   11  C2  UNL     1      28.721  64.969  14.102  1.00  0.00     0.172 C 
HETATM   12  S1  UNL     1      28.951  66.440  14.745  1.00  0.00    -0.041 SA
BRANCH  11  13
HETATM   13  N1  UNL     1      27.871  64.061  14.732  1.00  0.00    -0.371 N 
HETATM   14  C1  UNL     1      26.820  64.531  15.593  1.00  0.00     0.148 C 
ATOM     15  H1  UNL     1      27.996  63.060  14.582  1.00  0.00     0.161 HD
ENDBRANCH  11  13
ENDBRANCH   9  11
ENDBRANCH   1   9
BRANCH   3  16
HETATM   16  N3  UNL     1      25.887  65.565   9.850  1.00  0.00    -0.270 N 
ATOM     17  H3  UNL     1      25.413  66.403  10.186  1.00  0.00     0.180 HD
BRANCH  16  18
HETATM   18  S2  UNL     1      25.021  64.425   8.919  1.00  0.00     0.228 S 
HETATM   19  C6  UNL     1      24.969  62.880   9.803  1.00  0.00     0.186 C 
HETATM   20  O1  UNL     1      23.617  64.871   8.700  1.00  0.00    -0.206 OA
HETATM   21  O2  UNL     1      25.727  64.205   7.601  1.00  0.00    -0.206 OA
ENDBRANCH  16  18
ENDBRANCH   3  16
BRANCH   6  22
HETATM   22  N5  UNL     1      30.381  65.370   8.559  1.00  0.00    -0.222 N 
ATOM     23  H5  UNL     1      30.957  64.550   8.365  1.00  0.00     0.178 HD
BRANCH  22  24
HETATM   24  C8  UNL     1      30.618  66.549   7.789  1.00  0.00     0.091 C 
HETATM   25  C9  UNL     1      30.001  66.381   6.400  1.00  0.00     0.032 C 
HETATM   26  C10 UNL     1      32.130  66.715   7.610  1.00  0.00     0.032 C 
ENDBRANCH  22  24
ENDBRANCH   6  22
TORSDOF 7
ENDMDL
MODEL 2
REMARK VINA RESULT: -7.051177078      1.025      1.198
REMARK  7 active torsions:
REMARK  status: ('A' for Active; 'I' for Inactive)
REMARK    1  A    between atoms: N1_2  and  C2_4 
REMARK    2  A    between atoms: C2_4  and  N2_6 
REMARK    3  A    between atoms: N2_6  and  C3_8 
REMARK    4  A    between atoms: C5_10  and  N3_11 
REMARK    5  A    between atoms: N3_11  and  S2_13 
REMARK    6  A    between atoms: C7_19  and  N5_20 
REMARK    7  A    between atoms: N5_20  and  C8_22 
ROOT
HETATM    1  C3  UNL     1      28.911  64.887  11.744  1.00  0.00     0.126 A 
HETATM    2  C4  UNL     1      27.594  65.115  11.422  1.00  0.00     0.098 A 
HETATM    3  C5  UNL     1      27.289  65.415  10.099  1.00  0.00     0.133 A 
HETATM    4  N4  UNL     1      28.275  65.472   9.186  1.00  0.00    -0.176 N 
ATOM      5  H4  UNL     1      28.038  65.692   8.219  1.00  0.00     0.186 HD
HETATM    6  C7  UNL     1      29.557  65.250   9.504  1.00  0.00     0.681 A 
HETATM    7  N6  UNL     1      29.865  64.958  10.794  1.00  0.00    -0.177 N 
ATOM      8  H6  UNL     1      30.837  64.788  11.049  1.00  0.00     0.186 HD
ENDROOT
BRANCH   1   9
HETATM    9  N2  UNL     1      29.262  64.609  12.938  1.00  0.00    -0.319 N 
ATOM     10  H2  UNL     1      29.954  63.870  13.065  1.00  0.00     0.169 HD
BRANCH   9  11
HETATM   11  C2  UNL     1      28.768  65.243  14.097  1.00  0.00     0.172 C 
HETATM   12  S1  UNL     1      27.497  64.621  14.889  1.00  0.00    -0.041 SA
BRANCH  11  13
HETATM   13  N1  UNL     1      29.374  66.409  14.565  1.00  0.00    -0.371 N 
HETATM   14  C1  UNL     1      29.778  66.514  15.941  1.00  0.00     0.148 C 
ATOM     15  H1  UNL     1      29.530  67.190  13.928  1.00  0.00     0.161 HD
ENDBRANCH  11  13
ENDBRANCH   9  11
ENDBRANCH   1   9
BRANCH   3  16
HETATM   16  N3  UNL     1      25.942  65.657   9.724  1.00  0.00    -0.270 N 
ATOM     17  H3  UNL     1      25.512  66.554   9.948  1.00  0.00     0.180 HD
BRANCH  16  18
HETATM   18  S2  UNL     1      25.029  64.469   8.905  1.00  0.00     0.228 S 
HETATM   19  C6  UNL     1      24.981  62.992   9.899  1.00  0.00     0.186 C 
HETATM   20  O1  UNL     1      23.625  64.922   8.698  1.00  0.00    -0.206 OA
HETATM   21  O2  UNL     1      25.688  64.142   7.585  1.00  0.00    -0.206 OA
ENDBRANCH  16  18
ENDBRANCH   3  16
BRANCH   6  22
HETATM   22  N5  UNL     1      30.479  65.308   8.633  1.00  0.00    -0.222 N 
ATOM     23  H5  UNL     1      30.830  64.430   8.250  1.00  0.00     0.178 HD
BRANCH  22  24
HETATM   24  C8  UNL     1      31.056  66.523   8.156  1.00  0.00     0.091 C 
HETATM   25  C9  UNL     1      30.991  66.551   6.628  1.00  0.00     0.032 C 
HETATM   26  C10 UNL     1      32.533  66.549   8.559  1.00  0.00     0.032 C 
ENDBRANCH  22  24
ENDBRANCH   6  22
TORSDOF 7
ENDMDL
MODEL 3
REMARK VINA RESULT: -6.815664758      2.530      4.399
REMARK  7 active torsions:
REMARK  status: ('A' for Active; 'I' for Inactive)
REMARK    1  A    between atoms: N1_2  and  C2_4 
REMARK    2  A    between atoms: C2_4  and  N2_6 
REMARK    3  A    between atoms: N2_6  and  C3_8 
REMARK    4  A    between atoms: C5_10  and  N3_11 
REMARK    5  A    between atoms: N3_11  and  S2_13 
REMARK    6  A    between atoms: C7_19  and  N5_20 
REMARK    7  A    between atoms: N5_20  and  C8_22 
ROOT
HETATM    1  C3  UNL     1      27.413  65.819   8.990  1.00  0.00     0.126 A 
HETATM    2  C4  UNL     1      27.394  65.254  10.244  1.00  0.00     0.098 A 
HETATM    3  C5  UNL     1      28.591  64.773  10.762  1.00  0.00     0.133 A 
HETATM    4  N4  UNL     1      29.717  64.873  10.035  1.00  0.00    -0.176 N 
ATOM      5  H4  UNL     1      30.589  64.518  10.425  1.00  0.00     0.186 HD
HETATM    6  C7  UNL     1      29.733  65.423   8.814  1.00  0.00     0.681 A 
HETATM    7  N6  UNL     1      28.568  65.894   8.299  1.00  0.00    -0.177 N 
ATOM      8  H6  UNL     1      28.566  66.314   7.369  1.00  0.00     0.186 HD
ENDROOT
BRANCH   1   9
HETATM    9  N2  UNL     1      26.352  66.278   8.453  1.00  0.00    -0.319 N 
ATOM     10  H2  UNL     1      26.453  67.050   7.795  1.00  0.00     0.169 HD
BRANCH   9  11
HETATM   11  C2  UNL     1      25.047  65.801   8.700  1.00  0.00     0.172 C 
HETATM   12  S1  UNL     1      24.085  66.567   9.758  1.00  0.00    -0.041 SA
BRANCH  11  13
HETATM   13  N1  UNL     1      24.582  64.668   8.033  1.00  0.00    -0.371 N 
HETATM   14  C1  UNL     1      24.541  63.398   8.706  1.00  0.00     0.148 C 
ATOM     15  H1  UNL     1      24.271  64.741   7.065  1.00  0.00     0.161 HD
ENDBRANCH  11  13
ENDBRANCH   9  11
ENDBRANCH   1   9
BRANCH   3  16
HETATM   16  N3  UNL     1      28.613  64.184  12.053  1.00  0.00    -0.270 N 
ATOM     17  H3  UNL     1      29.261  64.540  12.755  1.00  0.00     0.180 HD
BRANCH  16  18
HETATM   18  S2  UNL     1      27.573  62.889  12.448  1.00  0.00     0.228 S 
HETATM   19  C6  UNL     1      26.003  63.549  12.969  1.00  0.00     0.186 C 
HETATM   20  O1  UNL     1      27.329  62.019  11.264  1.00  0.00    -0.206 OA
HETATM   21  O2  UNL     1      28.165  62.092  13.588  1.00  0.00    -0.206 OA
ENDBRANCH  16  18
ENDBRANCH   3  16
BRANCH   6  22
HETATM   22  N5  UNL     1      30.803  65.511   8.135  1.00  0.00    -0.222 N 
ATOM     23  H5  UNL     1      31.223  64.647   7.792  1.00  0.00     0.178 HD
BRANCH  22  24
HETATM   24  C8  UNL     1      31.455  66.742   7.824  1.00  0.00     0.091 C 
HETATM   25  C9  UNL     1      31.354  67.003   6.320  1.00  0.00     0.032 C 
HETATM   26  C10 UNL     1      32.940  66.606   8.174  1.00  0.00     0.032 C 
ENDBRANCH  22  24
ENDBRANCH   6  22
TORSDOF 7
ENDMDL
MODEL 4
REMARK VINA RESULT: -6.796006475      1.016      1.260
REMARK  7 active torsions:
REMARK  status: ('A' for Active; 'I' for Inactive)
REMARK    1  A    between atoms: N1_2  and  C2_4 
REMARK    2  A    between atoms: C2_4  and  N2_6 
REMARK    3  A    between atoms: N2_6  and  C3_8 
REMARK    4  A    between atoms: C5_10  and  N3_11 
REMARK    5  A    between atoms: N3_11  and  S2_13 
REMARK    6  A    between atoms: C7_19  and  N5_20 
REMARK    7  A    between atoms: N5_20  and  C8_22 
ROOT
HETATM    1  C3  UNL     1      29.083  64.837  11.523  1.00  0.00     0.126 A 
HETATM    2  C4  UNL     1      27.781  64.985  11.105  1.00  0.00     0.098 A 
HETATM    3  C5  UNL     1      27.556  65.288   9.767  1.00  0.00     0.133 A 
HETATM    4  N4  UNL     1      28.601  65.427   8.933  1.00  0.00    -0.176 N 
ATOM      5  H4  UNL     1      28.423  65.649   7.954  1.00  0.00     0.186 HD
HETATM    6  C7  UNL     1      29.868  65.283   9.343  1.00  0.00     0.681 A 
HETATM    7  N6  UNL     1      30.097  64.987  10.649  1.00  0.00    -0.177 N 
ATOM      8  H6  UNL     1      31.058  64.876  10.974  1.00  0.00     0.186 HD
ENDROOT
BRANCH   1   9
HETATM    9  N2  UNL     1      29.362  64.559  12.736  1.00  0.00    -0.319 N 
ATOM     10  H2  UNL     1      30.168  63.958  12.908  1.00  0.00     0.169 HD
BRANCH   9  11
HETATM   11  C2  UNL     1      28.642  65.020  13.859  1.00  0.00     0.172 C 
HETATM   12  S1  UNL     1      28.717  66.581  14.292  1.00  0.00    -0.041 SA
BRANCH  11  13
HETATM   13  N1  UNL     1      27.863  64.131  14.599  1.00  0.00    -0.371 N 
HETATM   14  C1  UNL     1      27.103  64.599  15.726  1.00  0.00     0.148 C 
ATOM     15  H1  UNL     1      27.833  63.145  14.340  1.00  0.00     0.161 HD
ENDBRANCH  11  13
ENDBRANCH   9  11
ENDBRANCH   1   9
BRANCH   3  16
HETATM   16  N3  UNL     1      26.227  65.448   9.295  1.00  0.00    -0.270 N 
ATOM     17  H3  UNL     1      25.946  66.336   8.879  1.00  0.00     0.180 HD
BRANCH  16  18
HETATM   18  S2  UNL     1      25.092  64.178   9.412  1.00  0.00     0.228 S 
HETATM   19  C6  UNL     1      24.129  64.126   7.915  1.00  0.00     0.186 C 
HETATM   20  O1  UNL     1      25.775  62.863   9.558  1.00  0.00    -0.206 OA
HETATM   21  O2  UNL     1      24.162  64.433  10.576  1.00  0.00    -0.206 OA
ENDBRANCH  16  18
ENDBRANCH   3  16
BRANCH   6  22
HETATM   22  N5  UNL     1      30.847  65.417   8.545  1.00  0.00    -0.222 N 
ATOM     23  H5  UNL     1      31.316  64.572   8.218  1.00  0.00     0.178 HD
BRANCH  22  24
HETATM   24  C8  UNL     1      31.332  66.675   8.077  1.00  0.00     0.091 C 
HETATM   25  C9  UNL     1      31.011  66.820   6.588  1.00  0.00     0.032 C 
HETATM   26  C10 UNL     1      32.856  66.692   8.228  1.00  0.00     0.032 C 
ENDBRANCH  22  24
ENDBRANCH   6  22
TORSDOF 7
ENDMDL
MODEL 5
REMARK VINA RESULT: -6.508059860      2.299      2.572
REMARK  7 active torsions:
REMARK  status: ('A' for Active; 'I' for Inactive)
REMARK    1  A    between atoms: N1_2  and  C2_4 
REMARK    2  A    between atoms: C2_4  and  N2_6 
REMARK    3  A    between atoms: N2_6  and  C3_8 
REMARK    4  A    between atoms: C5_10  and  N3_11 
REMARK    5  A    between atoms: N3_11  and  S2_13 
REMARK    6  A    between atoms: C7_19  and  N5_20 
REMARK    7  A    between atoms: N5_20  and  C8_22 
ROOT
HETATM    1  C3  UNL     1      28.974  66.143  11.869  1.00  0.00     0.126 A 
HETATM    2  C4  UNL     1      27.743  65.602  11.581  1.00  0.00     0.098 A 
HETATM    3  C5  UNL     1      27.558  65.030  10.328  1.00  0.00     0.133 A 
HETATM    4  N4  UNL     1      28.573  65.021   9.446  1.00  0.00    -0.176 N 
ATOM      5  H4  UNL     1      28.426  64.598   8.530  1.00  0.00     0.186 HD
HETATM    6  C7  UNL     1      29.771  65.549   9.729  1.00  0.00     0.681 A 
HETATM    7  N6  UNL     1      29.960  66.111  10.951  1.00  0.00    -0.177 N 
ATOM      8  H6  UNL     1      30.868  66.517  11.178  1.00  0.00     0.186 HD
ENDROOT
BRANCH   1   9
HETATM    9  N2  UNL     1      29.212  66.684  12.998  1.00  0.00    -0.319 N 
ATOM     10  H2  UNL     1      29.219  66.079  13.819  1.00  0.00     0.169 HD
BRANCH   9  11
HETATM   11  C2  UNL     1      29.467  68.057  13.201  1.00  0.00     0.172 C 
HETATM   12  S1  UNL     1      28.371  69.165  12.753  1.00  0.00    -0.041 SA
BRANCH  11  13
HETATM   13  N1  UNL     1      30.664  68.464  13.789  1.00  0.00    -0.371 N 
HETATM   14  C1  UNL     1      30.787  68.521  15.220  1.00  0.00     0.148 C 
ATOM     15  H1  UNL     1      31.456  68.723  13.200  1.00  0.00     0.161 HD
ENDBRANCH  11  13
ENDBRANCH   9  11
ENDBRANCH   1   9
BRANCH   3  16
HETATM   16  N3  UNL     1      26.303  64.461   9.991  1.00  0.00    -0.270 N 
ATOM     17  H3  UNL     1      25.662  64.980   9.391  1.00  0.00     0.180 HD
BRANCH  16  18
HETATM   18  S2  UNL     1      25.848  62.922  10.575  1.00  0.00     0.228 S 
HETATM   19  C6  UNL     1      24.727  63.132  11.942  1.00  0.00     0.186 C 
HETATM   20  O1  UNL     1      25.140  62.140   9.523  1.00  0.00    -0.206 OA
HETATM   21  O2  UNL     1      27.072  62.182  11.062  1.00  0.00    -0.206 OA
ENDBRANCH  16  18
ENDBRANCH   3  16
BRANCH   6  22
HETATM   22  N5  UNL     1      30.722  65.535   8.888  1.00  0.00    -0.222 N 
ATOM     23  H5  UNL     1      31.264  64.675   8.793  1.00  0.00     0.178 HD
BRANCH  22  24
HETATM   24  C8  UNL     1      31.080  66.644   8.064  1.00  0.00     0.091 C 
HETATM   25  C9  UNL     1      30.514  66.438   6.659  1.00  0.00     0.032 C 
HETATM   26  C10 UNL     1      32.607  66.689   7.949  1.00  0.00     0.032 C 
ENDBRANCH  22  24
ENDBRANCH   6  22
TORSDOF 7
ENDMDL
