MODEL 1
REMARK VINA RESULT: -7.261753509      0.000      0.000
REMARK  3 active torsions:
REMARK  status: ('A' for Active; 'I' for Inactive)
REMARK    1  A    between atoms: C6_13  and  N4_14 
REMARK    2  A    between atoms: N4_14  and  O2_16 
REMARK    3  A    between atoms: C10_23  and  N6_24 
ROOT
HETATM    1  C1  UNL     1      28.401  66.031   7.573  1.00  0.00     0.161 C 
HETATM    2  N1  UNL     1      28.615  65.681   8.981  1.00  0.00    -0.303 N 
HETATM    3  C2  UNL     1      29.904  65.994   9.475  1.00  0.00     0.328 A 
HETATM    4  O1  UNL     1      30.789  66.538   8.726  1.00  0.00    -0.246 OA
HETATM    5  N2  UNL     1      30.241  65.707  10.815  1.00  0.00    -0.296 N 
ATOM      6  H2  UNL     1      31.163  65.921  11.197  1.00  0.00     0.172 HD
HETATM    7  C3  UNL     1      29.244  65.114  11.588  1.00  0.00     0.114 A 
HETATM    8  N3  UNL     1      29.556  64.815  12.811  1.00  0.00    -0.386 N 
ATOM      9  H31 UNL     1      28.826  64.381  13.376  1.00  0.00     0.157 HD
ATOM     10  H32 UNL     1      30.504  65.041  13.111  1.00  0.00     0.157 HD
HETATM   11  C4  UNL     1      27.852  64.782  11.148  1.00  0.00     0.137 A 
HETATM   12  C5  UNL     1      26.969  65.350  12.205  1.00  0.00     0.077 C 
HETATM   13  C6  UNL     1      26.985  64.408  13.398  1.00  0.00     0.180 C 
HETATM   14  C8  UNL     1      27.533  63.181  12.827  1.00  0.00     0.239 C 
HETATM   15  O3  UNL     1      27.804  62.085  13.399  1.00  0.00    -0.272 OA
HETATM   16  N5  UNL     1      27.766  63.336  11.405  1.00  0.00    -0.338 N 
ATOM     17  H5  UNL     1      27.853  62.589  10.717  1.00  0.00     0.164 HD
HETATM   18  C9  UNL     1      27.541  65.063   9.754  1.00  0.00     0.075 A 
HETATM   19  C10 UNL     1      26.443  64.859   9.087  1.00  0.00     0.229 C 
ENDROOT
BRANCH  13  20
HETATM   20  N4  UNL     1      25.626  64.186  13.930  1.00  0.00    -0.190 NA
HETATM   21  C7  UNL     1      24.792  65.186  13.288  1.00  0.00     0.144 C 
BRANCH  20  22
HETATM   22  O2  UNL     1      25.245  62.977  13.438  1.00  0.00    -0.313 OA
ATOM     23  H2  UNL     1      24.300  63.031  13.353  1.00  0.00     0.237 HD
ENDBRANCH  20  22
ENDBRANCH  13  20
BRANCH  19  24
HETATM   24  N6  UNL     1      25.178  64.347   9.256  1.00  0.00    -0.057 N 
HETATM   25  C11 UNL     1      24.542  64.126   7.886  1.00  0.00     0.277 C 
HETATM   26  C12 UNL     1      24.900  63.130   9.901  1.00  0.00     0.277 C 
HETATM   27  C13 UNL     1      24.224  65.372   9.755  1.00  0.00     0.277 C 
ENDBRANCH  19  24
TORSDOF 3
ENDMDL
MODEL 2
REMARK VINA RESULT: -6.728874381      2.148      4.782
REMARK  3 active torsions:
REMARK  status: ('A' for Active; 'I' for Inactive)
REMARK    1  A    between atoms: C6_13  and  N4_14 
REMARK    2  A    between atoms: N4_14  and  O2_16 
REMARK    3  A    between atoms: C10_23  and  N6_24 
ROOT
HETATM    1  C1  UNL     1      29.006  65.925  14.597  1.00  0.00     0.161 C 
HETATM    2  N1  UNL     1      27.864  65.146  14.107  1.00  0.00    -0.303 N 
HETATM    3  C2  UNL     1      27.079  64.552  15.124  1.00  0.00     0.328 A 
HETATM    4  O1  UNL     1      27.368  64.702  16.362  1.00  0.00    -0.246 OA
HETATM    5  N2  UNL     1      25.950  63.774  14.787  1.00  0.00    -0.296 N 
ATOM      6  H2  UNL     1      25.366  63.334  15.499  1.00  0.00     0.172 HD
HETATM    7  C3  UNL     1      25.678  63.640  13.427  1.00  0.00     0.114 A 
HETATM    8  N3  UNL     1      24.664  62.898  13.106  1.00  0.00    -0.386 N 
ATOM      9  H31 UNL     1      24.465  62.799  12.110  1.00  0.00     0.157 HD
ATOM     10  H32 UNL     1      24.144  62.475  13.875  1.00  0.00     0.157 HD
HETATM   11  C4  UNL     1      26.441  64.260  12.298  1.00  0.00     0.137 A 
HETATM   12  C5  UNL     1      25.406  64.903  11.441  1.00  0.00     0.077 C 
HETATM   13  C6  UNL     1      24.739  63.822  10.605  1.00  0.00     0.180 C 
HETATM   14  C8  UNL     1      25.677  62.709  10.718  1.00  0.00     0.239 C 
HETATM   15  O3  UNL     1      25.586  61.538  10.248  1.00  0.00    -0.272 OA
HETATM   16  N5  UNL     1      26.838  63.093  11.494  1.00  0.00    -0.338 N 
ATOM     17  H5  UNL     1      27.754  62.643  11.484  1.00  0.00     0.164 HD
HETATM   18  C9  UNL     1      27.616  65.034  12.673  1.00  0.00     0.075 A 
HETATM   19  C10 UNL     1      28.477  65.657  11.924  1.00  0.00     0.229 C 
ENDROOT
BRANCH  13  20
HETATM   20  N4  UNL     1      24.584  64.247   9.198  1.00  0.00    -0.190 NA
HETATM   21  C7  UNL     1      24.737  65.690   9.211  1.00  0.00     0.144 C 
BRANCH  20  22
HETATM   22  O2  UNL     1      25.669  63.739   8.553  1.00  0.00    -0.313 OA
ATOM     23  H2  UNL     1      25.969  64.439   7.985  1.00  0.00     0.237 HD
ENDBRANCH  20  22
ENDBRANCH  13  20
BRANCH  19  24
HETATM   24  N6  UNL     1      28.754  65.899  10.599  1.00  0.00    -0.057 N 
HETATM   25  C11 UNL     1      30.203  66.360  10.466  1.00  0.00     0.277 C 
HETATM   26  C12 UNL     1      28.669  64.928   9.586  1.00  0.00     0.277 C 
HETATM   27  C13 UNL     1      28.103  67.144  10.112  1.00  0.00     0.277 C 
ENDBRANCH  19  24
TORSDOF 3
ENDMDL
MODEL 3
REMARK VINA RESULT: -6.691642815      2.885      4.249
REMARK  3 active torsions:
REMARK  status: ('A' for Active; 'I' for Inactive)
REMARK    1  A    between atoms: C6_13  and  N4_14 
REMARK    2  A    between atoms: N4_14  and  O2_16 
REMARK    3  A    between atoms: C10_23  and  N6_24 
ROOT
HETATM    1  C1  UNL     1      27.205  68.725  14.907  1.00  0.00     0.161 C 
HETATM    2  N1  UNL     1      27.707  67.433  14.426  1.00  0.00    -0.303 N 
HETATM    3  C2  UNL     1      28.729  66.866  15.223  1.00  0.00     0.328 A 
HETATM    4  O1  UNL     1      29.160  67.458  16.273  1.00  0.00    -0.246 OA
HETATM    5  N2  UNL     1      29.300  65.624  14.869  1.00  0.00    -0.296 N 
ATOM      6  H2  UNL     1      30.038  65.192  15.425  1.00  0.00     0.172 HD
HETATM    7  C3  UNL     1      28.797  65.021  13.718  1.00  0.00     0.114 A 
HETATM    8  N3  UNL     1      29.339  63.897  13.365  1.00  0.00    -0.386 N 
ATOM      9  H31 UNL     1      28.972  63.455  12.522  1.00  0.00     0.157 HD
ATOM     10  H32 UNL     1      30.087  63.541  13.961  1.00  0.00     0.157 HD
HETATM   11  C4  UNL     1      27.700  65.542  12.843  1.00  0.00     0.137 A 
HETATM   12  C5  UNL     1      26.768  64.393  12.670  1.00  0.00     0.077 C 
HETATM   13  C6  UNL     1      27.359  63.450  11.634  1.00  0.00     0.180 C 
HETATM   14  C8  UNL     1      28.367  64.282  10.984  1.00  0.00     0.239 C 
HETATM   15  O3  UNL     1      29.189  63.975  10.073  1.00  0.00    -0.272 OA
HETATM   16  N5  UNL     1      28.348  65.626  11.524  1.00  0.00    -0.338 N 
ATOM     17  H5  UNL     1      28.712  66.468  11.077  1.00  0.00     0.164 HD
HETATM   18  C9  UNL     1      27.149  66.837  13.215  1.00  0.00     0.075 A 
HETATM   19  C10 UNL     1      26.223  67.545  12.640  1.00  0.00     0.229 C 
ENDROOT
BRANCH  13  20
HETATM   20  N4  UNL     1      26.337  62.999  10.668  1.00  0.00    -0.190 NA
HETATM   21  C7  UNL     1      25.065  63.158  11.348  1.00  0.00     0.144 C 
BRANCH  20  22
HETATM   22  O2  UNL     1      26.368  63.917   9.665  1.00  0.00    -0.313 OA
ATOM     23  H2  UNL     1      25.464  64.008   9.385  1.00  0.00     0.237 HD
ENDBRANCH  20  22
ENDBRANCH  13  20
BRANCH  19  24
HETATM   24  N6  UNL     1      25.385  67.515  11.549  1.00  0.00    -0.057 N 
HETATM   25  C11 UNL     1      24.770  68.898  11.352  1.00  0.00     0.277 C 
HETATM   26  C12 UNL     1      25.801  67.198  10.246  1.00  0.00     0.277 C 
HETATM   27  C13 UNL     1      24.127  66.776  11.834  1.00  0.00     0.277 C 
ENDBRANCH  19  24
TORSDOF 3
ENDMDL
MODEL 4
REMARK VINA RESULT: -6.651910401      2.605      5.131
REMARK  3 active torsions:
REMARK  status: ('A' for Active; 'I' for Inactive)
REMARK    1  A    between atoms: C6_13  and  N4_14 
REMARK    2  A    between atoms: N4_14  and  O2_16 
REMARK    3  A    between atoms: C10_23  and  N6_24 
ROOT
HETATM    1  C1  UNL     1      24.787  66.522  16.285  1.00  0.00     0.161 C 
HETATM    2  N1  UNL     1      25.605  65.548  15.554  1.00  0.00    -0.303 N 
HETATM    3  C2  UNL     1      26.336  64.659  16.377  1.00  0.00     0.328 A 
HETATM    4  O1  UNL     1      26.267  64.726  17.654  1.00  0.00    -0.246 OA
HETATM    5  N2  UNL     1      27.165  63.673  15.799  1.00  0.00    -0.296 N 
ATOM      6  H2  UNL     1      27.703  63.019  16.369  1.00  0.00     0.172 HD
HETATM    7  C3  UNL     1      27.206  63.643  14.407  1.00  0.00     0.114 A 
HETATM    8  N3  UNL     1      27.992  62.763  13.867  1.00  0.00    -0.386 N 
ATOM      9  H31 UNL     1      28.023  62.741  12.847  1.00  0.00     0.157 HD
ATOM     10  H32 UNL     1      28.513  62.161  14.504  1.00  0.00     0.157 HD
HETATM   11  C4  UNL     1      26.442  64.526  13.471  1.00  0.00     0.137 A 
HETATM   12  C5  UNL     1      25.808  63.596  12.495  1.00  0.00     0.077 C 
HETATM   13  C6  UNL     1      26.862  63.172  11.485  1.00  0.00     0.180 C 
HETATM   14  C8  UNL     1      27.910  64.170  11.681  1.00  0.00     0.239 C 
HETATM   15  O3  UNL     1      29.042  64.259  11.123  1.00  0.00    -0.272 OA
HETATM   16  N5  UNL     1      27.506  65.149  12.669  1.00  0.00    -0.338 N 
ATOM     17  H5  UNL     1      27.886  66.089  12.786  1.00  0.00     0.164 HD
HETATM   18  C9  UNL     1      25.617  65.551  14.094  1.00  0.00     0.075 A 
HETATM   19  C10 UNL     1      24.874  66.469  13.549  1.00  0.00     0.229 C 
ENDROOT
BRANCH  13  20
HETATM   20  N4  UNL     1      26.337  63.216  10.105  1.00  0.00    -0.190 NA
HETATM   21  C7  UNL     1      24.902  63.041  10.232  1.00  0.00     0.144 C 
BRANCH  20  22
HETATM   22  O2  UNL     1      26.544  64.494   9.687  1.00  0.00    -0.313 OA
ATOM     23  H2  UNL     1      27.146  64.421   8.955  1.00  0.00     0.237 HD
ENDBRANCH  20  22
ENDBRANCH  13  20
BRANCH  19  24
HETATM   24  N6  UNL     1      24.505  66.939  12.310  1.00  0.00    -0.057 N 
HETATM   25  C11 UNL     1      23.678  68.211  12.484  1.00  0.00     0.277 C 
HETATM   26  C12 UNL     1      25.414  67.324  11.310  1.00  0.00     0.277 C 
HETATM   27  C13 UNL     1      23.449  66.098  11.687  1.00  0.00     0.277 C 
ENDBRANCH  19  24
TORSDOF 3
ENDMDL
MODEL 5
REMARK VINA RESULT: -6.451562705      1.837      2.086
REMARK  3 active torsions:
REMARK  status: ('A' for Active; 'I' for Inactive)
REMARK    1  A    between atoms: C6_13  and  N4_14 
REMARK    2  A    between atoms: N4_14  and  O2_16 
REMARK    3  A    between atoms: C10_23  and  N6_24 
ROOT
HETATM    1  C1  UNL     1      28.624  65.855   6.070  1.00  0.00     0.161 C 
HETATM    2  N1  UNL     1      29.151  65.934   7.437  1.00  0.00    -0.303 N 
HETATM    3  C2  UNL     1      30.529  66.245   7.519  1.00  0.00     0.328 A 
HETATM    4  O1  UNL     1      31.232  66.436   6.466  1.00  0.00    -0.246 OA
HETATM    5  N2  UNL     1      31.160  66.351   8.777  1.00  0.00    -0.296 N 
ATOM      6  H2  UNL     1      32.152  66.573   8.866  1.00  0.00     0.172 HD
HETATM    7  C3  UNL     1      30.352  66.133   9.892  1.00  0.00     0.114 A 
HETATM    8  N3  UNL     1      30.931  66.193  11.051  1.00  0.00    -0.386 N 
ATOM      9  H31 UNL     1      30.340  66.034  11.867  1.00  0.00     0.157 HD
ATOM     10  H32 UNL     1      31.930  66.399  11.055  1.00  0.00     0.157 HD
HETATM   11  C4  UNL     1      28.886  65.831   9.887  1.00  0.00     0.137 A 
HETATM   12  C5  UNL     1      28.294  66.787  10.865  1.00  0.00     0.077 C 
HETATM   13  C6  UNL     1      28.557  66.261  12.267  1.00  0.00     0.180 C 
HETATM   14  C8  UNL     1      28.916  64.867  12.021  1.00  0.00     0.239 C 
HETATM   15  O3  UNL     1      29.276  63.978  12.847  1.00  0.00    -0.272 OA
HETATM   16  N5  UNL     1      28.815  64.552  10.611  1.00  0.00    -0.338 N 
ATOM     17  H5  UNL     1      28.714  63.624  10.199  1.00  0.00     0.164 HD
HETATM   18  C9  UNL     1      28.267  65.701   8.576  1.00  0.00     0.075 A 
HETATM   19  C10 UNL     1      27.038  65.420   8.259  1.00  0.00     0.229 C 
ENDROOT
BRANCH  13  20
HETATM   20  N4  UNL     1      27.353  66.359  13.116  1.00  0.00    -0.190 NA
HETATM   21  C7  UNL     1      26.470  67.283  12.429  1.00  0.00     0.144 C 
BRANCH  20  22
HETATM   22  O2  UNL     1      26.771  65.131  13.050  1.00  0.00    -0.313 OA
ATOM     23  H2  UNL     1      25.836  65.300  13.041  1.00  0.00     0.237 HD
ENDBRANCH  20  22
ENDBRANCH  13  20
BRANCH  19  24
HETATM   24  N6  UNL     1      25.831  65.121   8.847  1.00  0.00    -0.057 N 
HETATM   25  C11 UNL     1      24.893  64.535   7.794  1.00  0.00     0.277 C 
HETATM   26  C12 UNL     1      25.674  64.213   9.907  1.00  0.00     0.277 C 
HETATM   27  C13 UNL     1      25.044  66.344   9.156  1.00  0.00     0.277 C 
ENDBRANCH  19  24
TORSDOF 3
ENDMDL
