MODEL 1
REMARK VINA RESULT: -7.277662264      0.000      0.000
REMARK  9 active torsions:
REMARK  status: ('A' for Active; 'I' for Inactive)
REMARK    1  A    between atoms: C1_2  and  C2_3 
REMARK       I    between atoms: C1_2  and  N3_14 
REMARK    2  A    between atoms: C2_3  and  N1_4 
REMARK    3  A    between atoms: N1_4  and  C3_6 
REMARK    4  A    between atoms: C3_6  and  N2_8 
REMARK    5  A    between atoms: N3_14  and  N4_16 
REMARK    6  A    between atoms: N4_16  and  C9_18 
REMARK    7  A    between atoms: C9_18  and  O2_19 
REMARK    8  A    between atoms: C9_18  and  N5_21 
REMARK       I    between atoms: N5_21  and  C10_23 
REMARK    9  A    between atoms: C10_23  and  C11_25 
ROOT
HETATM    1  O1  UNL     1      27.217  62.393  10.707  1.00  0.00    -0.270 OA
HETATM    2  C1  UNL     1      26.596  63.337  11.237  1.00  0.00     0.253 C 
HETATM    3  N3  UNL     1      27.240  64.407  11.859  1.00  0.00    -0.266 N 
ATOM      4  H3  UNL     1      26.702  65.161  12.287  1.00  0.00     0.190 HD
ENDROOT
BRANCH   3   5
HETATM    5  N4  UNL     1      28.648  64.424  11.883  1.00  0.00    -0.263 N 
ATOM      6  H4  UNL     1      29.193  63.564  11.943  1.00  0.00     0.190 HD
BRANCH   5   7
HETATM    7  C9  UNL     1      29.260  65.674  11.822  1.00  0.00     0.239 C 
BRANCH   7   8
HETATM    8  O2  UNL     1      29.214  66.466  12.860  1.00  0.00    -0.331 OA
ATOM      9  H2  UNL     1      28.915  66.128  13.696  1.00  0.00     0.221 HD
ENDBRANCH   7   8
BRANCH   7  10
HETATM   10  N5  UNL     1      29.946  66.168  10.700  1.00  0.00    -0.286 N 
HETATM   11  C10 UNL     1      29.640  65.806   9.379  1.00  0.00     0.275 C 
HETATM   12  O3  UNL     1      28.729  65.051   9.027  1.00  0.00    -0.266 OA
ATOM     13  H5  UNL     1      30.709  66.827  10.855  1.00  0.00     0.172 HD
BRANCH  11  14
HETATM   14  C11 UNL     1      30.523  66.410   8.323  1.00  0.00     0.097 A 
HETATM   15  C12 UNL     1      30.081  66.807   7.146  1.00  0.00     0.013 A 
HETATM   16  C13 UNL     1      31.240  67.345   6.378  1.00  0.00     0.074 A 
HETATM   17  C14 UNL     1      32.361  67.174   7.328  1.00  0.00     0.065 A 
HETATM   18  N6  UNL     1      31.915  66.643   8.413  1.00  0.00    -0.365 N 
ATOM     19  H6  UNL     1      32.488  66.422   9.226  1.00  0.00     0.165 HD
ENDBRANCH  11  14
ENDBRANCH   7  10
ENDBRANCH   5   7
ENDBRANCH   3   5
BRANCH   2  20
HETATM   20  C2  UNL     1      25.092  63.351  11.218  1.00  0.00     0.226 C 
BRANCH  20  21
HETATM   21  N1  UNL     1      24.579  63.791   9.966  1.00  0.00    -0.358 N 
ATOM     22  H1  UNL     1      23.928  63.174   9.482  1.00  0.00     0.162 HD
BRANCH  21  23
HETATM   23  C3  UNL     1      24.897  64.998   9.351  1.00  0.00     0.170 C 
HETATM   24  S1  UNL     1      25.232  64.925   7.708  1.00  0.00    -0.041 SA
BRANCH  23  25
HETATM   25  N2  UNL     1      24.964  66.279   9.912  1.00  0.00    -0.358 N 
HETATM   26  C4  UNL     1      24.153  66.875  10.925  1.00  0.00     0.125 C 
HETATM   27  C5  UNL     1      24.142  68.390  10.600  1.00  0.00     0.020 C 
HETATM   28  C6  UNL     1      25.499  68.926  11.038  1.00  0.00     0.003 C 
HETATM   29  C7  UNL     1      26.556  67.922  10.609  1.00  0.00     0.020 C 
HETATM   30  C8  UNL     1      26.052  67.152   9.411  1.00  0.00     0.125 C 
ENDBRANCH  23  25
ENDBRANCH  21  23
ENDBRANCH  20  21
ENDBRANCH   2  20
TORSDOF 9
ENDMDL
MODEL 2
REMARK VINA RESULT: -6.929342023      2.762      5.712
REMARK  9 active torsions:
REMARK  status: ('A' for Active; 'I' for Inactive)
REMARK    1  A    between atoms: C1_2  and  C2_3 
REMARK       I    between atoms: C1_2  and  N3_14 
REMARK    2  A    between atoms: C2_3  and  N1_4 
REMARK    3  A    between atoms: N1_4  and  C3_6 
REMARK    4  A    between atoms: C3_6  and  N2_8 
REMARK    5  A    between atoms: N3_14  and  N4_16 
REMARK    6  A    between atoms: N4_16  and  C9_18 
REMARK    7  A    between atoms: C9_18  and  O2_19 
REMARK    8  A    between atoms: C9_18  and  N5_21 
REMARK       I    between atoms: N5_21  and  C10_23 
REMARK    9  A    between atoms: C10_23  and  C11_25 
ROOT
HETATM    1  O1  UNL     1      25.050  62.627   8.913  1.00  0.00    -0.270 OA
HETATM    2  C1  UNL     1      24.824  63.781   9.329  1.00  0.00     0.253 C 
HETATM    3  N3  UNL     1      24.722  64.085  10.687  1.00  0.00    -0.266 N 
ATOM      4  H3  UNL     1      24.532  65.039  10.995  1.00  0.00     0.190 HD
ENDROOT
BRANCH   3   5
HETATM    5  N4  UNL     1      24.886  63.046  11.625  1.00  0.00    -0.263 N 
ATOM      6  H4  UNL     1      25.079  62.088  11.333  1.00  0.00     0.190 HD
BRANCH   5   7
HETATM    7  C9  UNL     1      24.773  63.392  12.969  1.00  0.00     0.239 C 
BRANCH   7   8
HETATM    8  O2  UNL     1      23.775  62.928  13.673  1.00  0.00    -0.331 OA
ATOM      9  H2  UNL     1      23.674  63.197  14.578  1.00  0.00     0.221 HD
ENDBRANCH   7   8
BRANCH   7  10
HETATM   10  N5  UNL     1      25.673  64.226  13.652  1.00  0.00    -0.286 N 
HETATM   11  C10 UNL     1      27.042  63.947  13.789  1.00  0.00     0.275 C 
HETATM   12  O3  UNL     1      27.635  62.976  13.311  1.00  0.00    -0.266 OA
ATOM     13  H5  UNL     1      25.312  65.082  14.073  1.00  0.00     0.172 HD
BRANCH  11  14
HETATM   14  C11 UNL     1      27.826  64.943  14.598  1.00  0.00     0.097 A 
HETATM   15  C12 UNL     1      28.770  65.710  14.090  1.00  0.00     0.013 A 
HETATM   16  C13 UNL     1      29.316  66.557  15.189  1.00  0.00     0.074 A 
HETATM   17  C14 UNL     1      28.515  66.122  16.354  1.00  0.00     0.065 A 
HETATM   18  N6  UNL     1      27.687  65.212  15.980  1.00  0.00    -0.365 N 
ATOM     19  H6  UNL     1      27.020  64.747  16.595  1.00  0.00     0.165 HD
ENDBRANCH  11  14
ENDBRANCH   7  10
ENDBRANCH   5   7
ENDBRANCH   3   5
BRANCH   2  20
HETATM   20  C2  UNL     1      24.654  64.912   8.353  1.00  0.00     0.226 C 
BRANCH  20  21
HETATM   21  N1  UNL     1      25.862  65.207   7.663  1.00  0.00    -0.358 N 
ATOM     22  H1  UNL     1      26.021  64.737   6.772  1.00  0.00     0.162 HD
BRANCH  21  23
HETATM   23  C3  UNL     1      26.844  66.086   8.109  1.00  0.00     0.170 C 
HETATM   24  S1  UNL     1      26.452  67.016   9.449  1.00  0.00    -0.041 SA
BRANCH  23  25
HETATM   25  N2  UNL     1      28.132  66.296   7.600  1.00  0.00    -0.358 N 
HETATM   26  C4  UNL     1      28.540  66.925   6.384  1.00  0.00     0.125 C 
HETATM   27  C5  UNL     1      29.863  66.224   5.987  1.00  0.00     0.020 C 
HETATM   28  C6  UNL     1      30.934  66.783   6.914  1.00  0.00     0.003 C 
HETATM   29  C7  UNL     1      30.343  66.863   8.311  1.00  0.00     0.020 C 
HETATM   30  C8  UNL     1      29.252  65.828   8.449  1.00  0.00     0.125 C 
ENDBRANCH  23  25
ENDBRANCH  21  23
ENDBRANCH  20  21
ENDBRANCH   2  20
TORSDOF 9
ENDMDL
MODEL 3
REMARK VINA RESULT: -6.857820596      3.220      3.845
REMARK  9 active torsions:
REMARK  status: ('A' for Active; 'I' for Inactive)
REMARK    1  A    between atoms: C1_2  and  C2_3 
REMARK       I    between atoms: C1_2  and  N3_14 
REMARK    2  A    between atoms: C2_3  and  N1_4 
REMARK    3  A    between atoms: N1_4  and  C3_6 
REMARK    4  A    between atoms: C3_6  and  N2_8 
REMARK    5  A    between atoms: N3_14  and  N4_16 
REMARK    6  A    between atoms: N4_16  and  C9_18 
REMARK    7  A    between atoms: C9_18  and  O2_19 
REMARK    8  A    between atoms: C9_18  and  N5_21 
REMARK       I    between atoms: N5_21  and  C10_23 
REMARK    9  A    between atoms: C10_23  and  C11_25 
ROOT
HETATM    1  O1  UNL     1      26.990  62.439  10.662  1.00  0.00    -0.270 OA
HETATM    2  C1  UNL     1      26.464  63.301  11.395  1.00  0.00     0.253 C 
HETATM    3  N3  UNL     1      27.209  64.258  12.086  1.00  0.00    -0.266 N 
ATOM      4  H3  UNL     1      26.748  64.946  12.681  1.00  0.00     0.190 HD
ENDROOT
BRANCH   3   5
HETATM    5  N4  UNL     1      28.611  64.252  11.944  1.00  0.00    -0.263 N 
ATOM      6  H4  UNL     1      29.139  63.382  11.878  1.00  0.00     0.190 HD
BRANCH   5   7
HETATM    7  C9  UNL     1      29.239  65.494  11.896  1.00  0.00     0.239 C 
BRANCH   7   8
HETATM    8  O2  UNL     1      29.191  66.282  12.937  1.00  0.00    -0.331 OA
ATOM      9  H2  UNL     1      28.543  66.976  12.970  1.00  0.00     0.221 HD
ENDBRANCH   7   8
BRANCH   7  10
HETATM   10  N5  UNL     1      29.945  65.985  10.785  1.00  0.00    -0.286 N 
HETATM   11  C10 UNL     1      29.506  65.843   9.459  1.00  0.00     0.275 C 
HETATM   12  O3  UNL     1      28.451  65.313   9.098  1.00  0.00    -0.266 OA
ATOM     13  H5  UNL     1      30.826  66.471  10.952  1.00  0.00     0.172 HD
BRANCH  11  14
HETATM   14  C11 UNL     1      30.430  66.397   8.411  1.00  0.00     0.097 A 
HETATM   15  C12 UNL     1      30.031  66.754   7.206  1.00  0.00     0.013 A 
HETATM   16  C13 UNL     1      31.220  67.251   6.456  1.00  0.00     0.074 A 
HETATM   17  C14 UNL     1      32.307  67.102   7.448  1.00  0.00     0.065 A 
HETATM   18  N6  UNL     1      31.821  66.618   8.536  1.00  0.00    -0.365 N 
ATOM     19  H6  UNL     1      32.365  66.422   9.376  1.00  0.00     0.165 HD
ENDBRANCH  11  14
ENDBRANCH   7  10
ENDBRANCH   5   7
ENDBRANCH   3   5
BRANCH   2  20
HETATM   20  C2  UNL     1      24.970  63.337  11.559  1.00  0.00     0.226 C 
BRANCH  20  21
HETATM   21  N1  UNL     1      24.585  63.352  12.928  1.00  0.00    -0.358 N 
ATOM     22  H1  UNL     1      24.877  62.564  13.507  1.00  0.00     0.162 HD
BRANCH  21  23
HETATM   23  C3  UNL     1      23.840  64.355  13.540  1.00  0.00     0.170 C 
HETATM   24  S1  UNL     1      23.480  65.692  12.592  1.00  0.00    -0.041 SA
BRANCH  23  25
HETATM   25  N2  UNL     1      23.332  64.401  14.844  1.00  0.00    -0.358 N 
HETATM   26  C4  UNL     1      22.310  63.612  15.453  1.00  0.00     0.125 C 
HETATM   27  C5  UNL     1      21.660  64.533  16.515  1.00  0.00     0.020 C 
HETATM   28  C6  UNL     1      22.640  64.592  17.680  1.00  0.00     0.003 C 
HETATM   29  C7  UNL     1      24.039  64.730  17.105  1.00  0.00     0.020 C 
HETATM   30  C8  UNL     1      23.955  65.394  15.750  1.00  0.00     0.125 C 
ENDBRANCH  23  25
ENDBRANCH  21  23
ENDBRANCH  20  21
ENDBRANCH   2  20
TORSDOF 9
ENDMDL
MODEL 4
REMARK VINA RESULT: -6.828239364      2.635      3.811
REMARK  9 active torsions:
REMARK  status: ('A' for Active; 'I' for Inactive)
REMARK    1  A    between atoms: C1_2  and  C2_3 
REMARK       I    between atoms: C1_2  and  N3_14 
REMARK    2  A    between atoms: C2_3  and  N1_4 
REMARK    3  A    between atoms: N1_4  and  C3_6 
REMARK    4  A    between atoms: C3_6  and  N2_8 
REMARK    5  A    between atoms: N3_14  and  N4_16 
REMARK    6  A    between atoms: N4_16  and  C9_18 
REMARK    7  A    between atoms: C9_18  and  O2_19 
REMARK    8  A    between atoms: C9_18  and  N5_21 
REMARK       I    between atoms: N5_21  and  C10_23 
REMARK    9  A    between atoms: C10_23  and  C11_25 
ROOT
HETATM    1  O1  UNL     1      25.645  63.379  10.062  1.00  0.00    -0.270 OA
HETATM    2  C1  UNL     1      24.999  63.975  10.947  1.00  0.00     0.253 C 
HETATM    3  N3  UNL     1      24.249  65.123  10.688  1.00  0.00    -0.266 N 
ATOM      4  H3  UNL     1      23.735  65.589  11.436  1.00  0.00     0.190 HD
ENDROOT
BRANCH   3   5
HETATM    5  N4  UNL     1      24.217  65.625   9.372  1.00  0.00    -0.263 N 
ATOM      6  H4  UNL     1      23.732  65.132   8.623  1.00  0.00     0.190 HD
BRANCH   5   7
HETATM    7  C9  UNL     1      24.883  66.827   9.144  1.00  0.00     0.239 C 
BRANCH   7   8
HETATM    8  O2  UNL     1      24.270  67.958   9.378  1.00  0.00    -0.331 OA
ATOM      9  H2  UNL     1      24.127  68.570   8.666  1.00  0.00     0.221 HD
ENDBRANCH   7   8
BRANCH   7  10
HETATM   10  N5  UNL     1      26.200  66.928   8.669  1.00  0.00    -0.286 N 
HETATM   11  C10 UNL     1      26.796  65.984   7.819  1.00  0.00     0.275 C 
HETATM   12  O3  UNL     1      26.248  64.979   7.354  1.00  0.00    -0.266 OA
ATOM     13  H5  UNL     1      26.756  67.733   8.959  1.00  0.00     0.172 HD
BRANCH  11  14
HETATM   14  C11 UNL     1      28.232  66.251   7.462  1.00  0.00     0.097 A 
HETATM   15  C12 UNL     1      28.843  65.687   6.440  1.00  0.00     0.013 A 
HETATM   16  C13 UNL     1      30.246  66.192   6.407  1.00  0.00     0.074 A 
HETATM   17  C14 UNL     1      30.281  67.109   7.568  1.00  0.00     0.065 A 
HETATM   18  N6  UNL     1      29.127  67.114   8.135  1.00  0.00    -0.365 N 
ATOM     19  H6  UNL     1      28.890  67.666   8.959  1.00  0.00     0.165 HD
ENDBRANCH  11  14
ENDBRANCH   7  10
ENDBRANCH   5   7
ENDBRANCH   3   5
BRANCH   2  20
HETATM   20  C2  UNL     1      25.006  63.458  12.359  1.00  0.00     0.226 C 
BRANCH  20  21
HETATM   21  N1  UNL     1      26.300  63.527  12.945  1.00  0.00    -0.358 N 
ATOM     22  H1  UNL     1      26.841  62.664  12.992  1.00  0.00     0.162 HD
BRANCH  21  23
HETATM   23  C3  UNL     1      26.886  64.680  13.458  1.00  0.00     0.170 C 
HETATM   24  S1  UNL     1      27.092  64.727  15.123  1.00  0.00    -0.041 SA
BRANCH  23  25
HETATM   25  N2  UNL     1      27.343  65.813  12.774  1.00  0.00    -0.358 N 
HETATM   26  C4  UNL     1      28.118  65.905  11.577  1.00  0.00     0.125 C 
HETATM   27  C5  UNL     1      28.936  67.212  11.720  1.00  0.00     0.020 C 
HETATM   28  C6  UNL     1      27.961  68.352  11.459  1.00  0.00     0.003 C 
HETATM   29  C7  UNL     1      26.660  68.024  12.171  1.00  0.00     0.020 C 
HETATM   30  C8  UNL     1      26.952  67.122  13.347  1.00  0.00     0.125 C 
ENDBRANCH  23  25
ENDBRANCH  21  23
ENDBRANCH  20  21
ENDBRANCH   2  20
TORSDOF 9
ENDMDL
MODEL 5
REMARK VINA RESULT: -6.826341284      3.932      6.787
REMARK  9 active torsions:
REMARK  status: ('A' for Active; 'I' for Inactive)
REMARK    1  A    between atoms: C1_2  and  C2_3 
REMARK       I    between atoms: C1_2  and  N3_14 
REMARK    2  A    between atoms: C2_3  and  N1_4 
REMARK    3  A    between atoms: N1_4  and  C3_6 
REMARK    4  A    between atoms: C3_6  and  N2_8 
REMARK    5  A    between atoms: N3_14  and  N4_16 
REMARK    6  A    between atoms: N4_16  and  C9_18 
REMARK    7  A    between atoms: C9_18  and  O2_19 
REMARK    8  A    between atoms: C9_18  and  N5_21 
REMARK       I    between atoms: N5_21  and  C10_23 
REMARK    9  A    between atoms: C10_23  and  C11_25 
ROOT
HETATM    1  O1  UNL     1      26.975  62.611  10.804  1.00  0.00    -0.270 OA
HETATM    2  C1  UNL     1      26.346  63.674  10.981  1.00  0.00     0.253 C 
HETATM    3  N3  UNL     1      25.894  64.082  12.237  1.00  0.00    -0.266 N 
ATOM      4  H3  UNL     1      25.378  64.954  12.347  1.00  0.00     0.190 HD
ENDROOT
BRANCH   3   5
HETATM    5  N4  UNL     1      26.167  63.262  13.350  1.00  0.00    -0.263 N 
ATOM      6  H4  UNL     1      25.546  62.499  13.619  1.00  0.00     0.190 HD
BRANCH   5   7
HETATM    7  C9  UNL     1      27.329  63.545  14.065  1.00  0.00     0.239 C 
BRANCH   7   8
HETATM    8  O2  UNL     1      28.492  63.250  13.549  1.00  0.00    -0.331 OA
ATOM      9  H2  UNL     1      28.580  63.166  12.607  1.00  0.00     0.221 HD
ENDBRANCH   7   8
BRANCH   7  10
HETATM   10  N5  UNL     1      27.353  64.141  15.336  1.00  0.00    -0.286 N 
HETATM   11  C10 UNL     1      26.443  65.126  15.752  1.00  0.00     0.275 C 
HETATM   12  O3  UNL     1      25.500  65.567  15.089  1.00  0.00    -0.266 OA
ATOM     13  H5  UNL     1      28.072  63.842  15.995  1.00  0.00     0.172 HD
BRANCH  11  14
HETATM   14  C11 UNL     1      26.668  65.671  17.135  1.00  0.00     0.097 A 
HETATM   15  C12 UNL     1      25.707  66.177  17.882  1.00  0.00     0.013 A 
HETATM   16  C13 UNL     1      26.309  66.611  19.174  1.00  0.00     0.074 A 
HETATM   17  C14 UNL     1      27.734  66.256  18.997  1.00  0.00     0.065 A 
HETATM   18  N6  UNL     1      27.895  65.729  17.835  1.00  0.00    -0.365 N 
ATOM     19  H6  UNL     1      28.787  65.398  17.468  1.00  0.00     0.165 HD
ENDBRANCH  11  14
ENDBRANCH   7  10
ENDBRANCH   5   7
ENDBRANCH   3   5
BRANCH   2  20
HETATM   20  C2  UNL     1      26.048  64.574   9.813  1.00  0.00     0.226 C 
BRANCH  20  21
HETATM   21  N1  UNL     1      26.657  65.851   9.957  1.00  0.00    -0.358 N 
ATOM     22  H1  UNL     1      26.041  66.653  10.089  1.00  0.00     0.162 HD
BRANCH  21  23
HETATM   23  C3  UNL     1      28.027  66.092   9.930  1.00  0.00     0.170 C 
HETATM   24  S1  UNL     1      28.775  66.274  11.421  1.00  0.00    -0.041 SA
BRANCH  23  25
HETATM   25  N2  UNL     1      28.881  66.191   8.824  1.00  0.00    -0.358 N 
HETATM   26  C4  UNL     1      30.305  66.114   8.762  1.00  0.00     0.125 C 
HETATM   27  C5  UNL     1      30.710  67.011   7.566  1.00  0.00     0.020 C 
HETATM   28  C6  UNL     1      30.375  66.217   6.310  1.00  0.00     0.003 C 
HETATM   29  C7  UNL     1      29.023  65.559   6.523  1.00  0.00     0.020 C 
HETATM   30  C8  UNL     1      28.223  66.376   7.510  1.00  0.00     0.125 C 
ENDBRANCH  23  25
ENDBRANCH  21  23
ENDBRANCH  20  21
ENDBRANCH   2  20
TORSDOF 9
ENDMDL
