MODEL 1
REMARK VINA RESULT: -8.412827819      0.000      0.000
REMARK  4 active torsions:
REMARK  status: ('A' for Active; 'I' for Inactive)
REMARK       I    between atoms: N2_5  and  C4_6 
REMARK       I    between atoms: C4_6  and  N3_8 
REMARK    1  A    between atoms: N3_8  and  N4_10 
REMARK       I    between atoms: N4_10  and  C5_12 
REMARK    2  A    between atoms: C5_12  and  C6_14 
REMARK    3  A    between atoms: C6_14  and  N5_15 
REMARK    4  A    between atoms: C6_14  and  C8_19 
REMARK       I    between atoms: N5_15  and  C7_16 
ROOT
HETATM    1  N4  UNL     1      29.014  66.077  11.979  1.00  0.00    -0.263 N 
ATOM      2  H4  UNL     1      29.669  65.336  11.731  1.00  0.00     0.190 HD
HETATM    3  C5  UNL     1      28.034  66.301  11.047  1.00  0.00     0.272 C 
HETATM    4  O2  UNL     1      27.134  67.148  11.185  1.00  0.00    -0.268 OA
ENDROOT
BRANCH   3   5
HETATM    5  C6  UNL     1      28.064  65.454   9.782  1.00  0.00     0.265 C 
BRANCH   5   6
HETATM    6  N5  UNL     1      26.757  65.064   9.501  1.00  0.00    -0.384 NA
HETATM    7  C7  UNL     1      25.497  64.688   9.232  1.00  0.00     0.401 C 
HETATM    8  N6  UNL     1      25.130  64.269   7.889  1.00  0.00    -0.025 NA
HETATM    9  O3  UNL     1      24.520  64.650  10.065  1.00  0.00    -0.234 OA
ENDBRANCH   5   6
BRANCH   5  10
HETATM   10  C8  UNL     1      28.733  66.234   8.661  1.00  0.00     0.031 C 
HETATM   11  C9  UNL     1      30.157  65.781   8.573  1.00  0.00     0.008 C 
HETATM   12  C10 UNL     1      31.105  66.871   8.169  1.00  0.00     0.001 C 
HETATM   13  C11 UNL     1      31.122  67.149   6.699  1.00  0.00     0.000 C 
HETATM   14  C12 UNL     1      30.047  66.435   5.952  1.00  0.00     0.000 C 
HETATM   15  C13 UNL     1      28.658  66.878   6.207  1.00  0.00     0.001 C 
HETATM   16  C14 UNL     1      27.980  66.382   7.429  1.00  0.00     0.008 C 
ENDBRANCH   5  10
ENDBRANCH   3   5
BRANCH   1  17
HETATM   17  N3  UNL     1      29.266  66.672  13.181  1.00  0.00    -0.249 N 
HETATM   18  C4  UNL     1      28.904  66.330  14.494  1.00  0.00     0.337 C 
HETATM   19  N2  UNL     1      29.275  67.111  15.635  1.00  0.00    -0.330 N 
HETATM   20  O1  UNL     1      28.222  65.304  14.774  1.00  0.00    -0.245 OA
HETATM   21  C3  UNL     1      28.852  66.630  16.969  1.00  0.00     0.147 C 
HETATM   22  C15 UNL     1      30.015  68.322  15.639  1.00  0.00     0.147 C 
HETATM   23  C2  UNL     1      30.140  66.400  17.725  1.00  0.00     0.136 C 
HETATM   24  N1  UNL     1      30.857  67.627  17.838  1.00  0.00    -0.414 N 
HETATM   25  C1  UNL     1      30.395  68.482  18.886  1.00  0.00     0.143 C 
HETATM   26  C16 UNL     1      31.176  68.287  16.619  1.00  0.00     0.136 C 
ATOM     27  H3  UNL     1      29.821  67.525  13.112  1.00  0.00     0.192 HD
ENDBRANCH   1  17
TORSDOF 4
ENDMDL
MODEL 2
REMARK VINA RESULT: -7.971314432      1.005      1.612
REMARK  4 active torsions:
REMARK  status: ('A' for Active; 'I' for Inactive)
REMARK       I    between atoms: N2_5  and  C4_6 
REMARK       I    between atoms: C4_6  and  N3_8 
REMARK    1  A    between atoms: N3_8  and  N4_10 
REMARK       I    between atoms: N4_10  and  C5_12 
REMARK    2  A    between atoms: C5_12  and  C6_14 
REMARK    3  A    between atoms: C6_14  and  N5_15 
REMARK    4  A    between atoms: C6_14  and  C8_19 
REMARK       I    between atoms: N5_15  and  C7_16 
ROOT
HETATM    1  N4  UNL     1      29.171  66.025  12.179  1.00  0.00    -0.263 N 
ATOM      2  H4  UNL     1      29.341  65.020  12.202  1.00  0.00     0.190 HD
HETATM    3  C5  UNL     1      28.798  66.508  10.952  1.00  0.00     0.272 C 
HETATM    4  O2  UNL     1      28.527  67.703  10.736  1.00  0.00    -0.268 OA
ENDROOT
BRANCH   3   5
HETATM    5  C6  UNL     1      28.713  65.512   9.804  1.00  0.00     0.265 C 
BRANCH   5   6
HETATM    6  N5  UNL     1      27.478  65.685   9.182  1.00  0.00    -0.384 NA
HETATM    7  C7  UNL     1      26.288  65.853   8.584  1.00  0.00     0.401 C 
HETATM    8  N6  UNL     1      25.795  64.858   7.646  1.00  0.00    -0.025 NA
HETATM    9  O3  UNL     1      25.486  66.842   8.750  1.00  0.00    -0.234 OA
ENDBRANCH   5   6
BRANCH   5  10
HETATM   10  C8  UNL     1      29.905  65.697   8.878  1.00  0.00     0.031 C 
HETATM   11  C9  UNL     1      29.429  66.414   7.655  1.00  0.00     0.008 C 
HETATM   12  C10 UNL     1      30.146  66.001   6.404  1.00  0.00     0.001 C 
HETATM   13  C11 UNL     1      31.489  66.640   6.233  1.00  0.00     0.000 C 
HETATM   14  C12 UNL     1      31.937  67.399   7.436  1.00  0.00     0.000 C 
HETATM   15  C13 UNL     1      32.265  66.600   8.638  1.00  0.00     0.001 C 
HETATM   16  C14 UNL     1      31.147  66.132   9.492  1.00  0.00     0.008 C 
ENDBRANCH   5  10
ENDBRANCH   3   5
BRANCH   1  17
HETATM   17  N3  UNL     1      29.354  66.654  13.376  1.00  0.00    -0.249 N 
HETATM   18  C4  UNL     1      28.903  66.359  14.673  1.00  0.00     0.337 C 
HETATM   19  N2  UNL     1      29.212  67.170  15.811  1.00  0.00    -0.330 N 
HETATM   20  O1  UNL     1      28.187  65.352  14.938  1.00  0.00    -0.245 OA
HETATM   21  C3  UNL     1      28.695  66.738  17.129  1.00  0.00     0.147 C 
HETATM   22  C15 UNL     1      29.970  68.370  15.827  1.00  0.00     0.147 C 
HETATM   23  C2  UNL     1      29.927  66.513  17.974  1.00  0.00     0.136 C 
HETATM   24  N1  UNL     1      30.655  67.732  18.096  1.00  0.00    -0.414 N 
HETATM   25  C1  UNL     1      30.141  68.627  19.085  1.00  0.00     0.143 C 
HETATM   26  C16 UNL     1      31.064  68.349  16.881  1.00  0.00     0.136 C 
ATOM     27  H3  UNL     1      29.927  67.497  13.318  1.00  0.00     0.192 HD
ENDBRANCH   1  17
TORSDOF 4
ENDMDL
MODEL 3
REMARK VINA RESULT: -7.937625241      1.857      2.319
REMARK  4 active torsions:
REMARK  status: ('A' for Active; 'I' for Inactive)
REMARK       I    between atoms: N2_5  and  C4_6 
REMARK       I    between atoms: C4_6  and  N3_8 
REMARK    1  A    between atoms: N3_8  and  N4_10 
REMARK       I    between atoms: N4_10  and  C5_12 
REMARK    2  A    between atoms: C5_12  and  C6_14 
REMARK    3  A    between atoms: C6_14  and  N5_15 
REMARK    4  A    between atoms: C6_14  and  C8_19 
REMARK       I    between atoms: N5_15  and  C7_16 
ROOT
HETATM    1  N4  UNL     1      27.338  64.807  11.948  1.00  0.00    -0.263 N 
ATOM      2  H4  UNL     1      27.264  63.837  11.641  1.00  0.00     0.190 HD
HETATM    3  C5  UNL     1      27.579  65.703  10.939  1.00  0.00     0.272 C 
HETATM    4  O2  UNL     1      27.679  66.930  11.118  1.00  0.00    -0.268 OA
ENDROOT
BRANCH   3   5
HETATM    5  C6  UNL     1      27.727  65.146   9.530  1.00  0.00     0.265 C 
BRANCH   5   6
HETATM    6  N5  UNL     1      26.452  65.040   8.979  1.00  0.00    -0.384 NA
HETATM    7  C7  UNL     1      25.225  64.936   8.446  1.00  0.00     0.401 C 
HETATM    8  N6  UNL     1      24.069  65.439   9.171  1.00  0.00    -0.025 NA
HETATM    9  O3  UNL     1      24.930  64.419   7.308  1.00  0.00    -0.234 OA
ENDBRANCH   5   6
BRANCH   5  10
HETATM   10  C8  UNL     1      28.677  66.026   8.731  1.00  0.00     0.031 C 
HETATM   11  C9  UNL     1      30.069  65.531   8.966  1.00  0.00     0.008 C 
HETATM   12  C10 UNL     1      31.097  66.622   8.966  1.00  0.00     0.001 C 
HETATM   13  C11 UNL     1      31.509  67.071   7.599  1.00  0.00     0.000 C 
HETATM   14  C12 UNL     1      30.668  66.492   6.512  1.00  0.00     0.000 C 
HETATM   15  C13 UNL     1      29.264  66.957   6.443  1.00  0.00     0.001 C 
HETATM   16  C14 UNL     1      28.281  66.347   7.371  1.00  0.00     0.008 C 
ENDBRANCH   5  10
ENDBRANCH   3   5
BRANCH   1  17
HETATM   17  N3  UNL     1      27.179  64.986  13.292  1.00  0.00    -0.249 N 
HETATM   18  C4  UNL     1      28.009  65.559  14.269  1.00  0.00     0.337 C 
HETATM   19  N2  UNL     1      27.646  65.642  15.651  1.00  0.00    -0.330 N 
HETATM   20  O1  UNL     1      29.144  66.048  14.005  1.00  0.00    -0.245 OA
HETATM   21  C3  UNL     1      28.599  66.292  16.578  1.00  0.00     0.147 C 
HETATM   22  C15 UNL     1      26.454  65.162  16.253  1.00  0.00     0.147 C 
HETATM   23  C2  UNL     1      27.844  67.471  17.147  1.00  0.00     0.136 C 
HETATM   24  N1  UNL     1      26.694  67.010  17.852  1.00  0.00    -0.414 N 
HETATM   25  C1  UNL     1      26.964  66.544  19.176  1.00  0.00     0.143 C 
HETATM   26  C16 UNL     1      25.774  66.217  17.111  1.00  0.00     0.136 C 
ATOM     27  H3  UNL     1      26.291  64.637  13.654  1.00  0.00     0.192 HD
ENDBRANCH   1  17
TORSDOF 4
ENDMDL
MODEL 4
REMARK VINA RESULT: -7.933708591      2.277      2.443
REMARK  4 active torsions:
REMARK  status: ('A' for Active; 'I' for Inactive)
REMARK       I    between atoms: N2_5  and  C4_6 
REMARK       I    between atoms: C4_6  and  N3_8 
REMARK    1  A    between atoms: N3_8  and  N4_10 
REMARK       I    between atoms: N4_10  and  C5_12 
REMARK    2  A    between atoms: C5_12  and  C6_14 
REMARK    3  A    between atoms: C6_14  and  N5_15 
REMARK    4  A    between atoms: C6_14  and  C8_19 
REMARK       I    between atoms: N5_15  and  C7_16 
ROOT
HETATM    1  N4  UNL     1      26.901  65.542  11.927  1.00  0.00    -0.263 N 
ATOM      2  H4  UNL     1      26.629  64.584  11.710  1.00  0.00     0.190 HD
HETATM    3  C5  UNL     1      27.552  66.190  10.910  1.00  0.00     0.272 C 
HETATM    4  O2  UNL     1      27.941  67.369  10.983  1.00  0.00    -0.268 OA
ENDROOT
BRANCH   3   5
HETATM    5  C6  UNL     1      27.802  65.407   9.629  1.00  0.00     0.265 C 
BRANCH   5   6
HETATM    6  N5  UNL     1      26.564  65.118   9.059  1.00  0.00    -0.384 NA
HETATM    7  C7  UNL     1      25.372  64.839   8.509  1.00  0.00     0.401 C 
HETATM    8  N6  UNL     1      24.146  65.171   9.215  1.00  0.00    -0.025 NA
HETATM    9  O3  UNL     1      25.172  64.284   7.368  1.00  0.00    -0.234 OA
ENDBRANCH   5   6
BRANCH   5  10
HETATM   10  C8  UNL     1      28.733  66.197   8.722  1.00  0.00     0.031 C 
HETATM   11  C9  UNL     1      30.119  65.665   8.911  1.00  0.00     0.008 C 
HETATM   12  C10 UNL     1      31.183  66.714   8.780  1.00  0.00     0.001 C 
HETATM   13  C11 UNL     1      31.529  67.058   7.366  1.00  0.00     0.000 C 
HETATM   14  C12 UNL     1      30.606  66.444   6.368  1.00  0.00     0.000 C 
HETATM   15  C13 UNL     1      29.217  66.956   6.348  1.00  0.00     0.001 C 
HETATM   16  C14 UNL     1      28.269  66.445   7.368  1.00  0.00     0.008 C 
ENDBRANCH   5  10
ENDBRANCH   3   5
BRANCH   1  17
HETATM   17  N3  UNL     1      26.552  65.955  13.180  1.00  0.00    -0.249 N 
HETATM   18  C4  UNL     1      26.652  65.335  14.437  1.00  0.00     0.337 C 
HETATM   19  N2  UNL     1      26.213  65.955  15.650  1.00  0.00    -0.330 N 
HETATM   20  O1  UNL     1      27.137  64.180  14.597  1.00  0.00    -0.245 OA
HETATM   21  C3  UNL     1      26.394  65.206  16.914  1.00  0.00     0.147 C 
HETATM   22  C15 UNL     1      25.606  67.231  15.789  1.00  0.00     0.147 C 
HETATM   23  C2  UNL     1      27.301  66.076  17.754  1.00  0.00     0.136 C 
HETATM   24  N1  UNL     1      26.670  67.331  18.000  1.00  0.00    -0.414 N 
HETATM   25  C1  UNL     1      25.711  67.308  19.060  1.00  0.00     0.143 C 
HETATM   26  C16 UNL     1      26.282  68.080  16.854  1.00  0.00     0.136 C 
ATOM     27  H3  UNL     1      26.143  66.889  13.209  1.00  0.00     0.192 HD
ENDBRANCH   1  17
TORSDOF 4
ENDMDL
MODEL 5
REMARK VINA RESULT: -7.929949706      2.076      2.408
REMARK  4 active torsions:
REMARK  status: ('A' for Active; 'I' for Inactive)
REMARK       I    between atoms: N2_5  and  C4_6 
REMARK       I    between atoms: C4_6  and  N3_8 
REMARK    1  A    between atoms: N3_8  and  N4_10 
REMARK       I    between atoms: N4_10  and  C5_12 
REMARK    2  A    between atoms: C5_12  and  C6_14 
REMARK    3  A    between atoms: C6_14  and  N5_15 
REMARK    4  A    between atoms: C6_14  and  C8_19 
REMARK       I    between atoms: N5_15  and  C7_16 
ROOT
HETATM    1  N4  UNL     1      27.614  65.539  11.931  1.00  0.00    -0.263 N 
ATOM      2  H4  UNL     1      27.771  64.538  11.822  1.00  0.00     0.190 HD
HETATM    3  C5  UNL     1      27.588  66.240  10.754  1.00  0.00     0.272 C 
HETATM    4  O2  UNL     1      27.387  67.466  10.687  1.00  0.00    -0.268 OA
ENDROOT
BRANCH   3   5
HETATM    5  C6  UNL     1      27.817  65.457   9.468  1.00  0.00     0.265 C 
BRANCH   5   6
HETATM    6  N5  UNL     1      26.570  65.185   8.909  1.00  0.00    -0.384 NA
HETATM    7  C7  UNL     1      25.370  64.922   8.368  1.00  0.00     0.401 C 
HETATM    8  N6  UNL     1      24.159  65.411   9.006  1.00  0.00    -0.025 NA
HETATM    9  O3  UNL     1      25.149  64.255   7.294  1.00  0.00    -0.234 OA
ENDBRANCH   5   6
BRANCH   5  10
HETATM   10  C8  UNL     1      28.750  66.237   8.555  1.00  0.00     0.031 C 
HETATM   11  C9  UNL     1      30.140  65.733   8.782  1.00  0.00     0.008 C 
HETATM   12  C10 UNL     1      31.189  66.796   8.640  1.00  0.00     0.001 C 
HETATM   13  C11 UNL     1      31.553  67.106   7.222  1.00  0.00     0.000 C 
HETATM   14  C12 UNL     1      30.658  66.449   6.227  1.00  0.00     0.000 C 
HETATM   15  C13 UNL     1      29.261  66.937   6.169  1.00  0.00     0.001 C 
HETATM   16  C14 UNL     1      28.305  66.440   7.187  1.00  0.00     0.008 C 
ENDBRANCH   5  10
ENDBRANCH   3   5
BRANCH   1  17
HETATM   17  N3  UNL     1      27.466  65.947  13.225  1.00  0.00    -0.249 N 
HETATM   18  C4  UNL     1      26.371  65.910  14.104  1.00  0.00     0.337 C 
HETATM   19  N2  UNL     1      26.429  66.407  15.445  1.00  0.00    -0.330 N 
HETATM   20  O1  UNL     1      25.246  65.435  13.780  1.00  0.00    -0.245 OA
HETATM   21  C3  UNL     1      25.212  66.289  16.279  1.00  0.00     0.147 C 
HETATM   22  C15 UNL     1      27.539  67.017  16.085  1.00  0.00     0.147 C 
HETATM   23  C2  UNL     1      25.625  65.423  17.447  1.00  0.00     0.136 C 
HETATM   24  N1  UNL     1      26.671  66.063  18.174  1.00  0.00    -0.414 N 
HETATM   25  C1  UNL     1      26.223  67.072  19.081  1.00  0.00     0.143 C 
HETATM   26  C16 UNL     1      27.843  66.393  17.437  1.00  0.00     0.136 C 
ATOM     27  H3  UNL     1      28.309  66.356  13.629  1.00  0.00     0.192 HD
ENDBRANCH   1  17
TORSDOF 4
ENDMDL
