MODEL 1
REMARK VINA RESULT: -8.043818681      0.000      0.000
REMARK  16 active torsions:
REMARK  status: ('A' for Active; 'I' for Inactive)
REMARK    1  A    between atoms: O1_2  and  C2_3 
REMARK    2  A    between atoms: C4_5  and  C5_6 
REMARK    3  A    between atoms: C5_6  and  N1_7 
REMARK    4  A    between atoms: C8_10  and  C9_11 
REMARK    5  A    between atoms: C9_11  and  C10_12 
REMARK    6  A    between atoms: C10_12  and  C11_13 
REMARK    7  A    between atoms: C11_13  and  N2_14 
REMARK    8  A    between atoms: N5_19  and  O2_21 
REMARK    9  A    between atoms: O2_21  and  C13_22 
REMARK   10  A    between atoms: C13_22  and  C14_23 
REMARK   11  A    between atoms: C15_24  and  C16_25 
REMARK   12  A    between atoms: C16_25  and  C17_26 
REMARK   13  A    between atoms: C18_27  and  C20_29 
REMARK   14  A    between atoms: C20_29  and  N6_30 
REMARK   15  A    between atoms: C24_37  and  O3_38 
REMARK   16  A    between atoms: C26_40  and  O4_41 
ROOT
HETATM    1  C10 UNL     1      13.100 -19.137  38.894  1.00  0.00     0.079 C 
ENDROOT
BRANCH   1   2
HETATM    2  C9  UNL     1      13.112 -20.503  38.304  1.00  0.00     0.012 C 
BRANCH   2   3
HETATM    3  C8  UNL     1      13.128 -20.378  36.789  1.00  0.00    -0.011 C 
HETATM    4  C7  UNL     1      12.018 -19.465  36.351  1.00  0.00     0.024 C 
HETATM    5  C6  UNL     1      11.729 -19.513  34.884  1.00  0.00     0.117 C 
HETATM    6  N1  UNL     1      11.543 -20.842  34.412  1.00  0.00    -0.408 N 
HETATM    7  C22 UNL     1      12.600 -21.744  34.737  1.00  0.00     0.117 C 
HETATM    8  C21 UNL     1      12.888 -21.750  36.238  1.00  0.00     0.024 C 
BRANCH   6   9
HETATM    9  C5  UNL     1      10.974 -20.979  33.113  1.00  0.00     0.155 C 
BRANCH   9  10
HETATM   10  C4  UNL     1       9.866 -21.952  33.116  1.00  0.00    -0.035 A 
HETATM   11  C3  UNL     1       9.148 -22.155  34.296  1.00  0.00     0.048 A 
HETATM   12  C2  UNL     1       8.113 -23.065  34.284  1.00  0.00     0.104 A 
HETATM   13  C26 UNL     1       7.797 -23.754  33.141  1.00  0.00     0.135 A 
HETATM   14  C24 UNL     1       8.489 -23.574  31.963  1.00  0.00     0.104 A 
HETATM   15  C23 UNL     1       9.525 -22.660  31.983  1.00  0.00     0.048 A 
BRANCH  12  16
HETATM   16  O1  UNL     1       7.392 -23.267  35.472  1.00  0.00    -0.353 OA
HETATM   17  C1  UNL     1       7.923 -23.998  36.535  1.00  0.00     0.210 C 
ENDBRANCH  12  16
BRANCH  13  18
HETATM   18  O4  UNL     1       6.733 -24.672  33.179  1.00  0.00    -0.351 OA
HETATM   19  C27 UNL     1       7.055 -26.014  33.474  1.00  0.00     0.210 C 
ENDBRANCH  13  18
BRANCH  14  20
HETATM   20  O3  UNL     1       8.115 -24.300  30.858  1.00  0.00    -0.353 OA
HETATM   21  C25 UNL     1       7.723 -23.761  29.630  1.00  0.00     0.210 C 
ENDBRANCH  14  20
ENDBRANCH   9  10
ENDBRANCH   6   9
ENDBRANCH   2   3
ENDBRANCH   1   2
BRANCH   1  22
HETATM   22  C11 UNL     1      14.291 -18.909  39.791  1.00  0.00     0.103 C 
HETATM   23  N5  UNL     1      15.429 -18.852  39.230  1.00  0.00    -0.254 N 
ATOM     24  H5  UNL     1      15.401 -18.969  38.217  1.00  0.00     0.195 HD
BRANCH  22  25
HETATM   25  N2  UNL     1      14.097 -18.774  41.173  1.00  0.00    -0.321 N 
HETATM   26  C12 UNL     1      14.602 -19.461  42.117  1.00  0.00     0.202 C 
HETATM   27  N3  UNL     1      15.488 -20.527  41.851  1.00  0.00    -0.066 NA
HETATM   28  N4  UNL     1      14.279 -19.166  43.454  1.00  0.00    -0.066 NA
ATOM     29  H2  UNL     1      13.466 -18.025  41.460  1.00  0.00     0.169 HD
ENDBRANCH  22  25
BRANCH  23  30
HETATM   30  O2  UNL     1      16.661 -18.665  39.724  1.00  0.00    -0.267 OA
BRANCH  30  31
HETATM   31  C13 UNL     1      17.405 -17.510  39.466  1.00  0.00     0.294 C 
BRANCH  31  32
HETATM   32  C14 UNL     1      17.429 -17.375  37.980  1.00  0.00    -0.078 C 
HETATM   33  C15 UNL     1      17.463 -17.249  36.783  1.00  0.00    -0.101 C 
BRANCH  33  34
HETATM   34  C16 UNL     1      17.529 -17.103  35.327  1.00  0.00     0.121 C 
BRANCH  34  35
HETATM   35  C17 UNL     1      17.139 -18.409  34.718  1.00  0.00    -0.011 C 
HETATM   36  C18 UNL     1      15.900 -18.618  34.298  1.00  0.00    -0.062 C 
HETATM   37  C19 UNL     1      14.890 -17.530  34.439  1.00  0.00     0.045 C 
BRANCH  36  38
HETATM   38  C20 UNL     1      15.531 -19.924  33.695  1.00  0.00     0.263 C 
BRANCH  38  39
HETATM   39  N6  UNL     1      16.109 -21.005  34.466  1.00  0.00    -0.076 N 
ATOM     40  H63 UNL     1      15.610 -21.160  35.342  1.00  0.00     0.274 HD
ATOM     41  H62 UNL     1      15.941 -21.914  34.036  1.00  0.00     0.274 HD
ATOM     42  H61 UNL     1      17.102 -20.831  34.618  1.00  0.00     0.274 HD
ENDBRANCH  38  39
ENDBRANCH  36  38
ENDBRANCH  34  35
ENDBRANCH  33  34
ENDBRANCH  31  32
ENDBRANCH  30  31
ENDBRANCH  23  30
ENDBRANCH   1  22
TORSDOF 16
ENDMDL
MODEL 2
REMARK VINA RESULT: -8.007833281      1.472      2.468
REMARK  16 active torsions:
REMARK  status: ('A' for Active; 'I' for Inactive)
REMARK    1  A    between atoms: O1_2  and  C2_3 
REMARK    2  A    between atoms: C4_5  and  C5_6 
REMARK    3  A    between atoms: C5_6  and  N1_7 
REMARK    4  A    between atoms: C8_10  and  C9_11 
REMARK    5  A    between atoms: C9_11  and  C10_12 
REMARK    6  A    between atoms: C10_12  and  C11_13 
REMARK    7  A    between atoms: C11_13  and  N2_14 
REMARK    8  A    between atoms: N5_19  and  O2_21 
REMARK    9  A    between atoms: O2_21  and  C13_22 
REMARK   10  A    between atoms: C13_22  and  C14_23 
REMARK   11  A    between atoms: C15_24  and  C16_25 
REMARK   12  A    between atoms: C16_25  and  C17_26 
REMARK   13  A    between atoms: C18_27  and  C20_29 
REMARK   14  A    between atoms: C20_29  and  N6_30 
REMARK   15  A    between atoms: C24_37  and  O3_38 
REMARK   16  A    between atoms: C26_40  and  O4_41 
ROOT
HETATM    1  C10 UNL     1      13.898 -19.473  37.863  1.00  0.00     0.079 C 
ENDROOT
BRANCH   1   2
HETATM    2  C9  UNL     1      13.863 -20.849  37.296  1.00  0.00     0.012 C 
BRANCH   2   3
HETATM    3  C8  UNL     1      12.449 -21.392  37.425  1.00  0.00    -0.011 C 
HETATM    4  C7  UNL     1      12.180 -22.355  36.304  1.00  0.00     0.024 C 
HETATM    5  C6  UNL     1      10.736 -22.709  36.134  1.00  0.00     0.117 C 
HETATM    6  N1  UNL     1       9.901 -21.559  36.061  1.00  0.00    -0.408 N 
HETATM    7  C22 UNL     1      10.061 -20.637  37.138  1.00  0.00     0.117 C 
HETATM    8  C21 UNL     1      11.522 -20.222  37.307  1.00  0.00     0.024 C 
BRANCH   6   9
HETATM    9  C5  UNL     1       8.569 -21.773  35.605  1.00  0.00     0.155 C 
BRANCH   9  10
HETATM   10  C4  UNL     1       8.556 -22.418  34.280  1.00  0.00    -0.035 A 
HETATM   11  C3  UNL     1       7.656 -23.458  34.042  1.00  0.00     0.048 A 
HETATM   12  C2  UNL     1       7.652 -24.051  32.798  1.00  0.00     0.104 A 
HETATM   13  C26 UNL     1       8.513 -23.628  31.816  1.00  0.00     0.135 A 
HETATM   14  C24 UNL     1       9.412 -22.604  32.023  1.00  0.00     0.104 A 
HETATM   15  C23 UNL     1       9.409 -22.016  33.273  1.00  0.00     0.048 A 
BRANCH  12  16
HETATM   16  O1  UNL     1       6.745 -25.096  32.562  1.00  0.00    -0.353 OA
HETATM   17  C1  UNL     1       6.302 -25.927  33.592  1.00  0.00     0.210 C 
ENDBRANCH  12  16
BRANCH  13  18
HETATM   18  O4  UNL     1       8.472 -24.263  30.563  1.00  0.00    -0.351 OA
HETATM   19  C27 UNL     1       7.548 -23.761  29.621  1.00  0.00     0.210 C 
ENDBRANCH  13  18
BRANCH  14  20
HETATM   20  O3  UNL     1      10.243 -22.236  30.993  1.00  0.00    -0.353 OA
HETATM   21  C25 UNL     1      10.047 -21.140  30.148  1.00  0.00     0.210 C 
ENDBRANCH  14  20
ENDBRANCH   9  10
ENDBRANCH   6   9
ENDBRANCH   2   3
ENDBRANCH   1   2
BRANCH   1  22
HETATM   22  C11 UNL     1      15.163 -19.226  38.646  1.00  0.00     0.103 C 
HETATM   23  N5  UNL     1      16.006 -18.426  38.134  1.00  0.00    -0.254 N 
ATOM     24  H5  UNL     1      15.720 -18.038  37.235  1.00  0.00     0.195 HD
BRANCH  22  25
HETATM   25  N2  UNL     1      15.350 -19.874  39.875  1.00  0.00    -0.321 N 
HETATM   26  C12 UNL     1      15.304 -19.383  41.047  1.00  0.00     0.202 C 
HETATM   27  N3  UNL     1      15.037 -18.013  41.256  1.00  0.00    -0.066 NA
HETATM   28  N4  UNL     1      15.523 -20.208  42.166  1.00  0.00    -0.066 NA
ATOM     29  H2  UNL     1      15.551 -20.873  39.822  1.00  0.00     0.169 HD
ENDBRANCH  22  25
BRANCH  23  30
HETATM   30  O2  UNL     1      17.204 -17.997  38.558  1.00  0.00    -0.267 OA
BRANCH  30  31
HETATM   31  C13 UNL     1      18.369 -18.161  37.803  1.00  0.00     0.294 C 
BRANCH  31  32
HETATM   32  C14 UNL     1      17.906 -18.534  36.434  1.00  0.00    -0.078 C 
HETATM   33  C15 UNL     1      17.539 -18.855  35.332  1.00  0.00    -0.101 C 
BRANCH  33  34
HETATM   34  C16 UNL     1      17.075 -19.261  34.005  1.00  0.00     0.121 C 
BRANCH  34  35
HETATM   35  C17 UNL     1      15.689 -19.798  34.149  1.00  0.00    -0.011 C 
HETATM   36  C18 UNL     1      14.641 -19.074  33.785  1.00  0.00    -0.062 C 
HETATM   37  C19 UNL     1      14.857 -17.709  33.227  1.00  0.00     0.045 C 
BRANCH  36  38
HETATM   38  C20 UNL     1      13.270 -19.625  33.937  1.00  0.00     0.263 C 
BRANCH  38  39
HETATM   39  N6  UNL     1      13.180 -20.913  33.280  1.00  0.00    -0.076 N 
ATOM     40  H63 UNL     1      13.773 -20.963  32.452  1.00  0.00     0.274 HD
ATOM     41  H62 UNL     1      13.624 -21.652  33.825  1.00  0.00     0.274 HD
ATOM     42  H61 UNL     1      12.206 -21.126  33.066  1.00  0.00     0.274 HD
ENDBRANCH  38  39
ENDBRANCH  36  38
ENDBRANCH  34  35
ENDBRANCH  33  34
ENDBRANCH  31  32
ENDBRANCH  30  31
ENDBRANCH  23  30
ENDBRANCH   1  22
TORSDOF 16
ENDMDL
MODEL 3
REMARK VINA RESULT: -7.979852539      0.412      2.148
REMARK  16 active torsions:
REMARK  status: ('A' for Active; 'I' for Inactive)
REMARK    1  A    between atoms: O1_2  and  C2_3 
REMARK    2  A    between atoms: C4_5  and  C5_6 
REMARK    3  A    between atoms: C5_6  and  N1_7 
REMARK    4  A    between atoms: C8_10  and  C9_11 
REMARK    5  A    between atoms: C9_11  and  C10_12 
REMARK    6  A    between atoms: C10_12  and  C11_13 
REMARK    7  A    between atoms: C11_13  and  N2_14 
REMARK    8  A    between atoms: N5_19  and  O2_21 
REMARK    9  A    between atoms: O2_21  and  C13_22 
REMARK   10  A    between atoms: C13_22  and  C14_23 
REMARK   11  A    between atoms: C15_24  and  C16_25 
REMARK   12  A    between atoms: C16_25  and  C17_26 
REMARK   13  A    between atoms: C18_27  and  C20_29 
REMARK   14  A    between atoms: C20_29  and  N6_30 
REMARK   15  A    between atoms: C24_37  and  O3_38 
REMARK   16  A    between atoms: C26_40  and  O4_41 
ROOT
HETATM    1  C10 UNL     1      13.217 -19.167  38.817  1.00  0.00     0.079 C 
ENDROOT
BRANCH   1   2
HETATM    2  C9  UNL     1      13.297 -20.527  38.218  1.00  0.00     0.012 C 
BRANCH   2   3
HETATM    3  C8  UNL     1      13.262 -20.394  36.704  1.00  0.00    -0.011 C 
HETATM    4  C7  UNL     1      12.179 -19.430  36.312  1.00  0.00     0.024 C 
HETATM    5  C6  UNL     1      11.833 -19.456  34.857  1.00  0.00     0.117 C 
HETATM    6  N1  UNL     1      11.570 -20.773  34.386  1.00  0.00    -0.408 N 
HETATM    7  C22 UNL     1      12.597 -21.723  34.668  1.00  0.00     0.117 C 
HETATM    8  C21 UNL     1      12.940 -21.751  36.157  1.00  0.00     0.024 C 
BRANCH   6   9
HETATM    9  C5  UNL     1      10.948 -20.876  33.109  1.00  0.00     0.155 C 
BRANCH   9  10
HETATM   10  C4  UNL     1       9.867 -21.880  33.123  1.00  0.00    -0.035 A 
HETATM   11  C3  UNL     1       9.608 -22.610  31.962  1.00  0.00     0.048 A 
HETATM   12  C2  UNL     1       8.597 -23.547  31.990  1.00  0.00     0.104 A 
HETATM   13  C26 UNL     1       7.865 -23.757  33.131  1.00  0.00     0.135 A 
HETATM   14  C24 UNL     1       8.099 -23.050  34.290  1.00  0.00     0.104 A 
HETATM   15  C23 UNL     1       9.113 -22.113  34.254  1.00  0.00     0.048 A 
BRANCH  12  16
HETATM   16  O1  UNL     1       8.339 -24.281  30.821  1.00  0.00    -0.353 OA
HETATM   17  C1  UNL     1       7.953 -23.655  29.634  1.00  0.00     0.210 C 
ENDBRANCH  12  16
BRANCH  13  18
HETATM   18  O4  UNL     1       6.845 -24.723  33.110  1.00  0.00    -0.351 OA
HETATM   19  C27 UNL     1       5.544 -24.275  32.794  1.00  0.00     0.210 C 
ENDBRANCH  13  18
BRANCH  14  20
HETATM   20  O3  UNL     1       7.325 -23.314  35.394  1.00  0.00    -0.353 OA
HETATM   21  C25 UNL     1       7.764 -23.954  36.557  1.00  0.00     0.210 C 
ENDBRANCH  14  20
ENDBRANCH   9  10
ENDBRANCH   6   9
ENDBRANCH   2   3
ENDBRANCH   1   2
BRANCH   1  22
HETATM   22  C11 UNL     1      14.375 -18.899  39.745  1.00  0.00     0.103 C 
HETATM   23  N5  UNL     1      15.527 -18.815  39.214  1.00  0.00    -0.254 N 
ATOM     24  H5  UNL     1      15.529 -18.941  38.202  1.00  0.00     0.195 HD
BRANCH  22  25
HETATM   25  N2  UNL     1      14.139 -18.758  41.119  1.00  0.00    -0.321 N 
HETATM   26  C12 UNL     1      14.629 -19.430  42.082  1.00  0.00     0.202 C 
HETATM   27  N3  UNL     1      15.541 -20.481  41.850  1.00  0.00    -0.066 NA
HETATM   28  N4  UNL     1      14.263 -19.132  43.408  1.00  0.00    -0.066 NA
ATOM     29  H2  UNL     1      13.487 -18.019  41.383  1.00  0.00     0.169 HD
ENDBRANCH  22  25
BRANCH  23  30
HETATM   30  O2  UNL     1      16.739 -18.590  39.740  1.00  0.00    -0.267 OA
BRANCH  30  31
HETATM   31  C13 UNL     1      17.466 -17.426  39.477  1.00  0.00     0.294 C 
BRANCH  31  32
HETATM   32  C14 UNL     1      17.465 -17.283  37.991  1.00  0.00    -0.078 C 
HETATM   33  C15 UNL     1      17.482 -17.181  36.791  1.00  0.00    -0.101 C 
BRANCH  33  34
HETATM   34  C16 UNL     1      17.498 -17.082  35.331  1.00  0.00     0.121 C 
BRANCH  34  35
HETATM   35  C17 UNL     1      17.096 -18.410  34.779  1.00  0.00    -0.011 C 
HETATM   36  C18 UNL     1      15.885 -18.595  34.274  1.00  0.00    -0.062 C 
HETATM   37  C19 UNL     1      14.919 -17.459  34.261  1.00  0.00     0.045 C 
BRANCH  36  38
HETATM   38  C20 UNL     1      15.503 -19.923  33.729  1.00  0.00     0.263 C 
BRANCH  38  39
HETATM   39  N6  UNL     1      16.171 -20.972  34.472  1.00  0.00    -0.076 N 
ATOM     40  H63 UNL     1      16.677 -20.607  35.278  1.00  0.00     0.274 HD
ATOM     41  H62 UNL     1      15.510 -21.568  34.970  1.00  0.00     0.274 HD
ATOM     42  H61 UNL     1      16.776 -21.506  33.850  1.00  0.00     0.274 HD
ENDBRANCH  38  39
ENDBRANCH  36  38
ENDBRANCH  34  35
ENDBRANCH  33  34
ENDBRANCH  31  32
ENDBRANCH  30  31
ENDBRANCH  23  30
ENDBRANCH   1  22
TORSDOF 16
ENDMDL
MODEL 4
REMARK VINA RESULT: -7.938451548      1.460      2.856
REMARK  16 active torsions:
REMARK  status: ('A' for Active; 'I' for Inactive)
REMARK    1  A    between atoms: O1_2  and  C2_3 
REMARK    2  A    between atoms: C4_5  and  C5_6 
REMARK    3  A    between atoms: C5_6  and  N1_7 
REMARK    4  A    between atoms: C8_10  and  C9_11 
REMARK    5  A    between atoms: C9_11  and  C10_12 
REMARK    6  A    between atoms: C10_12  and  C11_13 
REMARK    7  A    between atoms: C11_13  and  N2_14 
REMARK    8  A    between atoms: N5_19  and  O2_21 
REMARK    9  A    between atoms: O2_21  and  C13_22 
REMARK   10  A    between atoms: C13_22  and  C14_23 
REMARK   11  A    between atoms: C15_24  and  C16_25 
REMARK   12  A    between atoms: C16_25  and  C17_26 
REMARK   13  A    between atoms: C18_27  and  C20_29 
REMARK   14  A    between atoms: C20_29  and  N6_30 
REMARK   15  A    between atoms: C24_37  and  O3_38 
REMARK   16  A    between atoms: C26_40  and  O4_41 
ROOT
HETATM    1  C10 UNL     1      13.984 -19.496  37.764  1.00  0.00     0.079 C 
ENDROOT
BRANCH   1   2
HETATM    2  C9  UNL     1      13.989 -20.921  37.336  1.00  0.00     0.012 C 
BRANCH   2   3
HETATM    3  C8  UNL     1      12.576 -21.469  37.451  1.00  0.00    -0.011 C 
HETATM    4  C7  UNL     1      12.254 -22.283  36.231  1.00  0.00     0.024 C 
HETATM    5  C6  UNL     1      10.802 -22.606  36.075  1.00  0.00     0.117 C 
HETATM    6  N1  UNL     1       9.976 -21.452  36.179  1.00  0.00    -0.408 N 
HETATM    7  C22 UNL     1      10.186 -20.672  37.356  1.00  0.00     0.117 C 
HETATM    8  C21 UNL     1      11.657 -20.288  37.517  1.00  0.00     0.024 C 
BRANCH   6   9
HETATM    9  C5  UNL     1       8.625 -21.599  35.753  1.00  0.00     0.155 C 
BRANCH   9  10
HETATM   10  C4  UNL     1       8.547 -22.322  34.470  1.00  0.00    -0.035 A 
HETATM   11  C3  UNL     1       9.380 -21.928  33.421  1.00  0.00     0.048 A 
HETATM   12  C2  UNL     1       9.299 -22.614  32.228  1.00  0.00     0.104 A 
HETATM   13  C26 UNL     1       8.422 -23.658  32.076  1.00  0.00     0.135 A 
HETATM   14  C24 UNL     1       7.589 -24.067  33.094  1.00  0.00     0.104 A 
HETATM   15  C23 UNL     1       7.675 -23.374  34.286  1.00  0.00     0.048 A 
BRANCH  12  16
HETATM   16  O1  UNL     1      10.138 -22.217  31.175  1.00  0.00    -0.353 OA
HETATM   17  C1  UNL     1       9.849 -21.099  30.390  1.00  0.00     0.210 C 
ENDBRANCH  12  16
BRANCH  13  18
HETATM   18  O4  UNL     1       8.377 -24.327  30.840  1.00  0.00    -0.351 OA
HETATM   19  C27 UNL     1       7.451 -23.849  29.887  1.00  0.00     0.210 C 
ENDBRANCH  13  18
BRANCH  14  20
HETATM   20  O3  UNL     1       6.736 -25.121  32.868  1.00  0.00    -0.353 OA
HETATM   21  C25 UNL     1       6.897 -26.415  33.371  1.00  0.00     0.210 C 
ENDBRANCH  14  20
ENDBRANCH   9  10
ENDBRANCH   6   9
ENDBRANCH   2   3
ENDBRANCH   1   2
BRANCH   1  22
HETATM   22  C11 UNL     1      15.259 -19.124  38.479  1.00  0.00     0.103 C 
HETATM   23  N5  UNL     1      15.994 -18.250  37.922  1.00  0.00    -0.254 N 
ATOM     24  H5  UNL     1      15.625 -17.896  37.040  1.00  0.00     0.195 HD
BRANCH  22  25
HETATM   25  N2  UNL     1      15.572 -19.745  39.695  1.00  0.00    -0.321 N 
HETATM   26  C12 UNL     1      15.499 -19.268  40.873  1.00  0.00     0.202 C 
HETATM   27  N3  UNL     1      15.058 -17.947  41.099  1.00  0.00    -0.066 NA
HETATM   28  N4  UNL     1      15.863 -20.060  41.978  1.00  0.00    -0.066 NA
ATOM     29  H2  UNL     1      15.903 -20.708  39.629  1.00  0.00     0.169 HD
ENDBRANCH  22  25
BRANCH  23  30
HETATM   30  O2  UNL     1      17.166 -17.707  38.282  1.00  0.00    -0.267 OA
BRANCH  30  31
HETATM   31  C13 UNL     1      17.908 -16.890  37.425  1.00  0.00     0.294 C 
BRANCH  31  32
HETATM   32  C14 UNL     1      17.397 -17.185  36.053  1.00  0.00    -0.078 C 
HETATM   33  C15 UNL     1      16.972 -17.438  34.955  1.00  0.00    -0.101 C 
BRANCH  33  34
HETATM   34  C16 UNL     1      16.431 -17.736  33.627  1.00  0.00     0.121 C 
BRANCH  34  35
HETATM   35  C17 UNL     1      14.965 -17.973  33.774  1.00  0.00    -0.011 C 
HETATM   36  C18 UNL     1      14.490 -19.197  33.947  1.00  0.00    -0.062 C 
HETATM   37  C19 UNL     1      15.439 -20.346  33.996  1.00  0.00     0.045 C 
BRANCH  36  38
HETATM   38  C20 UNL     1      13.028 -19.413  34.090  1.00  0.00     0.263 C 
BRANCH  38  39
HETATM   39  N6  UNL     1      12.595 -20.472  33.201  1.00  0.00    -0.076 N 
ATOM     40  H63 UNL     1      13.376 -20.890  32.696  1.00  0.00     0.274 HD
ATOM     41  H62 UNL     1      12.289 -21.300  33.712  1.00  0.00     0.274 HD
ATOM     42  H61 UNL     1      11.874 -20.123  32.571  1.00  0.00     0.274 HD
ENDBRANCH  38  39
ENDBRANCH  36  38
ENDBRANCH  34  35
ENDBRANCH  33  34
ENDBRANCH  31  32
ENDBRANCH  30  31
ENDBRANCH  23  30
ENDBRANCH   1  22
TORSDOF 16
ENDMDL
MODEL 5
REMARK VINA RESULT: -7.802441880      2.294      9.445
REMARK  16 active torsions:
REMARK  status: ('A' for Active; 'I' for Inactive)
REMARK    1  A    between atoms: O1_2  and  C2_3 
REMARK    2  A    between atoms: C4_5  and  C5_6 
REMARK    3  A    between atoms: C5_6  and  N1_7 
REMARK    4  A    between atoms: C8_10  and  C9_11 
REMARK    5  A    between atoms: C9_11  and  C10_12 
REMARK    6  A    between atoms: C10_12  and  C11_13 
REMARK    7  A    between atoms: C11_13  and  N2_14 
REMARK    8  A    between atoms: N5_19  and  O2_21 
REMARK    9  A    between atoms: O2_21  and  C13_22 
REMARK   10  A    between atoms: C13_22  and  C14_23 
REMARK   11  A    between atoms: C15_24  and  C16_25 
REMARK   12  A    between atoms: C16_25  and  C17_26 
REMARK   13  A    between atoms: C18_27  and  C20_29 
REMARK   14  A    between atoms: C20_29  and  N6_30 
REMARK   15  A    between atoms: C24_37  and  O3_38 
REMARK   16  A    between atoms: C26_40  and  O4_41 
ROOT
HETATM    1  C10 UNL     1      10.297 -22.577  36.562  1.00  0.00     0.079 C 
ENDROOT
BRANCH   1   2
HETATM    2  C9  UNL     1      11.476 -21.669  36.570  1.00  0.00     0.012 C 
BRANCH   2   3
HETATM    3  C8  UNL     1      11.482 -20.892  37.877  1.00  0.00    -0.011 C 
HETATM    4  C7  UNL     1      12.326 -19.659  37.721  1.00  0.00     0.024 C 
HETATM    5  C6  UNL     1      12.671 -18.986  39.012  1.00  0.00     0.117 C 
HETATM    6  N1  UNL     1      13.218 -19.890  39.965  1.00  0.00    -0.408 N 
HETATM    7  C22 UNL     1      12.426 -21.051  40.209  1.00  0.00     0.117 C 
HETATM    8  C21 UNL     1      12.096 -21.786  38.910  1.00  0.00     0.024 C 
BRANCH   6   9
HETATM    9  C5  UNL     1      13.850 -19.306  41.101  1.00  0.00     0.155 C 
BRANCH   9  10
HETATM   10  C4  UNL     1      15.129 -18.672  40.732  1.00  0.00    -0.035 A 
HETATM   11  C3  UNL     1      15.459 -17.438  41.296  1.00  0.00     0.048 A 
HETATM   12  C2  UNL     1      16.659 -16.858  40.945  1.00  0.00     0.104 A 
HETATM   13  C26 UNL     1      17.508 -17.479  40.064  1.00  0.00     0.135 A 
HETATM   14  C24 UNL     1      17.208 -18.696  39.493  1.00  0.00     0.104 A 
HETATM   15  C23 UNL     1      16.003 -19.271  39.850  1.00  0.00     0.048 A 
BRANCH  12  16
HETATM   16  O1  UNL     1      16.989 -15.617  41.513  1.00  0.00    -0.353 OA
HETATM   17  C1  UNL     1      17.239 -15.480  42.879  1.00  0.00     0.210 C 
ENDBRANCH  12  16
BRANCH  13  18
HETATM   18  O4  UNL     1      18.721 -16.848  39.738  1.00  0.00    -0.351 OA
HETATM   19  C27 UNL     1      18.720 -16.008  38.603  1.00  0.00     0.210 C 
ENDBRANCH  13  18
BRANCH  14  20
HETATM   20  O3  UNL     1      18.108 -19.257  38.619  1.00  0.00    -0.353 OA
HETATM   21  C25 UNL     1      18.114 -19.071  37.234  1.00  0.00     0.210 C 
ENDBRANCH  14  20
ENDBRANCH   9  10
ENDBRANCH   6   9
ENDBRANCH   2   3
ENDBRANCH   1   2
BRANCH   1  22
HETATM   22  C11 UNL     1       9.558 -22.517  35.248  1.00  0.00     0.103 C 
HETATM   23  N5  UNL     1      10.221 -22.809  34.204  1.00  0.00    -0.254 N 
ATOM     24  H5  UNL     1      11.194 -23.054  34.384  1.00  0.00     0.195 HD
BRANCH  22  25
HETATM   25  N2  UNL     1       8.205 -22.150  35.235  1.00  0.00    -0.321 N 
HETATM   26  C12 UNL     1       7.181 -22.897  35.130  1.00  0.00     0.202 C 
HETATM   27  N3  UNL     1       7.306 -24.296  35.003  1.00  0.00    -0.066 NA
HETATM   28  N4  UNL     1       5.892 -22.330  35.137  1.00  0.00    -0.066 NA
ATOM     29  H2  UNL     1       8.017 -21.151  35.320  1.00  0.00     0.169 HD
ENDBRANCH  22  25
BRANCH  23  30
HETATM   30  O2  UNL     1       9.876 -22.854  32.910  1.00  0.00    -0.267 OA
BRANCH  30  31
HETATM   31  C13 UNL     1      10.295 -21.890  31.989  1.00  0.00     0.294 C 
BRANCH  31  32
HETATM   32  C14 UNL     1      11.164 -20.953  32.761  1.00  0.00    -0.078 C 
HETATM   33  C15 UNL     1      11.870 -20.187  33.366  1.00  0.00    -0.101 C 
BRANCH  33  34
HETATM   34  C16 UNL     1      12.712 -19.236  34.095  1.00  0.00     0.121 C 
BRANCH  34  35
HETATM   35  C17 UNL     1      14.088 -19.809  34.172  1.00  0.00    -0.011 C 
HETATM   36  C18 UNL     1      15.151 -19.048  33.957  1.00  0.00    -0.062 C 
HETATM   37  C19 UNL     1      14.962 -17.605  33.635  1.00  0.00     0.045 C 
BRANCH  36  38
HETATM   38  C20 UNL     1      16.513 -19.636  34.037  1.00  0.00     0.263 C 
BRANCH  38  39
HETATM   39  N6  UNL     1      16.424 -21.045  34.363  1.00  0.00    -0.076 N 
ATOM     40  H63 UNL     1      15.499 -21.426  34.165  1.00  0.00     0.274 HD
ATOM     41  H62 UNL     1      16.963 -21.622  33.717  1.00  0.00     0.274 HD
ATOM     42  H61 UNL     1      16.701 -21.196  35.332  1.00  0.00     0.274 HD
ENDBRANCH  38  39
ENDBRANCH  36  38
ENDBRANCH  34  35
ENDBRANCH  33  34
ENDBRANCH  31  32
ENDBRANCH  30  31
ENDBRANCH  23  30
ENDBRANCH   1  22
TORSDOF 16
ENDMDL
