MODEL 1
REMARK VINA RESULT: -8.848086936      0.000      0.000
REMARK  14 active torsions:
REMARK  status: ('A' for Active; 'I' for Inactive)
REMARK    1  A    between atoms: C5_5  and  N1_6 
REMARK    2  A    between atoms: N1_6  and  C6_8 
REMARK    3  A    between atoms: C7_11  and  N3_12 
REMARK    4  A    between atoms: C10_17  and  N5_18 
REMARK    5  A    between atoms: N5_18  and  C11_20 
REMARK    6  A    between atoms: C11_20  and  C12_21 
REMARK    7  A    between atoms: C12_21  and  C13_22 
REMARK    8  A    between atoms: C13_22  and  N6_23 
REMARK    9  A    between atoms: N6_23  and  C15_25 
REMARK   10  A    between atoms: C15_25  and  C16_26 
REMARK   11  A    between atoms: C16_26  and  C17_27 
REMARK   12  A    between atoms: C17_27  and  N7_28 
REMARK   13  A    between atoms: N7_28  and  C18_29 
REMARK   14  A    between atoms: C18_29  and  C19_30 
ROOT
HETATM    1  N5  UNL     1      11.918 -22.787  33.599  1.00  0.00    -0.225 N 
ATOM      2  H5  UNL     1      12.421 -23.657  33.423  1.00  0.00     0.177 HD
ENDROOT
BRANCH   1   3
HETATM    3  C10 UNL     1      12.423 -21.823  34.362  1.00  0.00     0.707 A 
HETATM    4  N4  UNL     1      13.452 -21.062  33.999  1.00  0.00    -0.021 N 
HETATM    5  C7  UNL     1      13.865 -19.952  34.691  1.00  0.00     0.708 A 
ATOM      6  H4  UNL     1      13.965 -21.319  33.155  1.00  0.00     0.203 HD
HETATM    7  N2  UNL     1      13.180 -19.637  35.788  1.00  0.00    -0.021 N 
HETATM    8  C6  UNL     1      12.119 -20.365  36.225  1.00  0.00     0.711 A 
ATOM      9  H2  UNL     1      13.463 -18.815  36.323  1.00  0.00     0.203 HD
HETATM   10  N9  UNL     1      11.774 -21.437  35.497  1.00  0.00    -0.021 N 
ATOM     11  H9  UNL     1      10.980 -21.996  35.810  1.00  0.00     0.203 HD
BRANCH   5  12
HETATM   12  N3  UNL     1      14.994 -19.217  34.242  1.00  0.00    -0.225 N 
HETATM   13  C8  UNL     1      14.929 -17.805  33.932  1.00  0.00     0.168 C 
HETATM   14  C9  UNL     1      16.256 -19.891  34.108  1.00  0.00     0.168 C 
ENDBRANCH   5  12
BRANCH   8  15
HETATM   15  N1  UNL     1      11.430 -19.950  37.258  1.00  0.00    -0.191 N 
ATOM     16  H1  UNL     1      10.462 -19.643  37.161  1.00  0.00     0.184 HD
BRANCH  15  17
HETATM   17  C5  UNL     1      12.085 -19.944  38.521  1.00  0.00     0.049 A 
HETATM   18  C4  UNL     1      12.197 -21.027  39.338  1.00  0.00     0.030 A 
HETATM   19  C3  UNL     1      12.843 -20.963  40.584  1.00  0.00     0.009 A 
HETATM   20  C2  UNL     1      13.398 -19.793  41.044  1.00  0.00    -0.062 A 
HETATM   21  C1  UNL     1      14.060 -19.682  42.372  1.00  0.00     0.048 C 
HETATM   22  C27 UNL     1      13.282 -18.697  40.210  1.00  0.00     0.009 A 
HETATM   23  C26 UNL     1      12.655 -18.747  38.996  1.00  0.00     0.030 A 
ENDBRANCH  15  17
ENDBRANCH   8  15
ENDBRANCH   1   3
BRANCH   1  24
HETATM   24  C11 UNL     1      10.612 -22.528  33.034  1.00  0.00     0.140 C 
BRANCH  24  25
HETATM   25  C12 UNL     1      10.641 -21.422  31.997  1.00  0.00     0.050 C 
BRANCH  25  26
HETATM   26  C13 UNL     1      10.857 -21.765  30.600  1.00  0.00     0.273 C 
BRANCH  26  27
HETATM   27  N6  UNL     1       9.951 -21.619  29.546  1.00  0.00     0.084 N 
HETATM   28  C14 UNL     1      10.148 -22.514  28.474  1.00  0.00     0.309 C 
BRANCH  27  29
HETATM   29  C15 UNL     1       8.572 -21.717  30.077  1.00  0.00     0.278 C 
BRANCH  29  30
HETATM   30  C16 UNL     1       7.745 -22.479  29.101  1.00  0.00     0.089 C 
BRANCH  30  31
HETATM   31  C17 UNL     1       6.319 -22.734  29.456  1.00  0.00     0.156 C 
BRANCH  31  32
HETATM   32  N7  UNL     1       5.840 -23.338  30.497  1.00  0.00    -0.433 NA
BRANCH  32  33
HETATM   33  C18 UNL     1       5.409 -23.894  31.449  1.00  0.00     0.198 C 
BRANCH  33  34
HETATM   34  C19 UNL     1       6.074 -24.004  32.784  1.00  0.00     0.067 A 
HETATM   35  C20 UNL     1       5.466 -23.495  33.928  1.00  0.00    -0.042 A 
HETATM   36  C21 UNL     1       4.156 -22.823  33.882  1.00  0.00     0.049 C 
HETATM   37  C22 UNL     1       6.149 -23.610  35.130  1.00  0.00     0.032 A 
HETATM   38  C23 UNL     1       7.398 -24.208  35.226  1.00  0.00     0.009 A 
HETATM   39  C24 UNL     1       8.128 -24.319  36.510  1.00  0.00     0.068 C 
HETATM   40  N8  UNL     1       7.945 -24.685  34.102  1.00  0.00    -0.327 N 
HETATM   41  C25 UNL     1       7.304 -24.588  32.915  1.00  0.00     0.258 A 
ATOM     42  H8  UNL     1       8.861 -25.129  34.142  1.00  0.00     0.169 HD
HETATM   43  O1  UNL     1       7.905 -25.071  31.902  1.00  0.00    -0.267 OA
ENDBRANCH  33  34
ENDBRANCH  32  33
ENDBRANCH  31  32
ENDBRANCH  30  31
ENDBRANCH  29  30
ENDBRANCH  27  29
ENDBRANCH  26  27
ENDBRANCH  25  26
ENDBRANCH  24  25
ENDBRANCH   1  24
TORSDOF 14
ENDMDL
MODEL 2
REMARK VINA RESULT: -8.625588173      1.182      1.398
REMARK  14 active torsions:
REMARK  status: ('A' for Active; 'I' for Inactive)
REMARK    1  A    between atoms: C5_5  and  N1_6 
REMARK    2  A    between atoms: N1_6  and  C6_8 
REMARK    3  A    between atoms: C7_11  and  N3_12 
REMARK    4  A    between atoms: C10_17  and  N5_18 
REMARK    5  A    between atoms: N5_18  and  C11_20 
REMARK    6  A    between atoms: C11_20  and  C12_21 
REMARK    7  A    between atoms: C12_21  and  C13_22 
REMARK    8  A    between atoms: C13_22  and  N6_23 
REMARK    9  A    between atoms: N6_23  and  C15_25 
REMARK   10  A    between atoms: C15_25  and  C16_26 
REMARK   11  A    between atoms: C16_26  and  C17_27 
REMARK   12  A    between atoms: C17_27  and  N7_28 
REMARK   13  A    between atoms: N7_28  and  C18_29 
REMARK   14  A    between atoms: C18_29  and  C19_30 
ROOT
HETATM    1  N5  UNL     1      11.163 -22.114  32.661  1.00  0.00    -0.225 N 
ATOM      2  H5  UNL     1      10.608 -22.918  32.955  1.00  0.00     0.177 HD
ENDROOT
BRANCH   1   3
HETATM    3  C10 UNL     1      11.862 -21.385  33.525  1.00  0.00     0.707 A 
HETATM    4  N4  UNL     1      13.063 -20.880  33.258  1.00  0.00    -0.021 N 
HETATM    5  C7  UNL     1      13.713 -19.982  34.065  1.00  0.00     0.708 A 
ATOM      6  H4  UNL     1      13.529 -21.179  32.401  1.00  0.00     0.203 HD
HETATM    7  N2  UNL     1      13.084 -19.607  35.177  1.00  0.00    -0.021 N 
HETATM    8  C6  UNL     1      11.857 -20.079  35.521  1.00  0.00     0.711 A 
ATOM      9  H2  UNL     1      13.542 -18.938  35.797  1.00  0.00     0.203 HD
HETATM   10  N9  UNL     1      11.284 -20.955  34.683  1.00  0.00    -0.021 N 
ATOM     11  H9  UNL     1      10.363 -21.321  34.925  1.00  0.00     0.203 HD
BRANCH   5  12
HETATM   12  N3  UNL     1      15.007 -19.519  33.711  1.00  0.00    -0.225 N 
HETATM   13  C8  UNL     1      15.218 -18.316  32.935  1.00  0.00     0.168 C 
HETATM   14  C9  UNL     1      16.157 -20.259  34.155  1.00  0.00     0.168 C 
ENDBRANCH   5  12
BRANCH   8  15
HETATM   15  N1  UNL     1      11.252 -19.601  36.579  1.00  0.00    -0.191 N 
ATOM     16  H1  UNL     1      10.379 -19.081  36.501  1.00  0.00     0.184 HD
BRANCH  15  17
HETATM   17  C5  UNL     1      11.863 -19.836  37.843  1.00  0.00     0.049 A 
HETATM   18  C4  UNL     1      11.770 -21.001  38.541  1.00  0.00     0.030 A 
HETATM   19  C3  UNL     1      12.382 -21.175  39.793  1.00  0.00     0.009 A 
HETATM   20  C2  UNL     1      13.110 -20.170  40.382  1.00  0.00    -0.062 A 
HETATM   21  C1  UNL     1      13.743 -20.309  41.721  1.00  0.00     0.048 C 
HETATM   22  C27 UNL     1      13.202 -18.990  39.668  1.00  0.00     0.009 A 
HETATM   23  C26 UNL     1      12.610 -18.807  38.449  1.00  0.00     0.030 A 
ENDBRANCH  15  17
ENDBRANCH   8  15
ENDBRANCH   1   3
BRANCH   1  24
HETATM   24  C11 UNL     1      11.236 -21.697  31.277  1.00  0.00     0.140 C 
BRANCH  24  25
HETATM   25  C12 UNL     1       9.938 -21.084  30.789  1.00  0.00     0.050 C 
BRANCH  25  26
HETATM   26  C13 UNL     1       8.879 -21.957  30.306  1.00  0.00     0.273 C 
BRANCH  26  27
HETATM   27  N6  UNL     1       8.534 -22.205  28.975  1.00  0.00     0.084 N 
HETATM   28  C14 UNL     1       9.617 -22.563  28.144  1.00  0.00     0.309 C 
BRANCH  27  29
HETATM   29  C15 UNL     1       7.468 -23.233  28.935  1.00  0.00     0.278 C 
BRANCH  29  30
HETATM   30  C16 UNL     1       6.282 -22.709  29.666  1.00  0.00     0.089 C 
BRANCH  30  31
HETATM   31  C17 UNL     1       5.491 -23.677  30.481  1.00  0.00     0.156 C 
BRANCH  31  32
HETATM   32  N7  UNL     1       5.754 -24.148  31.658  1.00  0.00    -0.433 NA
BRANCH  32  33
HETATM   33  C18 UNL     1       6.001 -24.575  32.735  1.00  0.00     0.198 C 
BRANCH  33  34
HETATM   34  C19 UNL     1       6.515 -23.790  33.899  1.00  0.00     0.067 A 
HETATM   35  C20 UNL     1       5.682 -23.472  34.968  1.00  0.00    -0.042 A 
HETATM   36  C21 UNL     1       4.267 -23.881  35.003  1.00  0.00     0.049 C 
HETATM   37  C22 UNL     1       6.217 -22.722  36.005  1.00  0.00     0.032 A 
HETATM   38  C23 UNL     1       7.535 -22.286  36.009  1.00  0.00     0.009 A 
HETATM   39  C24 UNL     1       8.098 -21.475  37.114  1.00  0.00     0.068 C 
HETATM   40  N8  UNL     1       8.300 -22.615  34.963  1.00  0.00    -0.327 N 
HETATM   41  C25 UNL     1       7.808 -23.346  33.937  1.00  0.00     0.258 A 
ATOM     42  H8  UNL     1       9.272 -22.310  34.939  1.00  0.00     0.169 HD
HETATM   43  O1  UNL     1       8.613 -23.609  32.987  1.00  0.00    -0.267 OA
ENDBRANCH  33  34
ENDBRANCH  32  33
ENDBRANCH  31  32
ENDBRANCH  30  31
ENDBRANCH  29  30
ENDBRANCH  27  29
ENDBRANCH  26  27
ENDBRANCH  25  26
ENDBRANCH  24  25
ENDBRANCH   1  24
TORSDOF 14
ENDMDL
MODEL 3
REMARK VINA RESULT: -8.585635732      3.451      6.659
REMARK  14 active torsions:
REMARK  status: ('A' for Active; 'I' for Inactive)
REMARK    1  A    between atoms: C5_5  and  N1_6 
REMARK    2  A    between atoms: N1_6  and  C6_8 
REMARK    3  A    between atoms: C7_11  and  N3_12 
REMARK    4  A    between atoms: C10_17  and  N5_18 
REMARK    5  A    between atoms: N5_18  and  C11_20 
REMARK    6  A    between atoms: C11_20  and  C12_21 
REMARK    7  A    between atoms: C12_21  and  C13_22 
REMARK    8  A    between atoms: C13_22  and  N6_23 
REMARK    9  A    between atoms: N6_23  and  C15_25 
REMARK   10  A    between atoms: C15_25  and  C16_26 
REMARK   11  A    between atoms: C16_26  and  C17_27 
REMARK   12  A    between atoms: C17_27  and  N7_28 
REMARK   13  A    between atoms: N7_28  and  C18_29 
REMARK   14  A    between atoms: C18_29  and  C19_30 
ROOT
HETATM    1  N5  UNL     1      17.933 -19.411  38.474  1.00  0.00    -0.225 N 
ATOM      2  H5  UNL     1      17.991 -20.428  38.524  1.00  0.00     0.177 HD
ENDROOT
BRANCH   1   3
HETATM    3  C10 UNL     1      17.352 -18.689  39.427  1.00  0.00     0.707 A 
HETATM    4  N4  UNL     1      17.918 -17.626  39.991  1.00  0.00    -0.021 N 
HETATM    5  C7  UNL     1      17.263 -16.771  40.840  1.00  0.00     0.708 A 
ATOM      6  H4  UNL     1      18.898 -17.437  39.782  1.00  0.00     0.203 HD
HETATM    7  N2  UNL     1      15.985 -17.040  41.098  1.00  0.00    -0.021 N 
HETATM    8  C6  UNL     1      15.337 -18.106  40.561  1.00  0.00     0.711 A 
ATOM      9  H2  UNL     1      15.471 -16.419  41.724  1.00  0.00     0.203 HD
HETATM   10  N9  UNL     1      16.042 -18.900  39.742  1.00  0.00    -0.021 N 
ATOM     11  H9  UNL     1      15.572 -19.706  39.330  1.00  0.00     0.203 HD
BRANCH   5  12
HETATM   12  N3  UNL     1      17.959 -15.677  41.418  1.00  0.00    -0.225 N 
HETATM   13  C8  UNL     1      17.402 -14.880  42.491  1.00  0.00     0.168 C 
HETATM   14  C9  UNL     1      19.275 -15.355  40.938  1.00  0.00     0.168 C 
ENDBRANCH   5  12
BRANCH   8  15
HETATM   15  N1  UNL     1      14.056 -18.263  40.781  1.00  0.00    -0.191 N 
ATOM     16  H1  UNL     1      13.592 -17.802  41.563  1.00  0.00     0.184 HD
BRANCH  15  17
HETATM   17  C5  UNL     1      13.337 -19.103  39.884  1.00  0.00     0.049 A 
HETATM   18  C4  UNL     1      12.961 -18.746  38.625  1.00  0.00     0.030 A 
HETATM   19  C3  UNL     1      12.239 -19.610  37.786  1.00  0.00     0.009 A 
HETATM   20  C2  UNL     1      11.872 -20.869  38.197  1.00  0.00    -0.062 A 
HETATM   21  C1  UNL     1      11.078 -21.796  37.346  1.00  0.00     0.048 C 
HETATM   22  C27 UNL     1      12.257 -21.225  39.475  1.00  0.00     0.009 A 
HETATM   23  C26 UNL     1      12.958 -20.394  40.302  1.00  0.00     0.030 A 
ENDBRANCH  15  17
ENDBRANCH   8  15
ENDBRANCH   1   3
BRANCH   1  24
HETATM   24  C11 UNL     1      18.478 -18.666  37.359  1.00  0.00     0.140 C 
BRANCH  24  25
HETATM   25  C12 UNL     1      17.574 -18.704  36.142  1.00  0.00     0.050 C 
BRANCH  25  26
HETATM   26  C13 UNL     1      16.343 -17.930  36.149  1.00  0.00     0.273 C 
BRANCH  26  27
HETATM   27  N6  UNL     1      15.140 -18.256  35.517  1.00  0.00     0.084 N 
HETATM   28  C14 UNL     1      14.962 -17.659  34.250  1.00  0.00     0.309 C 
BRANCH  27  29
HETATM   29  C15 UNL     1      15.020 -19.730  35.434  1.00  0.00     0.278 C 
BRANCH  29  30
HETATM   30  C16 UNL     1      14.306 -20.074  34.174  1.00  0.00     0.089 C 
BRANCH  30  31
HETATM   31  C17 UNL     1      13.019 -20.819  34.293  1.00  0.00     0.156 C 
BRANCH  31  32
HETATM   32  N7  UNL     1      11.922 -20.648  33.626  1.00  0.00    -0.433 NA
BRANCH  32  33
HETATM   33  C18 UNL     1      10.917 -20.499  33.018  1.00  0.00     0.198 C 
BRANCH  33  34
HETATM   34  C19 UNL     1       9.946 -21.572  32.640  1.00  0.00     0.067 A 
HETATM   35  C20 UNL     1       9.925 -22.092  31.350  1.00  0.00    -0.042 A 
HETATM   36  C21 UNL     1      10.840 -21.612  30.300  1.00  0.00     0.049 C 
HETATM   37  C22 UNL     1       8.984 -23.069  31.060  1.00  0.00     0.032 A 
HETATM   38  C23 UNL     1       8.078 -23.536  32.002  1.00  0.00     0.009 A 
HETATM   39  C24 UNL     1       7.067 -24.572  31.686  1.00  0.00     0.068 C 
HETATM   40  N8  UNL     1       8.134 -23.010  33.231  1.00  0.00    -0.327 N 
HETATM   41  C25 UNL     1       9.041 -22.057  33.544  1.00  0.00     0.258 A 
ATOM     42  H8  UNL     1       7.482 -23.334  33.944  1.00  0.00     0.169 HD
HETATM   43  O1  UNL     1       9.016 -21.617  34.739  1.00  0.00    -0.267 OA
ENDBRANCH  33  34
ENDBRANCH  32  33
ENDBRANCH  31  32
ENDBRANCH  30  31
ENDBRANCH  29  30
ENDBRANCH  27  29
ENDBRANCH  26  27
ENDBRANCH  25  26
ENDBRANCH  24  25
ENDBRANCH   1  24
TORSDOF 14
ENDMDL
MODEL 4
REMARK VINA RESULT: -8.582436688      2.627      3.841
REMARK  14 active torsions:
REMARK  status: ('A' for Active; 'I' for Inactive)
REMARK    1  A    between atoms: C5_5  and  N1_6 
REMARK    2  A    between atoms: N1_6  and  C6_8 
REMARK    3  A    between atoms: C7_11  and  N3_12 
REMARK    4  A    between atoms: C10_17  and  N5_18 
REMARK    5  A    between atoms: N5_18  and  C11_20 
REMARK    6  A    between atoms: C11_20  and  C12_21 
REMARK    7  A    between atoms: C12_21  and  C13_22 
REMARK    8  A    between atoms: C13_22  and  N6_23 
REMARK    9  A    between atoms: N6_23  and  C15_25 
REMARK   10  A    between atoms: C15_25  and  C16_26 
REMARK   11  A    between atoms: C16_26  and  C17_27 
REMARK   12  A    between atoms: C17_27  and  N7_28 
REMARK   13  A    between atoms: N7_28  and  C18_29 
REMARK   14  A    between atoms: C18_29  and  C19_30 
ROOT
HETATM    1  N5  UNL     1      11.659 -21.587  32.038  1.00  0.00    -0.225 N 
ATOM      2  H5  UNL     1      12.188 -21.635  31.167  1.00  0.00     0.177 HD
ENDROOT
BRANCH   1   3
HETATM    3  C10 UNL     1      12.256 -21.523  33.224  1.00  0.00     0.707 A 
HETATM    4  N4  UNL     1      13.330 -20.777  33.466  1.00  0.00    -0.021 N 
HETATM    5  C7  UNL     1      13.845 -20.561  34.719  1.00  0.00     0.708 A 
ATOM      6  H4  UNL     1      13.799 -20.339  32.673  1.00  0.00     0.203 HD
HETATM    7  N2  UNL     1      13.215 -21.142  35.738  1.00  0.00    -0.021 N 
HETATM    8  C6  UNL     1      12.113 -21.920  35.571  1.00  0.00     0.711 A 
ATOM      9  H2  UNL     1      13.574 -20.998  36.682  1.00  0.00     0.203 HD
HETATM   10  N9  UNL     1      11.668 -22.087  34.317  1.00  0.00    -0.021 N 
ATOM     11  H9  UNL     1      10.843 -22.668  34.173  1.00  0.00     0.203 HD
BRANCH   5  12
HETATM   12  N3  UNL     1      15.014 -19.771  34.878  1.00  0.00    -0.225 N 
HETATM   13  C8  UNL     1      16.247 -20.055  34.174  1.00  0.00     0.168 C 
HETATM   14  C9  UNL     1      14.973 -18.633  35.755  1.00  0.00     0.168 C 
ENDBRANCH   5  12
BRANCH   8  15
HETATM   15  N1  UNL     1      11.486 -22.387  36.621  1.00  0.00    -0.191 N 
ATOM     16  H1  UNL     1      11.989 -22.637  37.472  1.00  0.00     0.184 HD
BRANCH  15  17
HETATM   17  C5  UNL     1      10.073 -22.532  36.527  1.00  0.00     0.049 A 
HETATM   18  C4  UNL     1       9.179 -21.525  36.728  1.00  0.00     0.030 A 
HETATM   19  C3  UNL     1       7.791 -21.727  36.637  1.00  0.00     0.009 A 
HETATM   20  C2  UNL     1       7.263 -22.960  36.339  1.00  0.00    -0.062 A 
HETATM   21  C1  UNL     1       5.799 -23.216  36.267  1.00  0.00     0.048 C 
HETATM   22  C27 UNL     1       8.177 -23.977  36.135  1.00  0.00     0.009 A 
HETATM   23  C26 UNL     1       9.529 -23.795  36.222  1.00  0.00     0.030 A 
ENDBRANCH  15  17
ENDBRANCH   8  15
ENDBRANCH   1   3
BRANCH   1  24
HETATM   24  C11 UNL     1      10.212 -21.584  32.058  1.00  0.00     0.140 C 
BRANCH  24  25
HETATM   25  C12 UNL     1       9.618 -21.023  30.781  1.00  0.00     0.050 C 
BRANCH  25  26
HETATM   26  C13 UNL     1       8.575 -21.770  30.095  1.00  0.00     0.273 C 
BRANCH  26  27
HETATM   27  N6  UNL     1       8.656 -22.366  28.834  1.00  0.00     0.084 N 
HETATM   28  C14 UNL     1       9.970 -22.610  28.383  1.00  0.00     0.309 C 
BRANCH  27  29
HETATM   29  C15 UNL     1       7.852 -23.610  28.835  1.00  0.00     0.278 C 
BRANCH  29  30
HETATM   30  C16 UNL     1       6.477 -23.282  28.368  1.00  0.00     0.089 C 
BRANCH  30  31
HETATM   31  C17 UNL     1       5.341 -23.625  29.273  1.00  0.00     0.156 C 
BRANCH  31  32
HETATM   32  N7  UNL     1       5.262 -23.490  30.558  1.00  0.00    -0.433 NA
BRANCH  32  33
HETATM   33  C18 UNL     1       5.197 -23.367  31.734  1.00  0.00     0.198 C 
BRANCH  33  34
HETATM   34  C19 UNL     1       5.266 -24.469  32.742  1.00  0.00     0.067 A 
HETATM   35  C20 UNL     1       6.459 -25.145  32.980  1.00  0.00    -0.042 A 
HETATM   36  C21 UNL     1       7.698 -24.819  32.253  1.00  0.00     0.049 C 
HETATM   37  C22 UNL     1       6.447 -26.173  33.911  1.00  0.00     0.032 A 
HETATM   38  C23 UNL     1       5.301 -26.541  34.603  1.00  0.00     0.009 A 
HETATM   39  C24 UNL     1       5.291 -27.647  35.589  1.00  0.00     0.068 C 
HETATM   40  N8  UNL     1       4.177 -25.864  34.346  1.00  0.00    -0.327 N 
HETATM   41  C25 UNL     1       4.157 -24.857  33.443  1.00  0.00     0.258 A 
ATOM     42  H8  UNL     1       3.320 -26.112  34.839  1.00  0.00     0.169 HD
HETATM   43  O1  UNL     1       3.039 -24.272  33.266  1.00  0.00    -0.267 OA
ENDBRANCH  33  34
ENDBRANCH  32  33
ENDBRANCH  31  32
ENDBRANCH  30  31
ENDBRANCH  29  30
ENDBRANCH  27  29
ENDBRANCH  26  27
ENDBRANCH  25  26
ENDBRANCH  24  25
ENDBRANCH   1  24
TORSDOF 14
ENDMDL
MODEL 5
REMARK VINA RESULT: -8.543824426      1.126      3.569
REMARK  14 active torsions:
REMARK  status: ('A' for Active; 'I' for Inactive)
REMARK    1  A    between atoms: C5_5  and  N1_6 
REMARK    2  A    between atoms: N1_6  and  C6_8 
REMARK    3  A    between atoms: C7_11  and  N3_12 
REMARK    4  A    between atoms: C10_17  and  N5_18 
REMARK    5  A    between atoms: N5_18  and  C11_20 
REMARK    6  A    between atoms: C11_20  and  C12_21 
REMARK    7  A    between atoms: C12_21  and  C13_22 
REMARK    8  A    between atoms: C13_22  and  N6_23 
REMARK    9  A    between atoms: N6_23  and  C15_25 
REMARK   10  A    between atoms: C15_25  and  C16_26 
REMARK   11  A    between atoms: C16_26  and  C17_27 
REMARK   12  A    between atoms: C17_27  and  N7_28 
REMARK   13  A    between atoms: N7_28  and  C18_29 
REMARK   14  A    between atoms: C18_29  and  C19_30 
ROOT
HETATM    1  N5  UNL     1      11.990 -22.848  34.451  1.00  0.00    -0.225 N 
ATOM      2  H5  UNL     1      12.110 -23.797  34.804  1.00  0.00     0.177 HD
ENDROOT
BRANCH   1   3
HETATM    3  C10 UNL     1      12.554 -21.799  35.042  1.00  0.00     0.707 A 
HETATM    4  N4  UNL     1      13.551 -21.101  34.504  1.00  0.00    -0.021 N 
HETATM    5  C7  UNL     1      14.018 -19.917  35.015  1.00  0.00     0.708 A 
ATOM      6  H4  UNL     1      13.994 -21.469  33.663  1.00  0.00     0.203 HD
HETATM    7  N2  UNL     1      13.423 -19.458  36.113  1.00  0.00    -0.021 N 
HETATM    8  C6  UNL     1      12.400 -20.113  36.722  1.00  0.00     0.711 A 
ATOM      9  H2  UNL     1      13.747 -18.578  36.515  1.00  0.00     0.203 HD
HETATM   10  N9  UNL     1      11.998 -21.266  36.166  1.00  0.00    -0.021 N 
ATOM     11  H9  UNL     1      11.232 -21.773  36.611  1.00  0.00     0.203 HD
BRANCH   5  12
HETATM   12  N3  UNL     1      15.107 -19.256  34.388  1.00  0.00    -0.225 N 
HETATM   13  C8  UNL     1      16.378 -19.906  34.147  1.00  0.00     0.168 C 
HETATM   14  C9  UNL     1      14.940 -17.895  33.955  1.00  0.00     0.168 C 
ENDBRANCH   5  12
BRANCH   8  15
HETATM   15  N1  UNL     1      11.796 -19.564  37.745  1.00  0.00    -0.191 N 
ATOM     16  H1  UNL     1      10.891 -19.104  37.642  1.00  0.00     0.184 HD
BRANCH  15  17
HETATM   17  C5  UNL     1      12.451 -19.633  39.006  1.00  0.00     0.049 A 
HETATM   18  C4  UNL     1      12.568 -20.764  39.755  1.00  0.00     0.030 A 
HETATM   19  C3  UNL     1      13.214 -20.774  41.002  1.00  0.00     0.009 A 
HETATM   20  C2  UNL     1      13.765 -19.633  41.533  1.00  0.00    -0.062 A 
HETATM   21  C1  UNL     1      14.427 -19.601  42.866  1.00  0.00     0.048 C 
HETATM   22  C27 UNL     1      13.645 -18.488  40.768  1.00  0.00     0.009 A 
HETATM   23  C26 UNL     1      13.017 -18.465  39.554  1.00  0.00     0.030 A 
ENDBRANCH  15  17
ENDBRANCH   8  15
ENDBRANCH   1   3
BRANCH   1  24
HETATM   24  C11 UNL     1      11.195 -22.560  33.276  1.00  0.00     0.140 C 
BRANCH  24  25
HETATM   25  C12 UNL     1       9.760 -22.214  33.621  1.00  0.00     0.050 C 
BRANCH  25  26
HETATM   26  C13 UNL     1       9.149 -22.813  34.797  1.00  0.00     0.273 C 
BRANCH  26  27
HETATM   27  N6  UNL     1       7.891 -23.416  34.878  1.00  0.00     0.084 N 
HETATM   28  C14 UNL     1       7.795 -24.449  35.834  1.00  0.00     0.309 C 
BRANCH  27  29
HETATM   29  C15 UNL     1       6.869 -22.371  35.117  1.00  0.00     0.278 C 
BRANCH  29  30
HETATM   30  C16 UNL     1       5.531 -23.022  35.158  1.00  0.00     0.089 C 
BRANCH  30  31
HETATM   31  C17 UNL     1       4.768 -23.112  33.879  1.00  0.00     0.156 C 
BRANCH  31  32
HETATM   32  N7  UNL     1       5.093 -23.723  32.785  1.00  0.00    -0.433 NA
BRANCH  32  33
HETATM   33  C18 UNL     1       5.392 -24.288  31.788  1.00  0.00     0.198 C 
BRANCH  33  34
HETATM   34  C19 UNL     1       6.383 -23.819  30.771  1.00  0.00     0.067 A 
HETATM   35  C20 UNL     1       5.973 -23.078  29.666  1.00  0.00    -0.042 A 
HETATM   36  C21 UNL     1       4.560 -22.729  29.441  1.00  0.00     0.049 C 
HETATM   37  C22 UNL     1       6.941 -22.694  28.749  1.00  0.00     0.032 A 
HETATM   38  C23 UNL     1       8.282 -23.021  28.897  1.00  0.00     0.009 A 
HETATM   39  C24 UNL     1       9.311 -22.618  27.910  1.00  0.00     0.068 C 
HETATM   40  N8  UNL     1       8.632 -23.732  29.974  1.00  0.00    -0.327 N 
HETATM   41  C25 UNL     1       7.711 -24.121  30.886  1.00  0.00     0.258 A 
ATOM     42  H8  UNL     1       9.609 -23.987  30.110  1.00  0.00     0.169 HD
HETATM   43  O1  UNL     1       8.141 -24.796  31.877  1.00  0.00    -0.267 OA
ENDBRANCH  33  34
ENDBRANCH  32  33
ENDBRANCH  31  32
ENDBRANCH  30  31
ENDBRANCH  29  30
ENDBRANCH  27  29
ENDBRANCH  26  27
ENDBRANCH  25  26
ENDBRANCH  24  25
ENDBRANCH   1  24
TORSDOF 14
ENDMDL
