MODEL 1
REMARK VINA RESULT: -7.464183574      0.000      0.000
REMARK  4 active torsions:
REMARK  status: ('A' for Active; 'I' for Inactive)
REMARK    1  A    between atoms: C6_6  and  C7_7 
REMARK    2  A    between atoms: C7_7  and  N1_8 
REMARK    3  A    between atoms: N1_8  and  C8_10 
REMARK    4  A    between atoms: C10_16  and  C11_17 
ROOT
HETATM    1  C8  UNL     1      10.776  -1.814  55.254  1.00  0.00     0.147 A 
HETATM    2  N2  UNL     1       9.842  -1.554  56.178  1.00  0.00    -0.283 N 
ATOM      3  H2  UNL     1       9.308  -0.686  56.220  1.00  0.00     0.188 HD
HETATM    4  N3  UNL     1       9.695  -2.558  57.030  1.00  0.00    -0.294 N 
ATOM      5  H3  UNL     1       9.050  -2.600  57.819  1.00  0.00     0.187 HD
HETATM    6  C9  UNL     1      10.559  -3.508  56.652  1.00  0.00     0.113 A 
HETATM    7  C10 UNL     1      11.022  -4.779  56.958  1.00  0.00     0.114 A 
HETATM    8  O1  UNL     1      11.951  -5.062  56.049  1.00  0.00    -0.239 OA
HETATM    9  N4  UNL     1      12.093  -4.082  55.221  1.00  0.00    -0.255 N 
ATOM     10  H4  UNL     1      12.745  -4.066  54.437  1.00  0.00     0.195 HD
HETATM   11  C15 UNL     1      11.264  -3.099  55.543  1.00  0.00     0.130 A 
ENDROOT
BRANCH   1  12
HETATM   12  N1  UNL     1      11.215  -1.055  54.285  1.00  0.00    -0.369 N 
ATOM     13  H1  UNL     1      10.636  -0.794  53.486  1.00  0.00     0.161 HD
BRANCH  12  14
HETATM   14  C7  UNL     1      12.604  -0.608  54.434  1.00  0.00     0.160 C 
BRANCH  14  15
HETATM   15  C6  UNL     1      13.413  -0.940  53.240  1.00  0.00    -0.034 A 
HETATM   16  C4  UNL     1      14.735  -1.299  53.323  1.00  0.00    -0.054 A 
HETATM   17  C3  UNL     1      15.500  -1.554  52.209  1.00  0.00     0.014 A 
HETATM   18  C5  UNL     1      15.377  -1.452  54.665  1.00  0.00     0.049 C 
HETATM   19  C2  UNL     1      14.915  -1.443  50.959  1.00  0.00    -0.056 A 
HETATM   20  C1  UNL     1      15.677  -1.713  49.731  1.00  0.00     0.049 C 
HETATM   21  C17 UNL     1      13.575  -1.083  50.827  1.00  0.00    -0.056 A 
HETATM   22  C16 UNL     1      12.833  -0.833  51.961  1.00  0.00     0.016 A 
HETATM   23  C18 UNL     1      12.971  -0.937  49.482  1.00  0.00     0.049 C 
ENDBRANCH  14  15
ENDBRANCH  12  14
ENDBRANCH   1  12
BRANCH   7  24
HETATM   24  C11 UNL     1      10.606  -5.684  58.051  1.00  0.00     0.003 C 
HETATM   25  C12 UNL     1       9.120  -5.970  57.943  1.00  0.00     0.021 C 
HETATM   26  C13 UNL     1      11.414  -6.964  57.926  1.00  0.00     0.021 C 
HETATM   27  C14 UNL     1      10.896  -5.095  59.414  1.00  0.00     0.021 C 
ENDBRANCH   7  24
TORSDOF 4
ENDMDL
MODEL 2
REMARK VINA RESULT: -7.462508089      5.674      8.811
REMARK  4 active torsions:
REMARK  status: ('A' for Active; 'I' for Inactive)
REMARK    1  A    between atoms: C6_6  and  C7_7 
REMARK    2  A    between atoms: C7_7  and  N1_8 
REMARK    3  A    between atoms: N1_8  and  C8_10 
REMARK    4  A    between atoms: C10_16  and  C11_17 
ROOT
HETATM    1  C8  UNL     1      17.252  -4.145  50.381  1.00  0.00     0.147 A 
HETATM    2  N2  UNL     1      17.565  -3.475  49.264  1.00  0.00    -0.283 N 
ATOM      3  H2  UNL     1      18.336  -3.727  48.646  1.00  0.00     0.188 HD
HETATM    4  N3  UNL     1      16.754  -2.448  49.059  1.00  0.00    -0.294 N 
ATOM      5  H3  UNL     1      16.789  -1.789  48.281  1.00  0.00     0.187 HD
HETATM    6  C9  UNL     1      15.880  -2.443  50.072  1.00  0.00     0.113 A 
HETATM    7  C10 UNL     1      14.783  -1.775  50.595  1.00  0.00     0.114 A 
HETATM    8  O1  UNL     1      14.450  -2.426  51.706  1.00  0.00    -0.239 OA
HETATM    9  N4  UNL     1      15.242  -3.425  51.904  1.00  0.00    -0.255 N 
ATOM     10  H4  UNL     1      15.184  -4.073  52.690  1.00  0.00     0.195 HD
HETATM   11  C15 UNL     1      16.142  -3.486  50.933  1.00  0.00     0.130 A 
ENDROOT
BRANCH   1  12
HETATM   12  N1  UNL     1      17.843  -5.179  50.919  1.00  0.00    -0.369 N 
ATOM     13  H1  UNL     1      18.477  -5.783  50.396  1.00  0.00     0.161 HD
BRANCH  12  14
HETATM   14  C7  UNL     1      17.522  -5.404  52.332  1.00  0.00     0.160 C 
BRANCH  14  15
HETATM   15  C6  UNL     1      17.386  -6.846  52.636  1.00  0.00    -0.034 A 
HETATM   16  C4  UNL     1      16.165  -7.457  52.773  1.00  0.00    -0.054 A 
HETATM   17  C3  UNL     1      16.040  -8.785  53.109  1.00  0.00     0.014 A 
HETATM   18  C5  UNL     1      14.914  -6.675  52.524  1.00  0.00     0.049 C 
HETATM   19  C2  UNL     1      17.188  -9.531  53.317  1.00  0.00    -0.056 A 
HETATM   20  C1  UNL     1      17.119 -10.957  53.667  1.00  0.00     0.049 C 
HETATM   21  C17 UNL     1      18.449  -8.953  53.186  1.00  0.00    -0.056 A 
HETATM   22  C16 UNL     1      18.544  -7.619  52.850  1.00  0.00     0.016 A 
HETATM   23  C18 UNL     1      19.668  -9.754  53.443  1.00  0.00     0.049 C 
ENDBRANCH  14  15
ENDBRANCH  12  14
ENDBRANCH   1  12
BRANCH   7  24
HETATM   24  C11 UNL     1      14.081  -0.584  50.070  1.00  0.00     0.003 C 
HETATM   25  C12 UNL     1      13.430  -0.916  48.740  1.00  0.00     0.021 C 
HETATM   26  C13 UNL     1      13.038  -0.172  51.095  1.00  0.00     0.021 C 
HETATM   27  C14 UNL     1      15.019   0.587  49.881  1.00  0.00     0.021 C 
ENDBRANCH   7  24
TORSDOF 4
ENDMDL
MODEL 3
REMARK VINA RESULT: -7.452147551      2.417      7.629
REMARK  4 active torsions:
REMARK  status: ('A' for Active; 'I' for Inactive)
REMARK    1  A    between atoms: C6_6  and  C7_7 
REMARK    2  A    between atoms: C7_7  and  N1_8 
REMARK    3  A    between atoms: N1_8  and  C8_10 
REMARK    4  A    between atoms: C10_16  and  C11_17 
ROOT
HETATM    1  C8  UNL     1      13.390  -2.785  53.886  1.00  0.00     0.147 A 
HETATM    2  N2  UNL     1      12.748  -3.215  52.792  1.00  0.00    -0.283 N 
ATOM      3  H2  UNL     1      11.892  -3.769  52.813  1.00  0.00     0.188 HD
HETATM    4  N3  UNL     1      13.358  -2.836  51.678  1.00  0.00    -0.294 N 
ATOM      5  H3  UNL     1      13.066  -3.039  50.722  1.00  0.00     0.187 HD
HETATM    6  C9  UNL     1      14.434  -2.134  52.053  1.00  0.00     0.113 A 
HETATM    7  C10 UNL     1      15.527  -1.427  51.573  1.00  0.00     0.114 A 
HETATM    8  O1  UNL     1      16.180  -0.986  52.645  1.00  0.00    -0.239 OA
HETATM    9  N4  UNL     1      15.585  -1.358  53.728  1.00  0.00    -0.255 N 
ATOM     10  H4  UNL     1      15.897  -1.139  54.674  1.00  0.00     0.195 HD
HETATM   11  C15 UNL     1      14.506  -2.067  53.426  1.00  0.00     0.130 A 
ENDROOT
BRANCH   1  12
HETATM   12  N1  UNL     1      13.109  -2.993  55.144  1.00  0.00    -0.369 N 
ATOM     13  H1  UNL     1      13.427  -3.820  55.649  1.00  0.00     0.161 HD
BRANCH  12  14
HETATM   14  C7  UNL     1      12.302  -1.944  55.776  1.00  0.00     0.160 C 
BRANCH  14  15
HETATM   15  C6  UNL     1      10.922  -2.408  56.045  1.00  0.00    -0.034 A 
HETATM   16  C4  UNL     1       9.819  -1.639  55.769  1.00  0.00    -0.054 A 
HETATM   17  C3  UNL     1       8.542  -2.048  56.071  1.00  0.00     0.014 A 
HETATM   18  C5  UNL     1       9.991  -0.317  55.089  1.00  0.00     0.049 C 
HETATM   19  C2  UNL     1       8.362  -3.281  56.676  1.00  0.00    -0.056 A 
HETATM   20  C1  UNL     1       7.021  -3.779  57.012  1.00  0.00     0.049 C 
HETATM   21  C17 UNL     1       9.453  -4.096  56.973  1.00  0.00    -0.056 A 
HETATM   22  C16 UNL     1      10.722  -3.659  56.661  1.00  0.00     0.016 A 
HETATM   23  C18 UNL     1       9.249  -5.398  57.650  1.00  0.00     0.049 C 
ENDBRANCH  14  15
ENDBRANCH  12  14
ENDBRANCH   1  12
BRANCH   7  24
HETATM   24  C11 UNL     1      15.933  -1.178  50.173  1.00  0.00     0.003 C 
HETATM   25  C12 UNL     1      16.310  -2.487  49.507  1.00  0.00     0.021 C 
HETATM   26  C13 UNL     1      14.761  -0.524  49.460  1.00  0.00     0.021 C 
HETATM   27  C14 UNL     1      17.105  -0.225  50.086  1.00  0.00     0.021 C 
ENDBRANCH   7  24
TORSDOF 4
ENDMDL
MODEL 4
REMARK VINA RESULT: -7.428379031      2.347      7.509
REMARK  4 active torsions:
REMARK  status: ('A' for Active; 'I' for Inactive)
REMARK    1  A    between atoms: C6_6  and  C7_7 
REMARK    2  A    between atoms: C7_7  and  N1_8 
REMARK    3  A    between atoms: N1_8  and  C8_10 
REMARK    4  A    between atoms: C10_16  and  C11_17 
ROOT
HETATM    1  C8  UNL     1      12.919  -3.321  53.914  1.00  0.00     0.147 A 
HETATM    2  N2  UNL     1      12.434  -3.965  52.845  1.00  0.00    -0.283 N 
ATOM      3  H2  UNL     1      11.861  -4.807  52.896  1.00  0.00     0.188 HD
HETATM    4  N3  UNL     1      12.788  -3.378  51.710  1.00  0.00    -0.294 N 
ATOM      5  H3  UNL     1      12.545  -3.677  50.766  1.00  0.00     0.187 HD
HETATM    6  C9  UNL     1      13.528  -2.314  52.046  1.00  0.00     0.113 A 
HETATM    7  C10 UNL     1      14.235  -1.239  51.528  1.00  0.00     0.114 A 
HETATM    8  O1  UNL     1      14.724  -0.581  52.576  1.00  0.00    -0.239 OA
HETATM    9  N4  UNL     1      14.379  -1.155  53.678  1.00  0.00    -0.255 N 
ATOM     10  H4  UNL     1      14.633  -0.833  54.612  1.00  0.00     0.195 HD
HETATM   11  C15 UNL     1      13.643  -2.226  53.415  1.00  0.00     0.130 A 
ENDROOT
BRANCH   1  12
HETATM   12  N1  UNL     1      12.809  -3.622  55.181  1.00  0.00    -0.369 N 
ATOM     13  H1  UNL     1      13.119  -4.516  55.562  1.00  0.00     0.161 HD
BRANCH  12  14
HETATM   14  C7  UNL     1      12.206  -2.576  56.012  1.00  0.00     0.160 C 
BRANCH  14  15
HETATM   15  C6  UNL     1      10.756  -2.803  56.206  1.00  0.00    -0.034 A 
HETATM   16  C4  UNL     1       9.814  -1.854  55.897  1.00  0.00    -0.054 A 
HETATM   17  C3  UNL     1       8.472  -2.046  56.129  1.00  0.00     0.014 A 
HETATM   18  C5  UNL     1      10.240  -0.570  55.259  1.00  0.00     0.049 C 
HETATM   19  C2  UNL     1       8.057  -3.240  56.694  1.00  0.00    -0.056 A 
HETATM   20  C1  UNL     1       6.636  -3.509  56.955  1.00  0.00     0.049 C 
HETATM   21  C17 UNL     1       8.979  -4.233  57.022  1.00  0.00    -0.056 A 
HETATM   22  C16 UNL     1      10.317  -4.012  56.780  1.00  0.00     0.016 A 
HETATM   23  C18 UNL     1       8.524  -5.492  57.656  1.00  0.00     0.049 C 
ENDBRANCH  14  15
ENDBRANCH  12  14
ENDBRANCH   1  12
BRANCH   7  24
HETATM   24  C11 UNL     1      14.436  -0.851  50.116  1.00  0.00     0.003 C 
HETATM   25  C12 UNL     1      15.455  -1.770  49.470  1.00  0.00     0.021 C 
HETATM   26  C13 UNL     1      13.093  -0.951  49.412  1.00  0.00     0.021 C 
HETATM   27  C14 UNL     1      14.910   0.580  49.985  1.00  0.00     0.021 C 
ENDBRANCH   7  24
TORSDOF 4
ENDMDL
MODEL 5
REMARK VINA RESULT: -7.313249475      1.600      2.872
REMARK  4 active torsions:
REMARK  status: ('A' for Active; 'I' for Inactive)
REMARK    1  A    between atoms: C6_6  and  C7_7 
REMARK    2  A    between atoms: C7_7  and  N1_8 
REMARK    3  A    between atoms: N1_8  and  C8_10 
REMARK    4  A    between atoms: C10_16  and  C11_17 
ROOT
HETATM    1  C8  UNL     1      12.723  -1.232  54.361  1.00  0.00     0.147 A 
HETATM    2  N2  UNL     1      11.901  -0.450  55.072  1.00  0.00    -0.283 N 
ATOM      3  H2  UNL     1      11.859   0.565  54.982  1.00  0.00     0.188 HD
HETATM    4  N3  UNL     1      11.146  -1.153  55.905  1.00  0.00    -0.294 N 
ATOM      5  H3  UNL     1      10.445  -0.786  56.550  1.00  0.00     0.187 HD
HETATM    6  C9  UNL     1      11.483  -2.436  55.735  1.00  0.00     0.113 A 
HETATM    7  C10 UNL     1      11.210  -3.727  56.163  1.00  0.00     0.114 A 
HETATM    8  O1  UNL     1      12.015  -4.525  55.466  1.00  0.00    -0.239 OA
HETATM    9  N4  UNL     1      12.749  -3.838  54.656  1.00  0.00    -0.255 N 
ATOM     10  H4  UNL     1      13.441  -4.229  54.018  1.00  0.00     0.195 HD
HETATM   11  C15 UNL     1      12.467  -2.549  54.778  1.00  0.00     0.130 A 
ENDROOT
BRANCH   1  12
HETATM   12  N1  UNL     1      13.626  -0.897  53.478  1.00  0.00    -0.369 N 
ATOM     13  H1  UNL     1      14.493  -0.423  53.732  1.00  0.00     0.161 HD
BRANCH  12  14
HETATM   14  C7  UNL     1      13.296  -1.254  52.094  1.00  0.00     0.160 C 
BRANCH  14  15
HETATM   15  C6  UNL     1      14.448  -1.878  51.406  1.00  0.00    -0.034 A 
HETATM   16  C4  UNL     1      14.920  -1.422  50.199  1.00  0.00    -0.054 A 
HETATM   17  C3  UNL     1      15.955  -2.036  49.534  1.00  0.00     0.014 A 
HETATM   18  C5  UNL     1      14.319  -0.198  49.586  1.00  0.00     0.049 C 
HETATM   19  C2  UNL     1      16.541  -3.155  50.101  1.00  0.00    -0.056 A 
HETATM   20  C1  UNL     1      17.658  -3.849  49.444  1.00  0.00     0.049 C 
HETATM   21  C17 UNL     1      16.096  -3.652  51.325  1.00  0.00    -0.056 A 
HETATM   22  C16 UNL     1      15.056  -3.017  51.968  1.00  0.00     0.016 A 
HETATM   23  C18 UNL     1      16.711  -4.869  51.904  1.00  0.00     0.049 C 
ENDBRANCH  14  15
ENDBRANCH  12  14
ENDBRANCH   1  12
BRANCH   7  24
HETATM   24  C11 UNL     1      10.235  -4.185  57.175  1.00  0.00     0.003 C 
HETATM   25  C12 UNL     1       9.983  -5.672  57.010  1.00  0.00     0.021 C 
HETATM   26  C13 UNL     1      10.815  -3.884  58.547  1.00  0.00     0.021 C 
HETATM   27  C14 UNL     1       8.919  -3.447  57.068  1.00  0.00     0.021 C 
ENDBRANCH   7  24
TORSDOF 4
ENDMDL
