MODEL 1
REMARK VINA RESULT: -7.467721038      0.000      0.000
REMARK  4 active torsions:
REMARK  status: ('A' for Active; 'I' for Inactive)
REMARK    1  A    between atoms: O1_2  and  C2_3 
REMARK    2  A    between atoms: C2_3  and  C3_5 
REMARK    3  A    between atoms: C3_5  and  C4_6 
REMARK    4  A    between atoms: C14_16  and  O3_17 
ROOT
HETATM    1  C4  UNL     1      14.663  -0.022  49.665  1.00  0.00    -0.031 C 
HETATM    2  C5  UNL     1      13.403  -0.335  48.913  1.00  0.00     0.016 C 
HETATM    3  C6  UNL     1      15.863  -0.698  49.045  1.00  0.00     0.010 C 
HETATM    4  C7  UNL     1      16.112  -1.902  49.962  1.00  0.00     0.006 C 
HETATM    5  C8  UNL     1      15.886  -1.278  51.325  1.00  0.00    -0.001 C 
HETATM    6  C9  UNL     1      14.646  -0.499  51.090  1.00  0.00    -0.001 C 
HETATM    7  C10 UNL     1      13.447  -1.255  51.511  1.00  0.00     0.006 C 
HETATM    8  C11 UNL     1      13.551  -1.431  53.008  1.00  0.00     0.006 C 
HETATM    9  C12 UNL     1      14.800  -2.173  53.436  1.00  0.00    -0.004 C 
HETATM   10  C13 UNL     1      14.352  -3.461  54.055  1.00  0.00     0.037 C 
HETATM   11  C14 UNL     1      15.247  -4.621  53.963  1.00  0.00     0.118 C 
HETATM   12  C15 UNL     1      16.303  -4.598  52.924  1.00  0.00     0.032 C 
HETATM   13  C16 UNL     1      15.870  -3.686  51.807  1.00  0.00     0.012 C 
HETATM   14  C17 UNL     1      15.855  -2.277  52.420  1.00  0.00    -0.036 C 
HETATM   15  C18 UNL     1      17.225  -2.164  53.120  1.00  0.00     0.016 C 
ENDROOT
BRANCH   1  16
HETATM   16  C3  UNL     1      14.896   1.471  49.637  1.00  0.00     0.120 C 
BRANCH  16  17
HETATM   17  C2  UNL     1      16.249   1.768  49.150  1.00  0.00     0.259 C 
HETATM   18  O2  UNL     1      17.259   1.327  49.751  1.00  0.00    -0.265 OA
BRANCH  17  19
HETATM   19  O1  UNL     1      16.481   2.542  48.014  1.00  0.00    -0.326 OA
HETATM   20  C1  UNL     1      16.156   3.908  48.041  1.00  0.00     0.213 C 
ENDBRANCH  17  19
ENDBRANCH  16  17
ENDBRANCH   1  16
BRANCH  11  21
HETATM   21  O3  UNL     1      15.893  -4.859  55.205  1.00  0.00    -0.396 OA
ATOM     22  H3  UNL     1      16.613  -5.469  55.099  1.00  0.00     0.210 HD
ENDBRANCH  11  21
TORSDOF 4
ENDMDL
MODEL 2
REMARK VINA RESULT: -7.452383360      2.192      3.640
REMARK  4 active torsions:
REMARK  status: ('A' for Active; 'I' for Inactive)
REMARK    1  A    between atoms: O1_2  and  C2_3 
REMARK    2  A    between atoms: C2_3  and  C3_5 
REMARK    3  A    between atoms: C3_5  and  C4_6 
REMARK    4  A    between atoms: C14_16  and  O3_17 
ROOT
HETATM    1  C4  UNL     1      15.815  -2.330  51.344  1.00  0.00    -0.031 C 
HETATM    2  C5  UNL     1      16.611  -3.597  51.223  1.00  0.00     0.016 C 
HETATM    3  C6  UNL     1      16.512  -1.317  52.221  1.00  0.00     0.010 C 
HETATM    4  C7  UNL     1      15.763  -1.420  53.556  1.00  0.00     0.006 C 
HETATM    5  C8  UNL     1      14.330  -1.536  53.074  1.00  0.00    -0.001 C 
HETATM    6  C9  UNL     1      14.467  -2.526  51.977  1.00  0.00    -0.001 C 
HETATM    7  C10 UNL     1      14.159  -3.894  52.446  1.00  0.00     0.006 C 
HETATM    8  C11 UNL     1      12.698  -3.899  52.833  1.00  0.00     0.006 C 
HETATM    9  C12 UNL     1      12.365  -2.898  53.920  1.00  0.00    -0.004 C 
HETATM   10  C13 UNL     1      11.927  -3.685  55.117  1.00  0.00     0.037 C 
HETATM   11  C14 UNL     1      12.167  -3.112  56.447  1.00  0.00     0.118 C 
HETATM   12  C15 UNL     1      13.187  -2.043  56.565  1.00  0.00     0.032 C 
HETATM   13  C16 UNL     1      14.175  -2.184  55.437  1.00  0.00     0.012 C 
HETATM   14  C17 UNL     1      13.379  -1.865  54.163  1.00  0.00    -0.036 C 
HETATM   15  C18 UNL     1      12.661  -0.541  54.497  1.00  0.00     0.016 C 
ENDROOT
BRANCH   1  16
HETATM   16  C3  UNL     1      15.641  -1.724  49.970  1.00  0.00     0.120 C 
BRANCH  16  17
HETATM   17  C2  UNL     1      16.876  -1.051  49.549  1.00  0.00     0.259 C 
HETATM   18  O2  UNL     1      17.792  -1.688  48.974  1.00  0.00    -0.265 OA
BRANCH  17  19
HETATM   19  O1  UNL     1      17.096   0.310  49.764  1.00  0.00    -0.326 OA
HETATM   20  C1  UNL     1      16.334   1.245  49.044  1.00  0.00     0.213 C 
ENDBRANCH  17  19
ENDBRANCH  16  17
ENDBRANCH   1  16
BRANCH  11  21
HETATM   21  O3  UNL     1      10.965  -2.599  57.000  1.00  0.00    -0.396 OA
ATOM     22  H3  UNL     1      10.693  -3.113  57.751  1.00  0.00     0.210 HD
ENDBRANCH  11  21
TORSDOF 4
ENDMDL
MODEL 3
REMARK VINA RESULT: -7.390668607      3.024      5.446
REMARK  4 active torsions:
REMARK  status: ('A' for Active; 'I' for Inactive)
REMARK    1  A    between atoms: O1_2  and  C2_3 
REMARK    2  A    between atoms: C2_3  and  C3_5 
REMARK    3  A    between atoms: C3_5  and  C4_6 
REMARK    4  A    between atoms: C14_16  and  O3_17 
ROOT
HETATM    1  C4  UNL     1      13.357  -1.601  54.110  1.00  0.00    -0.031 C 
HETATM    2  C5  UNL     1      12.473  -2.761  54.464  1.00  0.00     0.016 C 
HETATM    3  C6  UNL     1      12.788  -0.798  52.964  1.00  0.00     0.010 C 
HETATM    4  C7  UNL     1      13.614  -1.257  51.756  1.00  0.00     0.006 C 
HETATM    5  C8  UNL     1      15.001  -1.323  52.363  1.00  0.00    -0.001 C 
HETATM    6  C9  UNL     1      14.728  -2.010  53.649  1.00  0.00    -0.001 C 
HETATM    7  C10 UNL     1      14.975  -3.465  53.544  1.00  0.00     0.006 C 
HETATM    8  C11 UNL     1      16.454  -3.635  53.287  1.00  0.00     0.006 C 
HETATM    9  C12 UNL     1      16.923  -2.944  52.023  1.00  0.00    -0.004 C 
HETATM   10  C13 UNL     1      17.385  -4.016  51.085  1.00  0.00     0.037 C 
HETATM   11  C14 UNL     1      17.270  -3.770  49.643  1.00  0.00     0.118 C 
HETATM   12  C15 UNL     1      16.333  -2.713  49.194  1.00  0.00     0.032 C 
HETATM   13  C16 UNL     1      15.267  -2.529  50.242  1.00  0.00     0.012 C 
HETATM   14  C17 UNL     1      15.997  -1.950  51.463  1.00  0.00    -0.036 C 
HETATM   15  C18 UNL     1      16.822  -0.783  50.882  1.00  0.00     0.016 C 
ENDROOT
BRANCH   1  16
HETATM   16  C3  UNL     1      13.481  -0.691  55.309  1.00  0.00     0.120 C 
BRANCH  16  17
HETATM   17  C2  UNL     1      12.221   0.028  55.537  1.00  0.00     0.259 C 
HETATM   18  O2  UNL     1      12.176   1.281  55.479  1.00  0.00    -0.265 OA
BRANCH  17  19
HETATM   19  O1  UNL     1      11.026  -0.631  55.824  1.00  0.00    -0.326 OA
HETATM   20  C1  UNL     1       9.849  -0.223  55.176  1.00  0.00     0.213 C 
ENDBRANCH  17  19
ENDBRANCH  16  17
ENDBRANCH   1  16
BRANCH  11  21
HETATM   21  O3  UNL     1      18.537  -3.466  49.081  1.00  0.00    -0.396 OA
ATOM     22  H3  UNL     1      18.834  -4.170  48.517  1.00  0.00     0.210 HD
ENDBRANCH  11  21
TORSDOF 4
ENDMDL
MODEL 4
REMARK VINA RESULT: -7.319857541      1.555      6.285
REMARK  4 active torsions:
REMARK  status: ('A' for Active; 'I' for Inactive)
REMARK    1  A    between atoms: O1_2  and  C2_3 
REMARK    2  A    between atoms: C2_3  and  C3_5 
REMARK    3  A    between atoms: C3_5  and  C4_6 
REMARK    4  A    between atoms: C14_16  and  O3_17 
ROOT
HETATM    1  C4  UNL     1      13.661  -3.153  53.086  1.00  0.00    -0.031 C 
HETATM    2  C5  UNL     1      12.848  -2.349  54.058  1.00  0.00     0.016 C 
HETATM    3  C6  UNL     1      15.095  -3.293  53.542  1.00  0.00     0.010 C 
HETATM    4  C7  UNL     1      15.848  -2.270  52.682  1.00  0.00     0.006 C 
HETATM    5  C8  UNL     1      15.182  -2.479  51.336  1.00  0.00    -0.001 C 
HETATM    6  C9  UNL     1      13.750  -2.532  51.721  1.00  0.00    -0.001 C 
HETATM    7  C10 UNL     1      13.100  -1.214  51.559  1.00  0.00     0.006 C 
HETATM    8  C11 UNL     1      13.123  -0.898  50.081  1.00  0.00     0.006 C 
HETATM    9  C12 UNL     1      14.523  -0.853  49.503  1.00  0.00    -0.004 C 
HETATM   10  C13 UNL     1      14.766   0.556  49.058  1.00  0.00     0.037 C 
HETATM   11  C14 UNL     1      16.144   1.060  49.079  1.00  0.00     0.118 C 
HETATM   12  C15 UNL     1      17.129   0.343  49.924  1.00  0.00     0.032 C 
HETATM   13  C16 UNL     1      16.397  -0.368  51.032  1.00  0.00     0.012 C 
HETATM   14  C17 UNL     1      15.572  -1.459  50.333  1.00  0.00    -0.036 C 
HETATM   15  C18 UNL     1      16.589  -2.158  49.408  1.00  0.00     0.016 C 
ENDROOT
BRANCH   1  16
HETATM   16  C3  UNL     1      13.065  -4.537  52.971  1.00  0.00     0.120 C 
BRANCH  16  17
HETATM   17  C2  UNL     1      14.078  -5.555  53.279  1.00  0.00     0.259 C 
HETATM   18  O2  UNL     1      14.167  -6.046  54.431  1.00  0.00    -0.265 OA
BRANCH  17  19
HETATM   19  O1  UNL     1      14.980  -6.025  52.324  1.00  0.00    -0.326 OA
HETATM   20  C1  UNL     1      15.451  -7.344  52.422  1.00  0.00     0.213 C 
ENDBRANCH  17  19
ENDBRANCH  16  17
ENDBRANCH   1  16
BRANCH  11  21
HETATM   21  O3  UNL     1      16.683   1.111  47.767  1.00  0.00    -0.396 OA
ATOM     22  H3  UNL     1      17.443   1.680  47.736  1.00  0.00     0.210 HD
ENDBRANCH  11  21
TORSDOF 4
ENDMDL
MODEL 5
REMARK VINA RESULT: -7.271670733      2.141      3.482
REMARK  4 active torsions:
REMARK  status: ('A' for Active; 'I' for Inactive)
REMARK    1  A    between atoms: O1_2  and  C2_3 
REMARK    2  A    between atoms: C2_3  and  C3_5 
REMARK    3  A    between atoms: C3_5  and  C4_6 
REMARK    4  A    between atoms: C14_16  and  O3_17 
ROOT
HETATM    1  C4  UNL     1      15.512  -2.176  51.176  1.00  0.00    -0.031 C 
HETATM    2  C5  UNL     1      16.356  -3.396  50.952  1.00  0.00     0.016 C 
HETATM    3  C6  UNL     1      16.236  -1.146  52.012  1.00  0.00     0.010 C 
HETATM    4  C7  UNL     1      15.619  -1.316  53.407  1.00  0.00     0.006 C 
HETATM    5  C8  UNL     1      14.156  -1.497  53.055  1.00  0.00    -0.001 C 
HETATM    6  C9  UNL     1      14.240  -2.455  51.926  1.00  0.00    -0.001 C 
HETATM    7  C10 UNL     1      14.046  -3.847  52.386  1.00  0.00     0.006 C 
HETATM    8  C11 UNL     1      12.629  -3.937  52.905  1.00  0.00     0.006 C 
HETATM    9  C12 UNL     1      12.348  -2.977  54.043  1.00  0.00    -0.004 C 
HETATM   10  C13 UNL     1      12.063  -3.810  55.255  1.00  0.00     0.037 C 
HETATM   11  C14 UNL     1      12.396  -3.252  56.571  1.00  0.00     0.118 C 
HETATM   12  C15 UNL     1      13.368  -2.135  56.622  1.00  0.00     0.032 C 
HETATM   13  C16 UNL     1      14.253  -2.200  55.405  1.00  0.00     0.012 C 
HETATM   14  C17 UNL     1      13.327  -1.897  54.217  1.00  0.00    -0.036 C 
HETATM   15  C18 UNL     1      12.578  -0.620  54.649  1.00  0.00     0.016 C 
ENDROOT
BRANCH   1  16
HETATM   16  C3  UNL     1      15.181  -1.552  49.840  1.00  0.00     0.120 C 
BRANCH  16  17
HETATM   17  C2  UNL     1      15.313  -0.091  49.913  1.00  0.00     0.259 C 
HETATM   18  O2  UNL     1      14.378   0.617  50.357  1.00  0.00    -0.265 OA
BRANCH  17  19
HETATM   19  O1  UNL     1      16.466   0.577  49.498  1.00  0.00    -0.326 OA
HETATM   20  C1  UNL     1      16.355   1.889  49.012  1.00  0.00     0.213 C 
ENDBRANCH  17  19
ENDBRANCH  16  17
ENDBRANCH   1  16
BRANCH  11  21
HETATM   21  O3  UNL     1      11.226  -2.815  57.245  1.00  0.00    -0.396 OA
ATOM     22  H3  UNL     1      10.486  -3.370  57.029  1.00  0.00     0.210 HD
ENDBRANCH  11  21
TORSDOF 4
ENDMDL
