MODEL 1
REMARK VINA RESULT: -6.329416003      0.000      0.000
REMARK  11 active torsions:
REMARK  status: ('A' for Active; 'I' for Inactive)
REMARK    1  A    between atoms: C2_2  and  C3_3 
REMARK    2  A    between atoms: C3_3  and  C4_4 
REMARK    3  A    between atoms: C5_7  and  O1_8 
REMARK    4  A    between atoms: C6_10  and  C7_11 
REMARK    5  A    between atoms: C7_11  and  C9_13 
REMARK    6  A    between atoms: C12_19  and  C13_20 
REMARK    7  A    between atoms: C16_25  and  O3_26 
REMARK    8  A    between atoms: C17_28  and  C18_29 
REMARK    9  A    between atoms: C23_37  and  C24_38 
REMARK   10  A    between atoms: C24_38  and  C25_39 
REMARK   11  A    between atoms: C28_44  and  C29_45 
ROOT
HETATM    1  C4  UNL     1      17.889  38.287  18.189  1.00  0.00     0.175 C 
HETATM    2  N1  UNL     1      18.133  37.001  18.742  1.00  0.00    -0.359 N 
ATOM      3  H1  UNL     1      18.199  37.075  19.757  1.00  0.00     0.162 HD
HETATM    4  C5  UNL     1      18.309  35.692  18.367  1.00  0.00     0.135 C 
HETATM    5  C6  UNL     1      17.586  34.729  17.513  1.00  0.00     0.162 C 
HETATM    6  N2  UNL     1      17.841  34.738  16.112  1.00  0.00    -0.347 N 
ATOM      7  H2  UNL     1      17.654  35.638  15.669  1.00  0.00     0.163 HD
HETATM    8  C11 UNL     1      18.298  33.755  15.213  1.00  0.00     0.241 C 
HETATM    9  O2  UNL     1      17.529  33.357  14.243  1.00  0.00    -0.271 OA
HETATM   10  C12 UNL     1      19.588  33.041  15.167  1.00  0.00     0.179 C 
HETATM   11  N3  UNL     1      20.475  33.271  16.253  1.00  0.00    -0.359 N 
ATOM     12  H3  UNL     1      20.088  33.006  17.159  1.00  0.00     0.162 HD
HETATM   13  C16 UNL     1      21.755  33.782  16.328  1.00  0.00     0.135 C 
HETATM   14  C17 UNL     1      22.399  34.953  15.752  1.00  0.00     0.162 C 
HETATM   15  N4  UNL     1      21.591  35.916  15.097  1.00  0.00    -0.348 N 
ATOM     16  H4  UNL     1      20.745  35.557  14.652  1.00  0.00     0.163 HD
HETATM   17  C21 UNL     1      21.804  37.307  14.981  1.00  0.00     0.226 C 
HETATM   18  O4  UNL     1      21.968  37.843  13.813  1.00  0.00    -0.273 OA
HETATM   19  C22 UNL     1      21.872  38.315  16.068  1.00  0.00     0.124 A 
HETATM   20  C23 UNL     1      21.307  37.869  17.378  1.00  0.00     0.102 A 
HETATM   21  N5  UNL     1      20.241  38.810  17.341  1.00  0.00    -0.339 N 
HETATM   22  C27 UNL     1      19.211  39.098  18.202  1.00  0.00     0.243 C 
HETATM   23  O5  UNL     1      19.148  40.000  19.093  1.00  0.00    -0.271 OA
HETATM   24  C28 UNL     1      20.673  39.256  16.072  1.00  0.00     0.106 A 
ENDROOT
BRANCH   5  25
HETATM   25  C7  UNL     1      16.071  34.773  17.845  1.00  0.00     0.012 C 
HETATM   26  C8  UNL     1      15.626  33.330  17.866  1.00  0.00     0.012 C 
BRANCH  25  27
HETATM   27  C9  UNL     1      15.374  35.629  16.858  1.00  0.00     0.002 C 
HETATM   28  C10 UNL     1      14.687  34.845  15.760  1.00  0.00     0.005 C 
ENDBRANCH  25  27
ENDBRANCH   5  25
BRANCH   4  29
HETATM   29  O1  UNL     1      19.381  35.143  18.893  1.00  0.00    -0.348 OA
ATOM     30  H1  UNL     1      19.915  34.681  18.258  1.00  0.00     0.219 HD
ENDBRANCH   4  29
BRANCH   1  31
HETATM   31  C3  UNL     1      17.232  38.431  16.878  1.00  0.00     0.034 C 
BRANCH  31  32
HETATM   32  C2  UNL     1      16.478  39.766  16.862  1.00  0.00    -0.002 C 
HETATM   33  C1  UNL     1      15.489  39.838  18.001  1.00  0.00     0.005 C 
ENDBRANCH  31  32
ENDBRANCH   1  31
BRANCH  10  34
HETATM   34  C13 UNL     1      19.302  31.538  15.002  1.00  0.00     0.009 C 
HETATM   35  C14 UNL     1      20.346  30.820  14.226  1.00  0.00     0.012 C 
HETATM   36  C15 UNL     1      19.017  30.901  16.328  1.00  0.00     0.012 C 
ENDBRANCH  10  34
BRANCH  13  37
HETATM   37  O3  UNL     1      22.585  33.092  17.062  1.00  0.00    -0.348 OA
ATOM     38  H3  UNL     1      23.354  33.566  17.355  1.00  0.00     0.219 HD
ENDBRANCH  13  37
BRANCH  20  39
HETATM   39  C24 UNL     1      22.364  37.987  18.441  1.00  0.00     0.026 C 
BRANCH  39  40
HETATM   40  C25 UNL     1      23.362  39.090  18.208  1.00  0.00    -0.002 C 
HETATM   41  C26 UNL     1      22.981  40.203  19.197  1.00  0.00     0.005 C 
ENDBRANCH  39  40
ENDBRANCH  20  39
BRANCH  24  42
HETATM   42  C29 UNL     1      20.976  40.708  15.840  1.00  0.00     0.001 C 
HETATM   43  C30 UNL     1      19.745  41.598  15.974  1.00  0.00     0.011 C 
HETATM   44  C31 UNL     1      21.700  41.051  14.596  1.00  0.00     0.011 C 
ENDBRANCH  24  42
BRANCH  14  45
HETATM   45  C18 UNL     1      23.571  34.486  14.893  1.00  0.00     0.008 C 
HETATM   46  C19 UNL     1      23.333  33.154  14.268  1.00  0.00     0.012 C 
HETATM   47  C20 UNL     1      24.870  34.455  15.660  1.00  0.00     0.012 C 
ENDBRANCH  14  45
TORSDOF 11
ENDMDL
MODEL 2
REMARK VINA RESULT: -5.491747314      8.627     14.609
REMARK  11 active torsions:
REMARK  status: ('A' for Active; 'I' for Inactive)
REMARK    1  A    between atoms: C2_2  and  C3_3 
REMARK    2  A    between atoms: C3_3  and  C4_4 
REMARK    3  A    between atoms: C5_7  and  O1_8 
REMARK    4  A    between atoms: C6_10  and  C7_11 
REMARK    5  A    between atoms: C7_11  and  C9_13 
REMARK    6  A    between atoms: C12_19  and  C13_20 
REMARK    7  A    between atoms: C16_25  and  O3_26 
REMARK    8  A    between atoms: C17_28  and  C18_29 
REMARK    9  A    between atoms: C23_37  and  C24_38 
REMARK   10  A    between atoms: C24_38  and  C25_39 
REMARK   11  A    between atoms: C28_44  and  C29_45 
ROOT
HETATM    1  C4  UNL     1      21.980  23.959   7.737  1.00  0.00     0.175 C 
HETATM    2  N1  UNL     1      21.840  23.855   9.147  1.00  0.00    -0.359 N 
ATOM      3  H1  UNL     1      21.789  22.871   9.411  1.00  0.00     0.162 HD
HETATM    4  C5  UNL     1      21.751  24.635  10.274  1.00  0.00     0.135 C 
HETATM    5  C6  UNL     1      22.525  25.752  10.851  1.00  0.00     0.162 C 
HETATM    6  N2  UNL     1      22.243  27.076  10.409  1.00  0.00    -0.347 N 
ATOM      7  H2  UNL     1      22.356  27.201   9.402  1.00  0.00     0.163 HD
HETATM    8  C11 UNL     1      21.840  28.247  11.079  1.00  0.00     0.241 C 
HETATM    9  O2  UNL     1      22.616  29.290  11.082  1.00  0.00    -0.271 OA
HETATM   10  C12 UNL     1      20.604  28.529  11.833  1.00  0.00     0.179 C 
HETATM   11  N3  UNL     1      19.724  27.430  12.033  1.00  0.00    -0.359 N 
ATOM     12  H3  UNL     1      20.147  26.657  12.548  1.00  0.00     0.162 HD
HETATM   13  C16 UNL     1      18.413  27.200  11.672  1.00  0.00     0.135 C 
HETATM   14  C17 UNL     1      17.674  27.369  10.429  1.00  0.00     0.162 C 
HETATM   15  N4  UNL     1      18.399  27.672   9.248  1.00  0.00    -0.348 N 
ATOM     16  H4  UNL     1      19.259  28.205   9.379  1.00  0.00     0.163 HD
HETATM   17  C21 UNL     1      18.084  27.331   7.914  1.00  0.00     0.226 C 
HETATM   18  O4  UNL     1      17.858  28.262   7.042  1.00  0.00    -0.273 OA
HETATM   19  C22 UNL     1      17.964  25.976   7.320  1.00  0.00     0.124 A 
HETATM   20  C23 UNL     1      18.585  24.879   8.123  1.00  0.00     0.102 A 
HETATM   21  N5  UNL     1      19.580  24.603   7.145  1.00  0.00    -0.339 N 
HETATM   22  C27 UNL     1      20.603  23.690   7.075  1.00  0.00     0.243 C 
HETATM   23  O5  UNL     1      20.618  22.555   6.509  1.00  0.00    -0.271 OA
HETATM   24  C28 UNL     1      19.092  25.661   6.345  1.00  0.00     0.106 A 
ENDROOT
BRANCH   5  25
HETATM   25  C7  UNL     1      24.039  25.416  10.805  1.00  0.00     0.012 C 
HETATM   26  C8  UNL     1      24.570  25.781  12.171  1.00  0.00     0.012 C 
BRANCH  25  27
HETATM   27  C9  UNL     1      24.669  26.136   9.675  1.00  0.00     0.002 C 
HETATM   28  C10 UNL     1      25.731  27.124  10.107  1.00  0.00     0.005 C 
ENDBRANCH  25  27
ENDBRANCH   5  25
BRANCH   4  29
HETATM   29  O1  UNL     1      20.732  24.320  11.042  1.00  0.00    -0.348 OA
ATOM     30  H1  UNL     1      20.865  24.556  11.953  1.00  0.00     0.219 HD
ENDBRANCH   4  29
BRANCH   1  31
HETATM   31  C3  UNL     1      22.599  25.150   7.128  1.00  0.00     0.034 C 
BRANCH  31  32
HETATM   32  C2  UNL     1      23.827  24.698   6.330  1.00  0.00    -0.002 C 
HETATM   33  C1  UNL     1      23.507  24.605   4.857  1.00  0.00     0.005 C 
ENDBRANCH  31  32
ENDBRANCH   1  31
BRANCH  10  34
HETATM   34  C13 UNL     1      20.994  29.170  13.176  1.00  0.00     0.009 C 
HETATM   35  C14 UNL     1      20.063  30.242  13.610  1.00  0.00     0.012 C 
HETATM   36  C15 UNL     1      21.211  28.122  14.225  1.00  0.00     0.012 C 
ENDBRANCH  10  34
BRANCH  13  37
HETATM   37  O3  UNL     1      17.649  26.733  12.622  1.00  0.00    -0.348 OA
ATOM     38  H3  UNL     1      16.742  26.589  12.377  1.00  0.00     0.219 HD
ENDBRANCH  13  37
BRANCH  20  39
HETATM   39  C24 UNL     1      17.543  23.840   8.435  1.00  0.00     0.026 C 
BRANCH  39  40
HETATM   40  C25 UNL     1      16.478  23.691   7.382  1.00  0.00    -0.002 C 
HETATM   41  C26 UNL     1      16.861  22.433   6.586  1.00  0.00     0.005 C 
ENDBRANCH  39  40
ENDBRANCH  20  39
BRANCH  24  42
HETATM   42  C29 UNL     1      18.681  25.411   4.923  1.00  0.00     0.001 C 
HETATM   43  C30 UNL     1      19.833  24.925   4.051  1.00  0.00     0.011 C 
HETATM   44  C31 UNL     1      17.965  26.505   4.230  1.00  0.00     0.011 C 
ENDBRANCH  24  42
BRANCH  14  45
HETATM   45  C18 UNL     1      16.523  28.337  10.678  1.00  0.00     0.008 C 
HETATM   46  C19 UNL     1      16.814  29.310  11.770  1.00  0.00     0.012 C 
HETATM   47  C20 UNL     1      15.225  27.626  10.972  1.00  0.00     0.012 C 
ENDBRANCH  14  45
TORSDOF 11
ENDMDL
MODEL 3
REMARK VINA RESULT: -4.793132390      4.914     11.050
REMARK  11 active torsions:
REMARK  status: ('A' for Active; 'I' for Inactive)
REMARK    1  A    between atoms: C2_2  and  C3_3 
REMARK    2  A    between atoms: C3_3  and  C4_4 
REMARK    3  A    between atoms: C5_7  and  O1_8 
REMARK    4  A    between atoms: C6_10  and  C7_11 
REMARK    5  A    between atoms: C7_11  and  C9_13 
REMARK    6  A    between atoms: C12_19  and  C13_20 
REMARK    7  A    between atoms: C16_25  and  O3_26 
REMARK    8  A    between atoms: C17_28  and  C18_29 
REMARK    9  A    between atoms: C23_37  and  C24_38 
REMARK   10  A    between atoms: C24_38  and  C25_39 
REMARK   11  A    between atoms: C28_44  and  C29_45 
ROOT
HETATM    1  C4  UNL     1      22.182  27.049  11.628  1.00  0.00     0.175 C 
HETATM    2  N1  UNL     1      22.494  27.239  13.001  1.00  0.00    -0.359 N 
ATOM      3  H1  UNL     1      22.712  26.339  13.428  1.00  0.00     0.162 HD
HETATM    4  C5  UNL     1      22.601  28.229  13.946  1.00  0.00     0.135 C 
HETATM    5  C6  UNL     1      23.286  29.534  14.039  1.00  0.00     0.162 C 
HETATM    6  N2  UNL     1      22.639  30.682  13.500  1.00  0.00    -0.347 N 
ATOM      7  H2  UNL     1      22.419  30.598  12.508  1.00  0.00     0.163 HD
HETATM    8  C11 UNL     1      22.242  31.912  14.061  1.00  0.00     0.241 C 
HETATM    9  O2  UNL     1      22.770  33.019  13.632  1.00  0.00    -0.271 OA
HETATM   10  C12 UNL     1      21.259  32.194  15.124  1.00  0.00     0.179 C 
HETATM   11  N3  UNL     1      20.705  31.064  15.786  1.00  0.00    -0.359 N 
ATOM     12  H3  UNL     1      21.401  30.483  16.252  1.00  0.00     0.162 HD
HETATM   13  C16 UNL     1      19.414  30.597  15.924  1.00  0.00     0.135 C 
HETATM   14  C17 UNL     1      18.318  30.395  14.986  1.00  0.00     0.162 C 
HETATM   15  N4  UNL     1      18.584  30.521  13.599  1.00  0.00    -0.348 N 
ATOM     16  H4  UNL     1      19.326  31.174  13.347  1.00  0.00     0.163 HD
HETATM   17  C21 UNL     1      17.953  29.859  12.522  1.00  0.00     0.226 C 
HETATM   18  O4  UNL     1      17.305  30.541  11.632  1.00  0.00    -0.273 OA
HETATM   19  C22 UNL     1      17.920  28.403  12.237  1.00  0.00     0.124 A 
HETATM   20  C23 UNL     1      18.950  27.596  12.959  1.00  0.00     0.102 A 
HETATM   21  N5  UNL     1      19.638  27.240  11.767  1.00  0.00    -0.339 N 
HETATM   22  C27 UNL     1      20.748  26.470  11.515  1.00  0.00     0.243 C 
HETATM   23  O5  UNL     1      20.807  25.249  11.174  1.00  0.00    -0.271 OA
HETATM   24  C28 UNL     1      18.742  28.027  11.010  1.00  0.00     0.106 A 
ENDROOT
BRANCH   5  25
HETATM   25  C7  UNL     1      24.752  29.389  13.549  1.00  0.00     0.012 C 
HETATM   26  C8  UNL     1      24.756  29.926  12.138  1.00  0.00     0.012 C 
BRANCH  25  27
HETATM   27  C9  UNL     1      25.179  27.978  13.684  1.00  0.00     0.002 C 
HETATM   28  C10 UNL     1      25.951  27.466  12.487  1.00  0.00     0.005 C 
ENDBRANCH  25  27
ENDBRANCH   5  25
BRANCH   4  29
HETATM   29  O1  UNL     1      21.939  27.965  15.050  1.00  0.00    -0.348 OA
ATOM     30  H1  UNL     1      21.613  27.073  15.086  1.00  0.00     0.219 HD
ENDBRANCH   4  29
BRANCH   1  31
HETATM   31  C3  UNL     1      22.352  28.145  10.658  1.00  0.00     0.034 C 
BRANCH  31  32
HETATM   32  C2  UNL     1      23.688  27.943   9.935  1.00  0.00    -0.002 C 
HETATM   33  C1  UNL     1      23.984  26.474   9.750  1.00  0.00     0.005 C 
ENDBRANCH  31  32
ENDBRANCH   1  31
BRANCH  10  34
HETATM   34  C13 UNL     1      21.904  33.158  16.134  1.00  0.00     0.009 C 
HETATM   35  C14 UNL     1      20.924  34.038  16.820  1.00  0.00     0.012 C 
HETATM   36  C15 UNL     1      22.793  32.417  17.087  1.00  0.00     0.012 C 
ENDBRANCH  10  34
BRANCH  13  37
HETATM   37  O3  UNL     1      19.073  30.257  17.137  1.00  0.00    -0.348 OA
ATOM     38  H3  UNL     1      18.761  29.365  17.234  1.00  0.00     0.219 HD
ENDBRANCH  13  37
BRANCH  20  39
HETATM   39  C24 UNL     1      18.267  26.528  13.769  1.00  0.00     0.026 C 
BRANCH  39  40
HETATM   40  C25 UNL     1      17.068  25.910  13.098  1.00  0.00    -0.002 C 
HETATM   41  C26 UNL     1      17.609  24.691  12.335  1.00  0.00     0.005 C 
ENDBRANCH  39  40
ENDBRANCH  20  39
BRANCH  24  42
HETATM   42  C29 UNL     1      17.979  27.422   9.868  1.00  0.00     0.001 C 
HETATM   43  C30 UNL     1      18.887  26.874   8.773  1.00  0.00     0.011 C 
HETATM   44  C31 UNL     1      16.915  28.251   9.258  1.00  0.00     0.011 C 
ENDBRANCH  24  42
BRANCH  14  45
HETATM   45  C18 UNL     1      17.133  31.242  15.438  1.00  0.00     0.008 C 
HETATM   46  C19 UNL     1      15.829  30.723  14.935  1.00  0.00     0.012 C 
HETATM   47  C20 UNL     1      17.279  32.692  15.048  1.00  0.00     0.012 C 
ENDBRANCH  14  45
TORSDOF 11
ENDMDL
MODEL 4
REMARK VINA RESULT: -4.636716858      6.310     12.009
REMARK  11 active torsions:
REMARK  status: ('A' for Active; 'I' for Inactive)
REMARK    1  A    between atoms: C2_2  and  C3_3 
REMARK    2  A    between atoms: C3_3  and  C4_4 
REMARK    3  A    between atoms: C5_7  and  O1_8 
REMARK    4  A    between atoms: C6_10  and  C7_11 
REMARK    5  A    between atoms: C7_11  and  C9_13 
REMARK    6  A    between atoms: C12_19  and  C13_20 
REMARK    7  A    between atoms: C16_25  and  O3_26 
REMARK    8  A    between atoms: C17_28  and  C18_29 
REMARK    9  A    between atoms: C23_37  and  C24_38 
REMARK   10  A    between atoms: C24_38  and  C25_39 
REMARK   11  A    between atoms: C28_44  and  C29_45 
ROOT
HETATM    1  C4  UNL     1      23.844  27.297  11.852  1.00  0.00     0.175 C 
HETATM    2  N1  UNL     1      23.192  27.572  13.084  1.00  0.00    -0.359 N 
ATOM      3  H1  UNL     1      23.619  27.017  13.825  1.00  0.00     0.162 HD
HETATM    4  C5  UNL     1      22.178  28.334  13.610  1.00  0.00     0.135 C 
HETATM    5  C6  UNL     1      21.795  29.759  13.568  1.00  0.00     0.162 C 
HETATM    6  N2  UNL     1      21.020  30.223  12.467  1.00  0.00    -0.347 N 
ATOM      7  H2  UNL     1      21.464  30.067  11.562  1.00  0.00     0.163 HD
HETATM    8  C11 UNL     1      19.763  30.853  12.375  1.00  0.00     0.241 C 
HETATM    9  O2  UNL     1      19.676  32.055  11.889  1.00  0.00    -0.271 OA
HETATM   10  C12 UNL     1      18.427  30.359  12.757  1.00  0.00     0.179 C 
HETATM   11  N3  UNL     1      18.386  29.111  13.436  1.00  0.00    -0.359 N 
ATOM     12  H3  UNL     1      18.902  29.108  14.316  1.00  0.00     0.162 HD
HETATM   13  C16 UNL     1      17.789  27.902  13.143  1.00  0.00     0.135 C 
HETATM   14  C17 UNL     1      17.733  27.079  11.944  1.00  0.00     0.162 C 
HETATM   15  N4  UNL     1      18.566  27.423  10.849  1.00  0.00    -0.348 N 
ATOM     16  H4  UNL     1      18.779  28.415  10.748  1.00  0.00     0.163 HD
HETATM   17  C21 UNL     1      19.137  26.569   9.879  1.00  0.00     0.226 C 
HETATM   18  O4  UNL     1      18.819  26.701   8.631  1.00  0.00    -0.273 OA
HETATM   19  C22 UNL     1      20.113  25.471  10.090  1.00  0.00     0.124 A 
HETATM   20  C23 UNL     1      20.827  25.506  11.402  1.00  0.00     0.102 A 
HETATM   21  N5  UNL     1      22.095  25.756  10.808  1.00  0.00    -0.339 N 
HETATM   22  C27 UNL     1      23.357  25.924  11.321  1.00  0.00     0.243 C 
HETATM   23  O5  UNL     1      24.284  25.066  11.449  1.00  0.00    -0.271 OA
HETATM   24  C28 UNL     1      21.492  25.796   9.531  1.00  0.00     0.106 A 
ENDROOT
BRANCH   5  25
HETATM   25  C7  UNL     1      23.042  30.643  13.835  1.00  0.00     0.012 C 
HETATM   26  C8  UNL     1      23.816  29.925  14.916  1.00  0.00     0.012 C 
BRANCH  25  27
HETATM   27  C9  UNL     1      22.607  32.015  14.182  1.00  0.00     0.002 C 
HETATM   28  C10 UNL     1      22.266  32.186  15.647  1.00  0.00     0.005 C 
ENDBRANCH  25  27
ENDBRANCH   5  25
BRANCH   4  29
HETATM   29  O1  UNL     1      21.334  27.640  14.340  1.00  0.00    -0.348 OA
ATOM     30  H1  UNL     1      20.907  28.158  15.012  1.00  0.00     0.219 HD
ENDBRANCH   4  29
BRANCH   1  31
HETATM   31  C3  UNL     1      23.833  28.284  10.757  1.00  0.00     0.034 C 
BRANCH  31  32
HETATM   32  C2  UNL     1      24.976  29.278  10.994  1.00  0.00    -0.002 C 
HETATM   33  C1  UNL     1      25.758  28.912  12.232  1.00  0.00     0.005 C 
ENDBRANCH  31  32
ENDBRANCH   1  31
BRANCH  10  34
HETATM   34  C13 UNL     1      17.725  31.453  13.580  1.00  0.00     0.009 C 
HETATM   35  C14 UNL     1      16.444  31.007  14.184  1.00  0.00     0.012 C 
HETATM   36  C15 UNL     1      18.666  32.055  14.580  1.00  0.00     0.012 C 
ENDBRANCH  10  34
BRANCH  13  37
HETATM   37  O3  UNL     1      17.127  27.357  14.128  1.00  0.00    -0.348 OA
ATOM     38  H3  UNL     1      16.205  27.582  14.167  1.00  0.00     0.219 HD
ENDBRANCH  13  37
BRANCH  20  39
HETATM   39  C24 UNL     1      20.593  24.210  12.130  1.00  0.00     0.026 C 
BRANCH  39  40
HETATM   40  C25 UNL     1      19.156  23.957  12.504  1.00  0.00    -0.002 C 
HETATM   41  C26 UNL     1      19.202  22.875  13.595  1.00  0.00     0.005 C 
ENDBRANCH  39  40
ENDBRANCH  20  39
BRANCH  24  42
HETATM   42  C29 UNL     1      21.984  24.901   8.431  1.00  0.00     0.001 C 
HETATM   43  C30 UNL     1      23.407  25.228   7.992  1.00  0.00     0.011 C 
HETATM   44  C31 UNL     1      21.118  24.767   7.238  1.00  0.00     0.011 C 
ENDBRANCH  24  42
BRANCH  14  45
HETATM   45  C18 UNL     1      16.272  26.908  11.542  1.00  0.00     0.008 C 
HETATM   46  C19 UNL     1      16.096  25.980  10.388  1.00  0.00     0.012 C 
HETATM   47  C20 UNL     1      15.602  28.224  11.233  1.00  0.00     0.012 C 
ENDBRANCH  14  45
TORSDOF 11
ENDMDL
MODEL 5
REMARK VINA RESULT: -4.572000420      6.162     10.792
REMARK  11 active torsions:
REMARK  status: ('A' for Active; 'I' for Inactive)
REMARK    1  A    between atoms: C2_2  and  C3_3 
REMARK    2  A    between atoms: C3_3  and  C4_4 
REMARK    3  A    between atoms: C5_7  and  O1_8 
REMARK    4  A    between atoms: C6_10  and  C7_11 
REMARK    5  A    between atoms: C7_11  and  C9_13 
REMARK    6  A    between atoms: C12_19  and  C13_20 
REMARK    7  A    between atoms: C16_25  and  O3_26 
REMARK    8  A    between atoms: C17_28  and  C18_29 
REMARK    9  A    between atoms: C23_37  and  C24_38 
REMARK   10  A    between atoms: C24_38  and  C25_39 
REMARK   11  A    between atoms: C28_44  and  C29_45 
ROOT
HETATM    1  C4  UNL     1      17.945  30.217  13.199  1.00  0.00     0.175 C 
HETATM    2  N1  UNL     1      18.994  30.930  12.557  1.00  0.00    -0.359 N 
ATOM      3  H1  UNL     1      18.595  31.631  11.933  1.00  0.00     0.162 HD
HETATM    4  C5  UNL     1      20.364  30.990  12.496  1.00  0.00     0.135 C 
HETATM    5  C6  UNL     1      21.463  31.082  13.477  1.00  0.00     0.162 C 
HETATM    6  N2  UNL     1      21.951  29.881  14.067  1.00  0.00    -0.347 N 
ATOM      7  H2  UNL     1      21.234  29.350  14.561  1.00  0.00     0.163 HD
HETATM    8  C11 UNL     1      23.224  29.279  14.108  1.00  0.00     0.241 C 
HETATM    9  O2  UNL     1      23.828  29.118  15.247  1.00  0.00    -0.271 OA
HETATM   10  C12 UNL     1      24.059  28.757  13.010  1.00  0.00     0.179 C 
HETATM   11  N3  UNL     1      23.586  28.995  11.691  1.00  0.00    -0.359 N 
ATOM     12  H3  UNL     1      23.488  29.984  11.465  1.00  0.00     0.162 HD
HETATM   13  C16 UNL     1      23.235  28.155  10.653  1.00  0.00     0.135 C 
HETATM   14  C17 UNL     1      22.406  26.960  10.572  1.00  0.00     0.162 C 
HETATM   15  N4  UNL     1      21.627  26.599  11.700  1.00  0.00    -0.348 N 
ATOM     16  H4  UNL     1      22.012  26.864  12.608  1.00  0.00     0.163 HD
HETATM   17  C21 UNL     1      20.389  25.921  11.730  1.00  0.00     0.226 C 
HETATM   18  O4  UNL     1      20.295  24.768  12.314  1.00  0.00    -0.273 OA
HETATM   19  C22 UNL     1      19.092  26.359  11.156  1.00  0.00     0.124 A 
HETATM   20  C23 UNL     1      19.009  27.815  10.828  1.00  0.00     0.102 A 
HETATM   21  N5  UNL     1      18.014  28.072  11.812  1.00  0.00    -0.339 N 
HETATM   22  C27 UNL     1      17.338  29.205  12.192  1.00  0.00     0.243 C 
HETATM   23  O5  UNL     1      16.190  29.605  11.826  1.00  0.00    -0.271 OA
HETATM   24  C28 UNL     1      18.070  26.722  12.226  1.00  0.00     0.106 A 
ENDROOT
BRANCH   5  25
HETATM   25  C7  UNL     1      21.134  32.174  14.529  1.00  0.00     0.012 C 
HETATM   26  C8  UNL     1      22.213  33.219  14.371  1.00  0.00     0.012 C 
BRANCH  25  27
HETATM   27  C9  UNL     1      21.053  31.556  15.872  1.00  0.00     0.002 C 
HETATM   28  C10 UNL     1      22.179  31.971  16.795  1.00  0.00     0.005 C 
ENDBRANCH  25  27
ENDBRANCH   5  25
BRANCH   4  29
HETATM   29  O1  UNL     1      20.829  30.966  11.267  1.00  0.00    -0.348 OA
ATOM     30  H1  UNL     1      20.435  31.623  10.706  1.00  0.00     0.219 HD
ENDBRANCH   4  29
BRANCH   1  31
HETATM   31  C3  UNL     1      18.169  29.553  14.495  1.00  0.00     0.034 C 
BRANCH  31  32
HETATM   32  C2  UNL     1      17.588  30.444  15.598  1.00  0.00    -0.002 C 
HETATM   33  C1  UNL     1      16.266  31.037  15.170  1.00  0.00     0.005 C 
ENDBRANCH  31  32
ENDBRANCH   1  31
BRANCH  10  34
HETATM   34  C13 UNL     1      25.486  29.302  13.187  1.00  0.00     0.009 C 
HETATM   35  C14 UNL     1      26.475  28.260  13.564  1.00  0.00     0.012 C 
HETATM   36  C15 UNL     1      25.905  30.101  11.990  1.00  0.00     0.012 C 
ENDBRANCH  10  34
BRANCH  13  37
HETATM   37  O3  UNL     1      23.734  28.471   9.489  1.00  0.00    -0.348 OA
ATOM     38  H3  UNL     1      24.507  29.021   9.518  1.00  0.00     0.219 HD
ENDBRANCH  13  37
BRANCH  20  39
HETATM   39  C24 UNL     1      18.669  27.977   9.371  1.00  0.00     0.026 C 
BRANCH  39  40
HETATM   40  C25 UNL     1      18.426  26.684   8.641  1.00  0.00    -0.002 C 
HETATM   41  C26 UNL     1      18.201  27.079   7.172  1.00  0.00     0.005 C 
ENDBRANCH  39  40
ENDBRANCH  20  39
BRANCH  24  42
HETATM   42  C29 UNL     1      16.824  25.885  12.255  1.00  0.00     0.001 C 
HETATM   43  C30 UNL     1      17.109  24.393  12.137  1.00  0.00     0.011 C 
HETATM   44  C31 UNL     1      15.744  26.257  11.314  1.00  0.00     0.011 C 
ENDBRANCH  24  42
BRANCH  14  45
HETATM   45  C18 UNL     1      23.266  25.810  10.057  1.00  0.00     0.008 C 
HETATM   46  C19 UNL     1      22.460  24.726   9.427  1.00  0.00     0.012 C 
HETATM   47  C20 UNL     1      24.144  25.221  11.133  1.00  0.00     0.012 C 
ENDBRANCH  14  45
TORSDOF 11
ENDMDL
