MODEL 1
REMARK VINA RESULT: -7.175643805      0.000      0.000
REMARK  7 active torsions:
REMARK  status: ('A' for Active; 'I' for Inactive)
REMARK    1  A    between atoms: C2_2  and  S1_3 
REMARK    2  A    between atoms: S1_3  and  N1_6 
REMARK    3  A    between atoms: N1_6  and  C3_8 
REMARK    4  A    between atoms: N2_16  and  C10_17 
REMARK    5  A    between atoms: C14_21  and  C15_22 
REMARK    6  A    between atoms: C18_25  and  C19_26 
REMARK    7  A    between atoms: C19_26  and  N3_27 
REMARK       I    between atoms: N3_27  and  C22_30 
REMARK       I    between atoms: C22_30  and  N4_32 
ROOT
HETATM    1  C3  UNL     1       3.992  37.384  30.749  1.00  0.00     0.043 A 
HETATM    2  C4  UNL     1       2.978  36.852  31.531  1.00  0.00     0.033 A 
HETATM    3  C5  UNL     1       3.126  36.606  32.900  1.00  0.00     0.040 A 
HETATM    4  C6  UNL     1       4.334  36.906  33.495  1.00  0.00     0.085 A 
HETATM    5  C7  UNL     1       5.355  37.438  32.731  1.00  0.00     0.067 A 
HETATM    6  C8  UNL     1       5.179  37.672  31.369  1.00  0.00     0.050 A 
HETATM    7  C9  UNL     1       6.710  37.892  33.051  1.00  0.00     0.257 C 
HETATM    8  O3  UNL     1       7.483  37.890  32.069  1.00  0.00    -0.267 OA
HETATM    9  N2  UNL     1       7.271  38.335  34.305  1.00  0.00    -0.344 N 
HETATM   10  C13 UNL     1       6.902  37.994  35.653  1.00  0.00     0.134 C 
HETATM   11  C14 UNL     1       6.538  36.590  35.897  1.00  0.00     0.038 C 
HETATM   12  C18 UNL     1       5.158  36.102  35.826  1.00  0.00     0.161 C 
HETATM   13  O5  UNL     1       4.281  36.588  34.848  1.00  0.00    -0.343 OA
ENDROOT
BRANCH  12  14
HETATM   14  C19 UNL     1       5.186  34.581  35.819  1.00  0.00     0.281 C 
BRANCH  14  15
HETATM   15  N3  UNL     1       4.183  33.905  36.540  1.00  0.00     0.008 N 
HETATM   16  C20 UNL     1       4.740  32.573  36.903  1.00  0.00     0.285 C 
HETATM   17  C21 UNL     1       3.068  33.515  35.635  1.00  0.00     0.285 C 
HETATM   18  C22 UNL     1       3.599  34.526  37.635  1.00  0.00     0.415 C 
HETATM   19  O4  UNL     1       2.459  35.069  37.499  1.00  0.00    -0.239 OA
HETATM   20  N4  UNL     1       4.191  34.596  38.907  1.00  0.00    -0.337 N 
HETATM   21  C23 UNL     1       3.418  35.297  39.963  1.00  0.00     0.153 C 
HETATM   22  C24 UNL     1       5.454  34.076  39.321  1.00  0.00     0.153 C 
ENDBRANCH  14  15
ENDBRANCH  12  14
BRANCH  11  23
HETATM   23  C15 UNL     1       7.117  36.303  37.316  1.00  0.00    -0.015 C 
HETATM   24  C16 UNL     1       8.477  35.692  37.222  1.00  0.00     0.010 C 
HETATM   25  C17 UNL     1       7.255  37.638  38.054  1.00  0.00     0.010 C 
ENDBRANCH  11  23
BRANCH   9  26
HETATM   26  C10 UNL     1       8.328  39.291  34.096  1.00  0.00     0.079 C 
HETATM   27  C11 UNL     1       9.522  39.153  34.972  1.00  0.00     0.032 C 
HETATM   28  C12 UNL     1       7.675  40.667  34.226  1.00  0.00     0.032 C 
ENDBRANCH   9  26
BRANCH   1  29
HETATM   29  N1  UNL     1       3.758  37.585  29.377  1.00  0.00    -0.285 N 
ATOM     30  H1  UNL     1       3.774  36.744  28.800  1.00  0.00     0.178 HD
BRANCH  29  31
HETATM   31  S1  UNL     1       3.455  39.031  28.551  1.00  0.00     0.230 S 
HETATM   32  O1  UNL     1       2.036  39.492  28.829  1.00  0.00    -0.206 OA
HETATM   33  O2  UNL     1       4.356  40.116  29.135  1.00  0.00    -0.206 OA
BRANCH  31  34
HETATM   34  C2  UNL     1       3.790  39.009  26.826  1.00  0.00     0.159 C 
HETATM   35  C1  UNL     1       3.291  37.694  26.194  1.00  0.00     0.023 C 
ENDBRANCH  31  34
ENDBRANCH  29  31
ENDBRANCH   1  29
TORSDOF 7
ENDMDL
MODEL 2
REMARK VINA RESULT: -7.135430904      5.570      7.651
REMARK  7 active torsions:
REMARK  status: ('A' for Active; 'I' for Inactive)
REMARK    1  A    between atoms: C2_2  and  S1_3 
REMARK    2  A    between atoms: S1_3  and  N1_6 
REMARK    3  A    between atoms: N1_6  and  C3_8 
REMARK    4  A    between atoms: N2_16  and  C10_17 
REMARK    5  A    between atoms: C14_21  and  C15_22 
REMARK    6  A    between atoms: C18_25  and  C19_26 
REMARK    7  A    between atoms: C19_26  and  N3_27 
REMARK       I    between atoms: N3_27  and  C22_30 
REMARK       I    between atoms: C22_30  and  N4_32 
ROOT
HETATM    1  C3  UNL     1       9.332  42.877  37.109  1.00  0.00     0.043 A 
HETATM    2  C4  UNL     1      10.213  42.638  38.153  1.00  0.00     0.033 A 
HETATM    3  C5  UNL     1      10.822  41.397  38.362  1.00  0.00     0.040 A 
HETATM    4  C6  UNL     1      10.532  40.367  37.491  1.00  0.00     0.085 A 
HETATM    5  C7  UNL     1       9.658  40.587  36.444  1.00  0.00     0.067 A 
HETATM    6  C8  UNL     1       9.065  41.834  36.260  1.00  0.00     0.050 A 
HETATM    7  C9  UNL     1       9.179  39.743  35.348  1.00  0.00     0.257 C 
HETATM    8  O3  UNL     1       8.086  40.116  34.869  1.00  0.00    -0.267 OA
HETATM    9  N2  UNL     1       9.771  38.572  34.748  1.00  0.00    -0.344 N 
HETATM   10  C13 UNL     1      10.661  37.593  35.317  1.00  0.00     0.134 C 
HETATM   11  C14 UNL     1      10.390  37.191  36.704  1.00  0.00     0.038 C 
HETATM   12  C18 UNL     1      11.018  37.839  37.859  1.00  0.00     0.161 C 
HETATM   13  O5  UNL     1      11.229  39.224  37.869  1.00  0.00    -0.343 OA
ENDROOT
BRANCH  12  14
HETATM   14  C19 UNL     1      10.286  37.395  39.117  1.00  0.00     0.281 C 
BRANCH  14  15
HETATM   15  N3  UNL     1      11.066  37.006  40.223  1.00  0.00     0.008 N 
HETATM   16  C20 UNL     1      11.186  38.200  41.103  1.00  0.00     0.285 C 
HETATM   17  C21 UNL     1      12.482  36.804  39.814  1.00  0.00     0.285 C 
HETATM   18  C22 UNL     1      10.702  35.877  40.945  1.00  0.00     0.415 C 
HETATM   19  O4  UNL     1      11.322  34.789  40.739  1.00  0.00    -0.239 OA
HETATM   20  N4  UNL     1       9.679  35.856  41.907  1.00  0.00    -0.337 N 
HETATM   21  C23 UNL     1       9.432  34.559  42.586  1.00  0.00     0.153 C 
HETATM   22  C24 UNL     1       8.836  36.931  42.321  1.00  0.00     0.153 C 
ENDBRANCH  14  15
ENDBRANCH  12  14
BRANCH  11  23
HETATM   23  C15 UNL     1      10.729  35.668  36.717  1.00  0.00    -0.015 C 
HETATM   24  C16 UNL     1       9.988  34.949  35.638  1.00  0.00     0.010 C 
HETATM   25  C17 UNL     1      12.228  35.512  36.439  1.00  0.00     0.010 C 
ENDBRANCH  11  23
BRANCH   9  26
HETATM   26  C10 UNL     1       9.404  38.451  33.361  1.00  0.00     0.079 C 
HETATM   27  C11 UNL     1       8.407  37.397  33.033  1.00  0.00     0.032 C 
HETATM   28  C12 UNL     1      10.715  38.259  32.598  1.00  0.00     0.032 C 
ENDBRANCH   9  26
BRANCH   1  29
HETATM   29  N1  UNL     1       8.756  44.153  36.983  1.00  0.00    -0.285 N 
ATOM     30  H1  UNL     1       9.270  44.914  37.428  1.00  0.00     0.178 HD
BRANCH  29  31
HETATM   31  S1  UNL     1       7.325  44.602  36.196  1.00  0.00     0.230 S 
HETATM   32  O1  UNL     1       6.957  46.023  36.575  1.00  0.00    -0.206 OA
HETATM   33  O2  UNL     1       7.595  44.638  34.695  1.00  0.00    -0.206 OA
BRANCH  31  34
HETATM   34  C2  UNL     1       5.963  43.512  36.412  1.00  0.00     0.159 C 
HETATM   35  C1  UNL     1       5.636  42.785  35.092  1.00  0.00     0.023 C 
ENDBRANCH  31  34
ENDBRANCH  29  31
ENDBRANCH   1  29
TORSDOF 7
ENDMDL
MODEL 3
REMARK VINA RESULT: -7.105432456      1.304      1.787
REMARK  7 active torsions:
REMARK  status: ('A' for Active; 'I' for Inactive)
REMARK    1  A    between atoms: C2_2  and  S1_3 
REMARK    2  A    between atoms: S1_3  and  N1_6 
REMARK    3  A    between atoms: N1_6  and  C3_8 
REMARK    4  A    between atoms: N2_16  and  C10_17 
REMARK    5  A    between atoms: C14_21  and  C15_22 
REMARK    6  A    between atoms: C18_25  and  C19_26 
REMARK    7  A    between atoms: C19_26  and  N3_27 
REMARK       I    between atoms: N3_27  and  C22_30 
REMARK       I    between atoms: C22_30  and  N4_32 
ROOT
HETATM    1  C3  UNL     1       3.940  37.258  30.469  1.00  0.00     0.043 A 
HETATM    2  C4  UNL     1       2.761  37.024  31.160  1.00  0.00     0.033 A 
HETATM    3  C5  UNL     1       2.668  37.104  32.553  1.00  0.00     0.040 A 
HETATM    4  C6  UNL     1       3.802  37.432  33.269  1.00  0.00     0.085 A 
HETATM    5  C7  UNL     1       4.985  37.670  32.598  1.00  0.00     0.067 A 
HETATM    6  C8  UNL     1       5.048  37.582  31.209  1.00  0.00     0.050 A 
HETATM    7  C9  UNL     1       6.323  38.066  33.041  1.00  0.00     0.257 C 
HETATM    8  O3  UNL     1       7.230  37.758  32.237  1.00  0.00    -0.267 OA
HETATM    9  N2  UNL     1       6.742  38.748  34.242  1.00  0.00    -0.344 N 
HETATM   10  C13 UNL     1       6.134  38.778  35.546  1.00  0.00     0.134 C 
HETATM   11  C14 UNL     1       5.561  37.514  36.030  1.00  0.00     0.038 C 
HETATM   12  C18 UNL     1       4.156  37.147  35.829  1.00  0.00     0.161 C 
HETATM   13  O5  UNL     1       3.506  37.457  34.628  1.00  0.00    -0.343 OA
ENDROOT
BRANCH  12  14
HETATM   14  C19 UNL     1       3.991  35.673  36.168  1.00  0.00     0.281 C 
BRANCH  14  15
HETATM   15  N3  UNL     1       2.914  35.310  36.999  1.00  0.00     0.008 N 
HETATM   16  C20 UNL     1       1.756  35.038  36.104  1.00  0.00     0.285 C 
HETATM   17  C21 UNL     1       2.421  36.494  37.755  1.00  0.00     0.285 C 
HETATM   18  C22 UNL     1       3.086  34.294  37.929  1.00  0.00     0.415 C 
HETATM   19  O4  UNL     1       3.290  34.601  39.144  1.00  0.00    -0.239 OA
HETATM   20  N4  UNL     1       3.048  32.926  37.614  1.00  0.00    -0.337 N 
HETATM   21  C23 UNL     1       3.248  31.979  38.740  1.00  0.00     0.153 C 
HETATM   22  C24 UNL     1       2.841  32.321  36.338  1.00  0.00     0.153 C 
ENDBRANCH  14  15
ENDBRANCH  12  14
BRANCH  11  23
HETATM   23  C15 UNL     1       5.878  37.528  37.557  1.00  0.00    -0.015 C 
HETATM   24  C16 UNL     1       7.351  37.439  37.795  1.00  0.00     0.010 C 
HETATM   25  C17 UNL     1       5.392  38.863  38.132  1.00  0.00     0.010 C 
ENDBRANCH  11  23
BRANCH   9  26
HETATM   26  C10 UNL     1       7.931  39.528  34.014  1.00  0.00     0.079 C 
HETATM   27  C11 UNL     1       9.116  39.178  34.842  1.00  0.00     0.032 C 
HETATM   28  C12 UNL     1       7.514  40.987  34.196  1.00  0.00     0.032 C 
ENDBRANCH   9  26
BRANCH   1  29
HETATM   29  N1  UNL     1       3.944  37.141  29.068  1.00  0.00    -0.285 N 
ATOM     30  H1  UNL     1       4.297  36.257  28.701  1.00  0.00     0.178 HD
BRANCH  29  31
HETATM   31  S1  UNL     1       3.443  38.265  27.906  1.00  0.00     0.230 S 
HETATM   32  O1  UNL     1       2.305  39.102  28.460  1.00  0.00    -0.206 OA
HETATM   33  O2  UNL     1       4.587  39.245  27.661  1.00  0.00    -0.206 OA
BRANCH  31  34
HETATM   34  C2  UNL     1       3.035  37.603  26.329  1.00  0.00     0.159 C 
HETATM   35  C1  UNL     1       3.448  38.578  25.209  1.00  0.00     0.023 C 
ENDBRANCH  31  34
ENDBRANCH  29  31
ENDBRANCH   1  29
TORSDOF 7
ENDMDL
MODEL 4
REMARK VINA RESULT: -7.032789801      2.234      4.974
REMARK  7 active torsions:
REMARK  status: ('A' for Active; 'I' for Inactive)
REMARK    1  A    between atoms: C2_2  and  S1_3 
REMARK    2  A    between atoms: S1_3  and  N1_6 
REMARK    3  A    between atoms: N1_6  and  C3_8 
REMARK    4  A    between atoms: N2_16  and  C10_17 
REMARK    5  A    between atoms: C14_21  and  C15_22 
REMARK    6  A    between atoms: C18_25  and  C19_26 
REMARK    7  A    between atoms: C19_26  and  N3_27 
REMARK       I    between atoms: N3_27  and  C22_30 
REMARK       I    between atoms: C22_30  and  N4_32 
ROOT
HETATM    1  C3  UNL     1       5.787  38.815  30.177  1.00  0.00     0.043 A 
HETATM    2  C4  UNL     1       7.169  38.741  30.264  1.00  0.00     0.033 A 
HETATM    3  C5  UNL     1       7.830  38.160  31.351  1.00  0.00     0.040 A 
HETATM    4  C6  UNL     1       7.072  37.640  32.380  1.00  0.00     0.085 A 
HETATM    5  C7  UNL     1       5.694  37.704  32.309  1.00  0.00     0.067 A 
HETATM    6  C8  UNL     1       5.062  38.288  31.214  1.00  0.00     0.050 A 
HETATM    7  C9  UNL     1       4.625  37.225  33.188  1.00  0.00     0.257 C 
HETATM    8  O3  UNL     1       3.544  37.836  33.041  1.00  0.00    -0.267 OA
HETATM    9  N2  UNL     1       4.633  36.173  34.175  1.00  0.00    -0.344 N 
HETATM   10  C13 UNL     1       5.721  35.652  34.961  1.00  0.00     0.134 C 
HETATM   11  C14 UNL     1       6.686  36.635  35.473  1.00  0.00     0.038 C 
HETATM   12  C18 UNL     1       7.912  36.997  34.755  1.00  0.00     0.161 C 
HETATM   13  O5  UNL     1       7.909  37.116  33.359  1.00  0.00    -0.343 OA
ENDROOT
BRANCH  12  14
HETATM   14  C19 UNL     1       8.499  38.242  35.403  1.00  0.00     0.281 C 
BRANCH  14  15
HETATM   15  N3  UNL     1       9.889  38.270  35.624  1.00  0.00     0.008 N 
HETATM   16  C20 UNL     1      10.207  39.615  36.176  1.00  0.00     0.285 C 
HETATM   17  C21 UNL     1      10.619  38.309  34.328  1.00  0.00     0.285 C 
HETATM   18  C22 UNL     1      10.477  37.262  36.376  1.00  0.00     0.415 C 
HETATM   19  O4  UNL     1      11.079  36.320  35.775  1.00  0.00    -0.239 OA
HETATM   20  N4  UNL     1      10.452  37.211  37.779  1.00  0.00    -0.337 N 
HETATM   21  C23 UNL     1      11.138  36.059  38.415  1.00  0.00     0.153 C 
HETATM   22  C24 UNL     1       9.845  38.134  38.683  1.00  0.00     0.153 C 
ENDBRANCH  14  15
ENDBRANCH  12  14
BRANCH  11  23
HETATM   23  C15 UNL     1       7.057  36.083  36.884  1.00  0.00    -0.015 C 
HETATM   24  C16 UNL     1       5.830  35.864  37.709  1.00  0.00     0.010 C 
HETATM   25  C17 UNL     1       7.744  34.726  36.700  1.00  0.00     0.010 C 
ENDBRANCH  11  23
BRANCH   9  26
HETATM   26  C10 UNL     1       3.331  35.573  34.311  1.00  0.00     0.079 C 
HETATM   27  C11 UNL     1       2.692  35.684  35.650  1.00  0.00     0.032 C 
HETATM   28  C12 UNL     1       3.494  34.118  33.873  1.00  0.00     0.032 C 
ENDBRANCH   9  26
BRANCH   1  29
HETATM   29  N1  UNL     1       5.208  39.429  29.052  1.00  0.00    -0.285 N 
ATOM     30  H1  UNL     1       5.775  40.148  28.602  1.00  0.00     0.178 HD
BRANCH  29  31
HETATM   31  S1  UNL     1       3.699  39.140  28.342  1.00  0.00     0.230 S 
HETATM   32  O1  UNL     1       2.598  39.422  29.346  1.00  0.00    -0.206 OA
HETATM   33  O2  UNL     1       3.495  40.154  27.219  1.00  0.00    -0.206 OA
BRANCH  31  34
HETATM   34  C2  UNL     1       3.495  37.559  27.601  1.00  0.00     0.159 C 
HETATM   35  C1  UNL     1       3.202  37.701  26.094  1.00  0.00     0.023 C 
ENDBRANCH  31  34
ENDBRANCH  29  31
ENDBRANCH   1  29
TORSDOF 7
ENDMDL
MODEL 5
REMARK VINA RESULT: -7.020586939      1.907      2.652
REMARK  7 active torsions:
REMARK  status: ('A' for Active; 'I' for Inactive)
REMARK    1  A    between atoms: C2_2  and  S1_3 
REMARK    2  A    between atoms: S1_3  and  N1_6 
REMARK    3  A    between atoms: N1_6  and  C3_8 
REMARK    4  A    between atoms: N2_16  and  C10_17 
REMARK    5  A    between atoms: C14_21  and  C15_22 
REMARK    6  A    between atoms: C18_25  and  C19_26 
REMARK    7  A    between atoms: C19_26  and  N3_27 
REMARK       I    between atoms: N3_27  and  C22_30 
REMARK       I    between atoms: C22_30  and  N4_32 
ROOT
HETATM    1  C3  UNL     1       3.292  37.422  30.704  1.00  0.00     0.043 A 
HETATM    2  C4  UNL     1       2.640  37.091  31.883  1.00  0.00     0.033 A 
HETATM    3  C5  UNL     1       3.304  36.962  33.107  1.00  0.00     0.040 A 
HETATM    4  C6  UNL     1       4.667  37.174  33.141  1.00  0.00     0.085 A 
HETATM    5  C7  UNL     1       5.333  37.505  31.977  1.00  0.00     0.067 A 
HETATM    6  C8  UNL     1       4.646  37.627  30.771  1.00  0.00     0.050 A 
HETATM    7  C9  UNL     1       6.732  37.825  31.682  1.00  0.00     0.257 C 
HETATM    8  O3  UNL     1       7.047  37.637  30.487  1.00  0.00    -0.267 OA
HETATM    9  N2  UNL     1       7.776  38.317  32.548  1.00  0.00    -0.344 N 
HETATM   10  C13 UNL     1       7.953  38.153  33.967  1.00  0.00     0.134 C 
HETATM   11  C14 UNL     1       7.618  36.833  34.520  1.00  0.00     0.038 C 
HETATM   12  C18 UNL     1       6.294  36.506  35.056  1.00  0.00     0.161 C 
HETATM   13  O5  UNL     1       5.136  36.996  34.438  1.00  0.00    -0.343 OA
ENDROOT
BRANCH  12  14
HETATM   14  C19 UNL     1       6.210  34.998  35.244  1.00  0.00     0.281 C 
BRANCH  14  15
HETATM   15  N3  UNL     1       5.826  34.518  36.510  1.00  0.00     0.008 N 
HETATM   16  C20 UNL     1       5.147  35.644  37.207  1.00  0.00     0.285 C 
HETATM   17  C21 UNL     1       7.022  34.322  37.374  1.00  0.00     0.285 C 
HETATM   18  C22 UNL     1       5.084  33.348  36.596  1.00  0.00     0.415 C 
HETATM   19  O4  UNL     1       5.675  32.266  36.901  1.00  0.00    -0.239 OA
HETATM   20  N4  UNL     1       3.700  33.276  36.367  1.00  0.00    -0.337 N 
HETATM   21  C23 UNL     1       3.072  31.938  36.508  1.00  0.00     0.153 C 
HETATM   22  C24 UNL     1       2.810  34.333  36.010  1.00  0.00     0.153 C 
ENDBRANCH  14  15
ENDBRANCH  12  14
BRANCH  11  23
HETATM   23  C15 UNL     1       8.694  36.617  35.629  1.00  0.00    -0.015 C 
HETATM   24  C16 UNL     1       9.841  35.814  35.107  1.00  0.00     0.010 C 
HETATM   25  C17 UNL     1       9.233  37.989  36.043  1.00  0.00     0.010 C 
ENDBRANCH  11  23
BRANCH   9  26
HETATM   26  C10 UNL     1       8.726  39.117  31.819  1.00  0.00     0.079 C 
HETATM   27  C11 UNL     1       8.379  39.426  30.406  1.00  0.00     0.032 C 
HETATM   28  C12 UNL     1      10.063  38.385  31.935  1.00  0.00     0.032 C 
ENDBRANCH   9  26
BRANCH   1  29
HETATM   29  N1  UNL     1       2.546  37.517  29.517  1.00  0.00    -0.285 N 
ATOM     30  H1  UNL     1       1.604  37.128  29.557  1.00  0.00     0.178 HD
BRANCH  29  31
HETATM   31  S1  UNL     1       2.996  38.187  28.029  1.00  0.00     0.230 S 
HETATM   32  O1  UNL     1       3.991  37.275  27.336  1.00  0.00    -0.206 OA
HETATM   33  O2  UNL     1       1.768  38.212  27.122  1.00  0.00    -0.206 OA
BRANCH  31  34
HETATM   34  C2  UNL     1       3.583  39.843  28.085  1.00  0.00     0.159 C 
HETATM   35  C1  UNL     1       2.861  40.637  29.192  1.00  0.00     0.023 C 
ENDBRANCH  31  34
ENDBRANCH  29  31
ENDBRANCH   1  29
TORSDOF 7
ENDMDL
