MODEL 1
REMARK VINA RESULT: -6.076589524      0.000      0.000
REMARK  20 active torsions:
REMARK  status: ('A' for Active; 'I' for Inactive)
REMARK    1  A    between atoms: O1_2  and  C2_3 
REMARK    2  A    between atoms: C2_3  and  C3_5 
REMARK    3  A    between atoms: C3_5  and  O3_6 
REMARK    4  A    between atoms: C5_9  and  O4_10 
REMARK    5  A    between atoms: O4_10  and  C6_11 
REMARK    6  A    between atoms: C7_13  and  C8_14 
REMARK    7  A    between atoms: C7_13  and  C9_17 
REMARK    8  A    between atoms: C8_14  and  O6_15 
REMARK    9  A    between atoms: C9_17  and  O7_18 
REMARK   10  A    between atoms: C9_17  and  C10_20 
REMARK   11  A    between atoms: C10_20  and  O8_21 
REMARK   12  A    between atoms: C10_20  and  O9_23 
REMARK   13  A    between atoms: C11_26  and  C12_27 
REMARK   14  A    between atoms: C12_27  and  O11_28 
REMARK   15  A    between atoms: C12_27  and  O12_30 
REMARK   16  A    between atoms: C14_33  and  O13_34 
REMARK   17  A    between atoms: C15_36  and  O14_37 
REMARK   18  A    between atoms: C16_39  and  C17_40 
REMARK   19  A    between atoms: C17_40  and  O15_41 
REMARK   20  A    between atoms: C18_43  and  O16_44 
ROOT
HETATM    1  C3  UNL     1      31.541  29.169 -46.839  1.00  0.00     0.170 A 
HETATM    2  C4  UNL     1      31.053  28.271 -45.783  1.00  0.00     0.059 A 
HETATM    3  C5  UNL     1      30.424  27.136 -45.997  1.00  0.00     0.085 A 
HETATM    4  C13 UNL     1      30.162  26.683 -47.360  1.00  0.00     0.042 A 
HETATM    5  C14 UNL     1      29.501  25.470 -47.551  1.00  0.00     0.113 A 
HETATM    6  C15 UNL     1      29.273  25.057 -48.838  1.00  0.00     0.111 A 
HETATM    7  C16 UNL     1      29.691  25.832 -49.904  1.00  0.00     0.035 A 
HETATM    8  C18 UNL     1      30.329  27.006 -49.705  1.00  0.00     0.084 A 
HETATM    9  C19 UNL     1      30.573  27.447 -48.402  1.00  0.00    -0.005 A 
HETATM   10  C20 UNL     1      31.263  28.733 -48.213  1.00  0.00     0.095 A 
ENDROOT
BRANCH   3  11
HETATM   11  O4  UNL     1      29.982  26.322 -44.953  1.00  0.00    -0.317 OA
BRANCH  11  12
HETATM   12  C6  UNL     1      30.965  25.721 -44.159  1.00  0.00     0.304 C 
HETATM   13  O5  UNL     1      31.734  26.656 -43.465  1.00  0.00    -0.317 OA
HETATM   14  C7  UNL     1      32.297  25.932 -42.383  1.00  0.00     0.220 C 
HETATM   15  O10 UNL     1      31.580  24.770 -42.252  1.00  0.00    -0.336 OA
HETATM   16  C11 UNL     1      30.427  24.912 -43.024  1.00  0.00     0.235 C 
BRANCH  14  17
HETATM   17  C8  UNL     1      32.122  26.737 -41.104  1.00  0.00     0.235 C 
BRANCH  17  18
HETATM   18  O6  UNL     1      32.414  25.924 -39.988  1.00  0.00    -0.395 OA
ATOM     19  H6  UNL     1      32.078  26.333 -39.199  1.00  0.00     0.209 HD
ENDBRANCH  17  18
ENDBRANCH  14  17
BRANCH  14  20
HETATM   20  C9  UNL     1      33.732  25.747 -42.765  1.00  0.00     0.237 C 
BRANCH  20  21
HETATM   21  O7  UNL     1      34.507  26.661 -42.070  1.00  0.00    -0.385 OA
ATOM     22  H7  UNL     1      35.236  26.205 -41.664  1.00  0.00     0.210 HD
ENDBRANCH  20  21
BRANCH  20  23
HETATM   23  C10 UNL     1      34.250  24.357 -42.721  1.00  0.00     0.287 C 
BRANCH  23  24
HETATM   24  O8  UNL     1      33.549  23.533 -43.593  1.00  0.00    -0.369 OA
ATOM     25  H8  UNL     1      33.774  22.620 -43.457  1.00  0.00     0.212 HD
ENDBRANCH  23  24
BRANCH  23  26
HETATM   26  O9  UNL     1      33.985  23.861 -41.426  1.00  0.00    -0.369 OA
ATOM     27  H9  UNL     1      34.717  23.302 -41.189  1.00  0.00     0.212 HD
ENDBRANCH  23  26
ENDBRANCH  20  23
ENDBRANCH  14  20
BRANCH  16  28
HETATM   28  C12 UNL     1      29.870  23.578 -43.455  1.00  0.00     0.287 C 
BRANCH  28  29
HETATM   29  O11 UNL     1      30.528  23.228 -44.639  1.00  0.00    -0.369 OA
ATOM     30  H11 UNL     1      29.892  23.305 -45.340  1.00  0.00     0.212 HD
ENDBRANCH  28  29
BRANCH  28  31
HETATM   31  O12 UNL     1      28.526  23.773 -43.768  1.00  0.00    -0.369 OA
ATOM     32  H12 UNL     1      28.016  23.244 -43.165  1.00  0.00     0.212 HD
ENDBRANCH  28  31
ENDBRANCH  16  28
ENDBRANCH  11  12
ENDBRANCH   3  11
BRANCH   1  33
HETATM   33  C2  UNL     1      30.966  30.552 -46.667  1.00  0.00     0.297 C 
HETATM   34  O2  UNL     1      31.445  31.478 -47.355  1.00  0.00    -0.261 OA
BRANCH  33  35
HETATM   35  O1  UNL     1      29.942  30.832 -45.788  1.00  0.00    -0.324 OA
HETATM   36  C1  UNL     1      29.383  32.131 -45.798  1.00  0.00     0.213 C 
ENDBRANCH  33  35
ENDBRANCH   1  33
BRANCH   1  37
HETATM   37  O3  UNL     1      32.953  29.260 -46.614  1.00  0.00    -0.375 OA
ATOM     38  H3  UNL     1      33.387  28.880 -47.369  1.00  0.00     0.211 HD
ENDBRANCH   1  37
BRANCH   5  39
HETATM   39  O13 UNL     1      29.116  24.755 -46.430  1.00  0.00    -0.357 OA
ATOM     40  H13 UNL     1      28.281  24.302 -46.454  1.00  0.00     0.217 HD
ENDBRANCH   5  39
BRANCH   6  41
HETATM   41  O14 UNL     1      28.630  23.877 -49.087  1.00  0.00    -0.357 OA
ATOM     42  H14 UNL     1      28.706  23.453 -49.933  1.00  0.00     0.217 HD
ENDBRANCH   6  41
BRANCH   8  43
HETATM   43  O16 UNL     1      30.752  27.787 -50.765  1.00  0.00    -0.359 OA
ATOM     44  H16 UNL     1      30.813  28.732 -50.691  1.00  0.00     0.217 HD
ENDBRANCH   8  43
BRANCH   7  45
HETATM   45  C17 UNL     1      29.419  25.342 -51.284  1.00  0.00     0.208 C 
BRANCH  45  46
HETATM   46  O15 UNL     1      28.062  25.378 -51.523  1.00  0.00    -0.396 OA
ATOM     47  H15 UNL     1      27.848  24.763 -52.215  1.00  0.00     0.209 HD
ENDBRANCH  45  46
ENDBRANCH   7  45
TORSDOF 20
ENDMDL
MODEL 2
REMARK VINA RESULT: -6.015313702      1.777      3.066
REMARK  20 active torsions:
REMARK  status: ('A' for Active; 'I' for Inactive)
REMARK    1  A    between atoms: O1_2  and  C2_3 
REMARK    2  A    between atoms: C2_3  and  C3_5 
REMARK    3  A    between atoms: C3_5  and  O3_6 
REMARK    4  A    between atoms: C5_9  and  O4_10 
REMARK    5  A    between atoms: O4_10  and  C6_11 
REMARK    6  A    between atoms: C7_13  and  C8_14 
REMARK    7  A    between atoms: C7_13  and  C9_17 
REMARK    8  A    between atoms: C8_14  and  O6_15 
REMARK    9  A    between atoms: C9_17  and  O7_18 
REMARK   10  A    between atoms: C9_17  and  C10_20 
REMARK   11  A    between atoms: C10_20  and  O8_21 
REMARK   12  A    between atoms: C10_20  and  O9_23 
REMARK   13  A    between atoms: C11_26  and  C12_27 
REMARK   14  A    between atoms: C12_27  and  O11_28 
REMARK   15  A    between atoms: C12_27  and  O12_30 
REMARK   16  A    between atoms: C14_33  and  O13_34 
REMARK   17  A    between atoms: C15_36  and  O14_37 
REMARK   18  A    between atoms: C16_39  and  C17_40 
REMARK   19  A    between atoms: C17_40  and  O15_41 
REMARK   20  A    between atoms: C18_43  and  O16_44 
ROOT
HETATM    1  C3  UNL     1      32.154  28.832 -47.307  1.00  0.00     0.170 A 
HETATM    2  C4  UNL     1      32.011  27.792 -46.279  1.00  0.00     0.059 A 
HETATM    3  C5  UNL     1      31.322  26.682 -46.427  1.00  0.00     0.085 A 
HETATM    4  C13 UNL     1      30.626  26.407 -47.680  1.00  0.00     0.042 A 
HETATM    5  C14 UNL     1      29.912  25.216 -47.808  1.00  0.00     0.113 A 
HETATM    6  C15 UNL     1      29.273  24.972 -48.996  1.00  0.00     0.111 A 
HETATM    7  C16 UNL     1      29.343  25.890 -50.027  1.00  0.00     0.035 A 
HETATM    8  C18 UNL     1      30.037  27.041 -49.891  1.00  0.00     0.084 A 
HETATM    9  C19 UNL     1      30.697  27.311 -48.689  1.00  0.00    -0.005 A 
HETATM   10  C20 UNL     1      31.439  28.576 -48.564  1.00  0.00     0.095 A 
ENDROOT
BRANCH   3  11
HETATM   11  O4  UNL     1      31.221  25.726 -45.414  1.00  0.00    -0.317 OA
BRANCH  11  12
HETATM   12  C6  UNL     1      30.687  26.152 -44.193  1.00  0.00     0.304 C 
HETATM   13  O5  UNL     1      29.347  26.527 -44.300  1.00  0.00    -0.317 OA
HETATM   14  C7  UNL     1      28.838  26.440 -42.979  1.00  0.00     0.220 C 
HETATM   15  O10 UNL     1      29.724  25.689 -42.250  1.00  0.00    -0.336 OA
HETATM   16  C11 UNL     1      30.589  25.080 -43.158  1.00  0.00     0.235 C 
BRANCH  14  17
HETATM   17  C8  UNL     1      27.509  25.699 -43.008  1.00  0.00     0.235 C 
BRANCH  17  18
HETATM   18  O6  UNL     1      27.039  25.517 -41.690  1.00  0.00    -0.395 OA
ATOM     19  H6  UNL     1      26.123  25.268 -41.710  1.00  0.00     0.209 HD
ENDBRANCH  17  18
ENDBRANCH  14  17
BRANCH  14  20
HETATM   20  C9  UNL     1      28.704  27.863 -42.536  1.00  0.00     0.237 C 
BRANCH  20  21
HETATM   21  O7  UNL     1      27.382  28.254 -42.665  1.00  0.00    -0.385 OA
ATOM     22  H7  UNL     1      27.000  28.349 -41.800  1.00  0.00     0.210 HD
ENDBRANCH  20  21
BRANCH  20  23
HETATM   23  C10 UNL     1      29.311  28.204 -41.226  1.00  0.00     0.287 C 
BRANCH  23  24
HETATM   24  O8  UNL     1      30.685  27.997 -41.241  1.00  0.00    -0.369 OA
ATOM     25  H8  UNL     1      31.041  27.995 -40.359  1.00  0.00     0.212 HD
ENDBRANCH  23  24
BRANCH  23  26
HETATM   26  O9  UNL     1      28.794  27.288 -40.283  1.00  0.00    -0.369 OA
ATOM     27  H9  UNL     1      29.464  27.167 -39.619  1.00  0.00     0.212 HD
ENDBRANCH  23  26
ENDBRANCH  20  23
ENDBRANCH  14  20
BRANCH  16  28
HETATM   28  C12 UNL     1      31.916  24.736 -42.529  1.00  0.00     0.287 C 
BRANCH  28  29
HETATM   29  O11 UNL     1      32.654  25.923 -42.467  1.00  0.00    -0.369 OA
ATOM     30  H11 UNL     1      33.368  25.836 -43.088  1.00  0.00     0.212 HD
ENDBRANCH  28  29
BRANCH  28  31
HETATM   31  O12 UNL     1      32.581  23.880 -43.406  1.00  0.00    -0.369 OA
ATOM     32  H12 UNL     1      33.296  24.371 -43.794  1.00  0.00     0.212 HD
ENDBRANCH  28  31
ENDBRANCH  16  28
ENDBRANCH  11  12
ENDBRANCH   3  11
BRANCH   1  33
HETATM   33  C2  UNL     1      31.695  30.167 -46.777  1.00  0.00     0.297 C 
HETATM   34  O2  UNL     1      31.602  31.118 -47.581  1.00  0.00    -0.261 OA
BRANCH  33  35
HETATM   35  O1  UNL     1      31.377  30.377 -45.453  1.00  0.00    -0.324 OA
HETATM   36  C1  UNL     1      30.021  30.596 -45.113  1.00  0.00     0.213 C 
ENDBRANCH  33  35
ENDBRANCH   1  33
BRANCH   1  37
HETATM   37  O3  UNL     1      33.565  28.923 -47.538  1.00  0.00    -0.375 OA
ATOM     38  H3  UNL     1      33.690  29.145 -48.453  1.00  0.00     0.211 HD
ENDBRANCH   1  37
BRANCH   5  39
HETATM   39  O13 UNL     1      29.892  24.350 -46.728  1.00  0.00    -0.357 OA
ATOM     40  H13 UNL     1      29.063  24.205 -46.287  1.00  0.00     0.217 HD
ENDBRANCH   5  39
BRANCH   6  41
HETATM   41  O14 UNL     1      28.558  23.821 -49.178  1.00  0.00    -0.357 OA
ATOM     42  H14 UNL     1      27.622  23.853 -49.338  1.00  0.00     0.217 HD
ENDBRANCH   6  41
BRANCH   8  43
HETATM   43  O16 UNL     1      30.113  27.965 -50.917  1.00  0.00    -0.359 OA
ATOM     44  H16 UNL     1      30.262  28.886 -50.745  1.00  0.00     0.217 HD
ENDBRANCH   8  43
BRANCH   7  45
HETATM   45  C17 UNL     1      28.631  25.581 -51.299  1.00  0.00     0.208 C 
BRANCH  45  46
HETATM   46  O15 UNL     1      29.306  24.583 -51.970  1.00  0.00    -0.396 OA
ATOM     47  H15 UNL     1      30.124  24.929 -52.308  1.00  0.00     0.209 HD
ENDBRANCH  45  46
ENDBRANCH   7  45
TORSDOF 20
ENDMDL
MODEL 3
REMARK VINA RESULT: -5.882876767      1.663      3.560
REMARK  20 active torsions:
REMARK  status: ('A' for Active; 'I' for Inactive)
REMARK    1  A    between atoms: O1_2  and  C2_3 
REMARK    2  A    between atoms: C2_3  and  C3_5 
REMARK    3  A    between atoms: C3_5  and  O3_6 
REMARK    4  A    between atoms: C5_9  and  O4_10 
REMARK    5  A    between atoms: O4_10  and  C6_11 
REMARK    6  A    between atoms: C7_13  and  C8_14 
REMARK    7  A    between atoms: C7_13  and  C9_17 
REMARK    8  A    between atoms: C8_14  and  O6_15 
REMARK    9  A    between atoms: C9_17  and  O7_18 
REMARK   10  A    between atoms: C9_17  and  C10_20 
REMARK   11  A    between atoms: C10_20  and  O8_21 
REMARK   12  A    between atoms: C10_20  and  O9_23 
REMARK   13  A    between atoms: C11_26  and  C12_27 
REMARK   14  A    between atoms: C12_27  and  O11_28 
REMARK   15  A    between atoms: C12_27  and  O12_30 
REMARK   16  A    between atoms: C14_33  and  O13_34 
REMARK   17  A    between atoms: C15_36  and  O14_37 
REMARK   18  A    between atoms: C16_39  and  C17_40 
REMARK   19  A    between atoms: C17_40  and  O15_41 
REMARK   20  A    between atoms: C18_43  and  O16_44 
ROOT
HETATM    1  C3  UNL     1      31.592  29.554 -47.093  1.00  0.00     0.170 A 
HETATM    2  C4  UNL     1      31.627  28.434 -46.143  1.00  0.00     0.059 A 
HETATM    3  C5  UNL     1      31.278  27.199 -46.427  1.00  0.00     0.085 A 
HETATM    4  C13 UNL     1      30.813  26.853 -47.767  1.00  0.00     0.042 A 
HETATM    5  C14 UNL     1      30.460  25.532 -48.038  1.00  0.00     0.113 A 
HETATM    6  C15 UNL     1      30.035  25.225 -49.305  1.00  0.00     0.111 A 
HETATM    7  C16 UNL     1      29.964  26.209 -50.274  1.00  0.00     0.035 A 
HETATM    8  C18 UNL     1      30.308  27.486 -49.998  1.00  0.00     0.084 A 
HETATM    9  C19 UNL     1      30.744  27.822 -48.714  1.00  0.00    -0.005 A 
HETATM   10  C20 UNL     1      31.105  29.222 -48.438  1.00  0.00     0.095 A 
ENDROOT
BRANCH   3  11
HETATM   11  O4  UNL     1      31.332  26.173 -45.481  1.00  0.00    -0.317 OA
BRANCH  11  12
HETATM   12  C6  UNL     1      30.535  26.320 -44.342  1.00  0.00     0.304 C 
HETATM   13  O5  UNL     1      29.317  25.648 -44.453  1.00  0.00    -0.317 OA
HETATM   14  C7  UNL     1      28.878  25.467 -43.117  1.00  0.00     0.220 C 
HETATM   15  O10 UNL     1      29.961  25.671 -42.300  1.00  0.00    -0.336 OA
HETATM   16  C11 UNL     1      31.093  25.675 -43.115  1.00  0.00     0.235 C 
BRANCH  14  17
HETATM   17  C8  UNL     1      28.420  24.028 -42.936  1.00  0.00     0.235 C 
BRANCH  17  18
HETATM   18  O6  UNL     1      27.538  23.676 -43.980  1.00  0.00    -0.395 OA
ATOM     19  H6  UNL     1      26.829  23.148 -43.635  1.00  0.00     0.209 HD
ENDBRANCH  17  18
ENDBRANCH  14  17
BRANCH  14  20
HETATM   20  C9  UNL     1      27.769  26.459 -42.952  1.00  0.00     0.237 C 
BRANCH  20  21
HETATM   21  O7  UNL     1      26.814  25.931 -42.098  1.00  0.00    -0.385 OA
ATOM     22  H7  UNL     1      26.005  25.801 -42.579  1.00  0.00     0.210 HD
ENDBRANCH  20  21
BRANCH  20  23
HETATM   23  C10 UNL     1      28.172  27.848 -42.623  1.00  0.00     0.287 C 
BRANCH  23  24
HETATM   24  O8  UNL     1      27.229  28.465 -41.810  1.00  0.00    -0.369 OA
ATOM     25  H8  UNL     1      27.451  29.376 -41.659  1.00  0.00     0.212 HD
ENDBRANCH  23  24
BRANCH  23  26
HETATM   26  O9  UNL     1      28.169  28.574 -43.835  1.00  0.00    -0.369 OA
ATOM     27  H9  UNL     1      27.326  28.422 -44.246  1.00  0.00     0.212 HD
ENDBRANCH  23  26
ENDBRANCH  20  23
ENDBRANCH  14  20
BRANCH  16  28
HETATM   28  C12 UNL     1      32.229  26.452 -42.498  1.00  0.00     0.287 C 
BRANCH  28  29
HETATM   29  O11 UNL     1      31.976  27.805 -42.746  1.00  0.00    -0.369 OA
ATOM     30  H11 UNL     1      32.223  28.280 -41.960  1.00  0.00     0.212 HD
ENDBRANCH  28  29
BRANCH  28  31
HETATM   31  O12 UNL     1      33.389  26.112 -43.193  1.00  0.00    -0.369 OA
ATOM     32  H12 UNL     1      33.942  26.884 -43.212  1.00  0.00     0.212 HD
ENDBRANCH  28  31
ENDBRANCH  16  28
ENDBRANCH  11  12
ENDBRANCH   3  11
BRANCH   1  33
HETATM   33  C2  UNL     1      30.742  30.678 -46.558  1.00  0.00     0.297 C 
HETATM   34  O2  UNL     1      30.762  31.770 -47.163  1.00  0.00    -0.261 OA
BRANCH  33  35
HETATM   35  O1  UNL     1      29.950  30.548 -45.437  1.00  0.00    -0.324 OA
HETATM   36  C1  UNL     1      29.953  31.596 -44.486  1.00  0.00     0.213 C 
ENDBRANCH  33  35
ENDBRANCH   1  33
BRANCH   1  37
HETATM   37  O3  UNL     1      32.944  30.026 -47.149  1.00  0.00    -0.375 OA
ATOM     38  H3  UNL     1      33.332  29.688 -47.947  1.00  0.00     0.211 HD
ENDBRANCH   1  37
BRANCH   5  39
HETATM   39  O13 UNL     1      30.561  24.608 -47.012  1.00  0.00    -0.357 OA
ATOM     40  H13 UNL     1      30.375  23.698 -47.211  1.00  0.00     0.217 HD
ENDBRANCH   5  39
BRANCH   6  41
HETATM   41  O14 UNL     1      29.676  23.947 -49.628  1.00  0.00    -0.357 OA
ATOM     42  H14 UNL     1      28.763  23.687 -49.634  1.00  0.00     0.217 HD
ENDBRANCH   6  41
BRANCH   8  43
HETATM   43  O16 UNL     1      30.240  28.476 -50.961  1.00  0.00    -0.359 OA
ATOM     44  H16 UNL     1      29.941  29.353 -50.751  1.00  0.00     0.217 HD
ENDBRANCH   8  43
BRANCH   7  45
HETATM   45  C17 UNL     1      29.495  25.828 -51.636  1.00  0.00     0.208 C 
BRANCH  45  46
HETATM   46  O15 UNL     1      28.186  25.400 -51.565  1.00  0.00    -0.396 OA
ATOM     47  H15 UNL     1      27.611  26.097 -51.857  1.00  0.00     0.209 HD
ENDBRANCH  45  46
ENDBRANCH   7  45
TORSDOF 20
ENDMDL
MODEL 4
REMARK VINA RESULT: -5.829195661      1.757      2.670
REMARK  20 active torsions:
REMARK  status: ('A' for Active; 'I' for Inactive)
REMARK    1  A    between atoms: O1_2  and  C2_3 
REMARK    2  A    between atoms: C2_3  and  C3_5 
REMARK    3  A    between atoms: C3_5  and  O3_6 
REMARK    4  A    between atoms: C5_9  and  O4_10 
REMARK    5  A    between atoms: O4_10  and  C6_11 
REMARK    6  A    between atoms: C7_13  and  C8_14 
REMARK    7  A    between atoms: C7_13  and  C9_17 
REMARK    8  A    between atoms: C8_14  and  O6_15 
REMARK    9  A    between atoms: C9_17  and  O7_18 
REMARK   10  A    between atoms: C9_17  and  C10_20 
REMARK   11  A    between atoms: C10_20  and  O8_21 
REMARK   12  A    between atoms: C10_20  and  O9_23 
REMARK   13  A    between atoms: C11_26  and  C12_27 
REMARK   14  A    between atoms: C12_27  and  O11_28 
REMARK   15  A    between atoms: C12_27  and  O12_30 
REMARK   16  A    between atoms: C14_33  and  O13_34 
REMARK   17  A    between atoms: C15_36  and  O14_37 
REMARK   18  A    between atoms: C16_39  and  C17_40 
REMARK   19  A    between atoms: C17_40  and  O15_41 
REMARK   20  A    between atoms: C18_43  and  O16_44 
ROOT
HETATM    1  C3  UNL     1      31.975  28.794 -47.171  1.00  0.00     0.170 A 
HETATM    2  C4  UNL     1      31.797  27.730 -46.174  1.00  0.00     0.059 A 
HETATM    3  C5  UNL     1      31.132  26.615 -46.378  1.00  0.00     0.085 A 
HETATM    4  C13 UNL     1      30.499  26.359 -47.669  1.00  0.00     0.042 A 
HETATM    5  C14 UNL     1      29.808  25.162 -47.856  1.00  0.00     0.113 A 
HETATM    6  C15 UNL     1      29.230  24.937 -49.077  1.00  0.00     0.111 A 
HETATM    7  C16 UNL     1      29.336  25.878 -50.085  1.00  0.00     0.035 A 
HETATM    8  C18 UNL     1      30.007  27.034 -49.890  1.00  0.00     0.084 A 
HETATM    9  C19 UNL     1      30.606  27.286 -48.653  1.00  0.00    -0.005 A 
HETATM   10  C20 UNL     1      31.324  28.557 -48.466  1.00  0.00     0.095 A 
ENDROOT
BRANCH   3  11
HETATM   11  O4  UNL     1      30.996  25.636 -45.391  1.00  0.00    -0.317 OA
BRANCH  11  12
HETATM   12  C6  UNL     1      30.599  26.069 -44.122  1.00  0.00     0.304 C 
HETATM   13  O5  UNL     1      30.001  27.329 -44.150  1.00  0.00    -0.317 OA
HETATM   14  C7  UNL     1      29.237  27.397 -42.958  1.00  0.00     0.220 C 
HETATM   15  O10 UNL     1      29.100  26.115 -42.488  1.00  0.00    -0.336 OA
HETATM   16  C11 UNL     1      29.502  25.259 -43.513  1.00  0.00     0.235 C 
BRANCH  14  17
HETATM   17  C8  UNL     1      27.849  27.926 -43.288  1.00  0.00     0.235 C 
BRANCH  17  18
HETATM   18  O6  UNL     1      27.112  28.099 -42.097  1.00  0.00    -0.395 OA
ATOM     19  H6  UNL     1      26.618  28.908 -42.143  1.00  0.00     0.209 HD
ENDBRANCH  17  18
ENDBRANCH  14  17
BRANCH  14  20
HETATM   20  C9  UNL     1      30.016  28.313 -42.067  1.00  0.00     0.237 C 
BRANCH  20  21
HETATM   21  O7  UNL     1      29.398  29.554 -42.045  1.00  0.00    -0.385 OA
ATOM     22  H7  UNL     1      30.003  30.207 -42.377  1.00  0.00     0.210 HD
ENDBRANCH  20  21
BRANCH  20  23
HETATM   23  C10 UNL     1      30.365  27.787 -40.725  1.00  0.00     0.287 C 
BRANCH  23  24
HETATM   24  O8  UNL     1      31.163  26.654 -40.822  1.00  0.00    -0.369 OA
ATOM     25  H8  UNL     1      32.083  26.875 -40.734  1.00  0.00     0.212 HD
ENDBRANCH  23  24
BRANCH  23  26
HETATM   26  O9  UNL     1      29.160  27.358 -40.126  1.00  0.00    -0.369 OA
ATOM     27  H9  UNL     1      28.836  26.632 -40.646  1.00  0.00     0.212 HD
ENDBRANCH  23  26
ENDBRANCH  20  23
ENDBRANCH  14  20
BRANCH  16  28
HETATM   28  C12 UNL     1      29.968  23.926 -42.983  1.00  0.00     0.287 C 
BRANCH  28  29
HETATM   29  O11 UNL     1      31.299  24.091 -42.586  1.00  0.00    -0.369 OA
ATOM     30  H11 UNL     1      31.649  23.222 -42.426  1.00  0.00     0.212 HD
ENDBRANCH  28  29
BRANCH  28  31
HETATM   31  O12 UNL     1      29.961  23.030 -44.051  1.00  0.00    -0.369 OA
ATOM     32  H12 UNL     1      30.508  22.293 -43.805  1.00  0.00     0.212 HD
ENDBRANCH  28  31
ENDBRANCH  16  28
ENDBRANCH  11  12
ENDBRANCH   3  11
BRANCH   1  33
HETATM   33  C2  UNL     1      31.473  30.112 -46.636  1.00  0.00     0.297 C 
HETATM   34  O2  UNL     1      31.528  31.109 -47.384  1.00  0.00    -0.261 OA
BRANCH  33  35
HETATM   35  O1  UNL     1      30.961  30.256 -45.364  1.00  0.00    -0.324 OA
HETATM   36  C1  UNL     1      29.751  30.971 -45.204  1.00  0.00     0.213 C 
ENDBRANCH  33  35
ENDBRANCH   1  33
BRANCH   1  37
HETATM   37  O3  UNL     1      33.393  28.908 -47.333  1.00  0.00    -0.375 OA
ATOM     38  H3  UNL     1      33.769  29.046 -46.472  1.00  0.00     0.211 HD
ENDBRANCH   1  37
BRANCH   5  39
HETATM   39  O13 UNL     1      29.750  24.273 -46.797  1.00  0.00    -0.357 OA
ATOM     40  H13 UNL     1      28.894  24.037 -46.459  1.00  0.00     0.217 HD
ENDBRANCH   5  39
BRANCH   6  41
HETATM   41  O14 UNL     1      28.540  23.781 -49.318  1.00  0.00    -0.357 OA
ATOM     42  H14 UNL     1      27.914  23.731 -50.031  1.00  0.00     0.217 HD
ENDBRANCH   6  41
BRANCH   8  43
HETATM   43  O16 UNL     1      30.119  27.981 -50.892  1.00  0.00    -0.359 OA
ATOM     44  H16 UNL     1      29.632  28.795 -50.862  1.00  0.00     0.217 HD
ENDBRANCH   8  43
BRANCH   7  45
HETATM   45  C17 UNL     1      28.690  25.588 -51.395  1.00  0.00     0.208 C 
BRANCH  45  46
HETATM   46  O15 UNL     1      29.349  24.544 -52.009  1.00  0.00    -0.396 OA
ATOM     47  H15 UNL     1      29.782  24.862 -52.792  1.00  0.00     0.209 HD
ENDBRANCH  45  46
ENDBRANCH   7  45
TORSDOF 20
ENDMDL
MODEL 5
REMARK VINA RESULT: -5.787640208      2.805      7.355
REMARK  20 active torsions:
REMARK  status: ('A' for Active; 'I' for Inactive)
REMARK    1  A    between atoms: O1_2  and  C2_3 
REMARK    2  A    between atoms: C2_3  and  C3_5 
REMARK    3  A    between atoms: C3_5  and  O3_6 
REMARK    4  A    between atoms: C5_9  and  O4_10 
REMARK    5  A    between atoms: O4_10  and  C6_11 
REMARK    6  A    between atoms: C7_13  and  C8_14 
REMARK    7  A    between atoms: C7_13  and  C9_17 
REMARK    8  A    between atoms: C8_14  and  O6_15 
REMARK    9  A    between atoms: C9_17  and  O7_18 
REMARK   10  A    between atoms: C9_17  and  C10_20 
REMARK   11  A    between atoms: C10_20  and  O8_21 
REMARK   12  A    between atoms: C10_20  and  O9_23 
REMARK   13  A    between atoms: C11_26  and  C12_27 
REMARK   14  A    between atoms: C12_27  and  O11_28 
REMARK   15  A    between atoms: C12_27  and  O12_30 
REMARK   16  A    between atoms: C14_33  and  O13_34 
REMARK   17  A    between atoms: C15_36  and  O14_37 
REMARK   18  A    between atoms: C16_39  and  C17_40 
REMARK   19  A    between atoms: C17_40  and  O15_41 
REMARK   20  A    between atoms: C18_43  and  O16_44 
ROOT
HETATM    1  C3  UNL     1      31.503  28.483 -47.109  1.00  0.00     0.170 A 
HETATM    2  C4  UNL     1      31.818  27.448 -48.104  1.00  0.00     0.059 A 
HETATM    3  C5  UNL     1      31.471  26.184 -48.005  1.00  0.00     0.085 A 
HETATM    4  C13 UNL     1      30.719  25.714 -46.845  1.00  0.00     0.042 A 
HETATM    5  C14 UNL     1      30.358  24.368 -46.775  1.00  0.00     0.113 A 
HETATM    6  C15 UNL     1      29.644  23.949 -45.683  1.00  0.00     0.111 A 
HETATM    7  C16 UNL     1      29.299  24.845 -44.688  1.00  0.00     0.035 A 
HETATM    8  C18 UNL     1      29.656  26.146 -44.767  1.00  0.00     0.084 A 
HETATM    9  C19 UNL     1      30.384  26.596 -45.871  1.00  0.00    -0.005 A 
HETATM   10  C20 UNL     1      30.766  28.016 -45.928  1.00  0.00     0.095 A 
ENDROOT
BRANCH   3  11
HETATM   11  O4  UNL     1      31.797  25.243 -48.983  1.00  0.00    -0.317 OA
BRANCH  11  12
HETATM   12  C6  UNL     1      31.636  25.633 -50.316  1.00  0.00     0.304 C 
HETATM   13  O5  UNL     1      32.734  25.294 -51.108  1.00  0.00    -0.317 OA
HETATM   14  C7  UNL     1      32.237  25.284 -52.435  1.00  0.00     0.220 C 
HETATM   15  O10 UNL     1      30.868  25.233 -52.358  1.00  0.00    -0.336 OA
HETATM   16  C11 UNL     1      30.545  24.914 -51.039  1.00  0.00     0.235 C 
BRANCH  14  17
HETATM   17  C8  UNL     1      32.714  24.019 -53.133  1.00  0.00     0.235 C 
BRANCH  17  18
HETATM   18  O6  UNL     1      31.897  23.760 -54.254  1.00  0.00    -0.395 OA
ATOM     19  H6  UNL     1      31.538  24.575 -54.583  1.00  0.00     0.209 HD
ENDBRANCH  17  18
ENDBRANCH  14  17
BRANCH  14  20
HETATM   20  C9  UNL     1      32.786  26.533 -53.049  1.00  0.00     0.237 C 
BRANCH  20  21
HETATM   21  O7  UNL     1      33.894  26.211 -53.816  1.00  0.00    -0.385 OA
ATOM     22  H7  UNL     1      34.620  26.769 -53.563  1.00  0.00     0.210 HD
ENDBRANCH  20  21
BRANCH  20  23
HETATM   23  C10 UNL     1      31.809  27.413 -53.736  1.00  0.00     0.287 C 
BRANCH  23  24
HETATM   24  O8  UNL     1      30.848  27.884 -52.850  1.00  0.00    -0.369 OA
ATOM     25  H8  UNL     1      30.827  28.834 -52.840  1.00  0.00     0.212 HD
ENDBRANCH  23  24
BRANCH  23  26
HETATM   26  O9  UNL     1      31.114  26.608 -54.665  1.00  0.00    -0.369 OA
ATOM     27  H9  UNL     1      31.769  26.182 -55.207  1.00  0.00     0.212 HD
ENDBRANCH  23  26
ENDBRANCH  20  23
ENDBRANCH  14  20
BRANCH  16  28
HETATM   28  C12 UNL     1      29.165  25.394 -50.665  1.00  0.00     0.287 C 
BRANCH  28  29
HETATM   29  O11 UNL     1      28.676  24.510 -49.698  1.00  0.00    -0.369 OA
ATOM     30  H11 UNL     1      28.230  23.811 -50.163  1.00  0.00     0.212 HD
ENDBRANCH  28  29
BRANCH  28  31
HETATM   31  O12 UNL     1      28.360  25.259 -51.795  1.00  0.00    -0.369 OA
ATOM     32  H12 UNL     1      27.912  24.424 -51.725  1.00  0.00     0.212 HD
ENDBRANCH  28  31
ENDBRANCH  16  28
ENDBRANCH  11  12
ENDBRANCH   3  11
BRANCH   1  33
HETATM   33  C2  UNL     1      32.764  29.159 -46.631  1.00  0.00     0.297 C 
HETATM   34  O2  UNL     1      33.486  28.548 -45.817  1.00  0.00    -0.261 OA
BRANCH  33  35
HETATM   35  O1  UNL     1      33.145  30.414 -47.055  1.00  0.00    -0.324 OA
HETATM   36  C1  UNL     1      34.158  30.513 -48.038  1.00  0.00     0.213 C 
ENDBRANCH  33  35
ENDBRANCH   1  33
BRANCH   1  37
HETATM   37  O3  UNL     1      30.739  29.458 -47.829  1.00  0.00    -0.375 OA
ATOM     38  H3  UNL     1      29.898  29.539 -47.394  1.00  0.00     0.211 HD
ENDBRANCH   1  37
BRANCH   5  39
HETATM   39  O13 UNL     1      30.742  23.538 -47.814  1.00  0.00    -0.357 OA
ATOM     40  H13 UNL     1      30.574  22.607 -47.727  1.00  0.00     0.217 HD
ENDBRANCH   5  39
BRANCH   6  41
HETATM   41  O14 UNL     1      29.263  22.642 -45.561  1.00  0.00    -0.357 OA
ATOM     42  H14 UNL     1      28.383  22.418 -45.283  1.00  0.00     0.217 HD
ENDBRANCH   6  41
BRANCH   8  43
HETATM   43  O16 UNL     1      29.315  27.049 -43.777  1.00  0.00    -0.359 OA
ATOM     44  H16 UNL     1      29.977  27.527 -43.293  1.00  0.00     0.217 HD
ENDBRANCH   8  43
BRANCH   7  45
HETATM   45  C17 UNL     1      28.524  24.341 -43.520  1.00  0.00     0.208 C 
BRANCH  45  46
HETATM   46  O15 UNL     1      27.364  23.743 -43.966  1.00  0.00    -0.396 OA
ATOM     47  H15 UNL     1      27.540  23.280 -44.776  1.00  0.00     0.209 HD
ENDBRANCH  45  46
ENDBRANCH   7  45
TORSDOF 20
ENDMDL
