MODEL 1
REMARK VINA RESULT: -7.800641309      0.000      0.000
REMARK  7 active torsions:
REMARK  status: ('A' for Active; 'I' for Inactive)
REMARK    1  A    between atoms: C2_2  and  C3_3 
REMARK    2  A    between atoms: C2_2  and  C26_32 
REMARK    3  A    between atoms: C3_3  and  C4_4 
REMARK    4  A    between atoms: C4_4  and  C5_5 
REMARK    5  A    between atoms: C5_5  and  C7_7 
REMARK    6  A    between atoms: C16_16  and  O1_17 
REMARK    7  A    between atoms: O1_17  and  C17_18 
ROOT
HETATM    1  C7  UNL     1      49.620  32.738  36.170  1.00  0.00    -0.002 C 
HETATM    2  C8  UNL     1      49.288  31.240  35.934  1.00  0.00     0.006 C 
HETATM    3  C9  UNL     1      48.793  30.725  37.233  1.00  0.00     0.006 C 
HETATM    4  C10 UNL     1      48.238  31.908  38.003  1.00  0.00     0.001 C 
HETATM    5  C11 UNL     1      48.773  31.802  39.361  1.00  0.00     0.026 C 
HETATM    6  C12 UNL     1      48.321  30.443  39.919  1.00  0.00     0.010 C 
HETATM    7  C13 UNL     1      49.186  30.007  41.060  1.00  0.00     0.026 C 
HETATM    8  C14 UNL     1      49.815  31.240  41.695  1.00  0.00     0.091 C 
HETATM    9  C15 UNL     1      50.119  30.981  43.154  1.00  0.00     0.067 C 
HETATM   10  C16 UNL     1      48.875  31.413  43.911  1.00  0.00     0.227 C 
HETATM   11  C18 UNL     1      48.383  32.519  43.021  1.00  0.00     0.251 C 
HETATM   12  O3  UNL     1      47.713  33.502  43.397  1.00  0.00    -0.270 OA
HETATM   13  N2  UNL     1      48.800  32.269  41.691  1.00  0.00    -0.329 N 
HETATM   14  C19 UNL     1      48.429  32.817  40.372  1.00  0.00     0.096 C 
HETATM   15  C20 UNL     1      46.965  33.140  40.475  1.00  0.00     0.047 C 
HETATM   16  C21 UNL     1      49.296  34.015  40.199  1.00  0.00     0.155 C 
HETATM   17  O4  UNL     1      49.571  34.712  41.135  1.00  0.00    -0.295 OA
HETATM   18  C22 UNL     1      49.878  34.430  38.866  1.00  0.00     0.082 C 
HETATM   19  C23 UNL     1      48.748  34.367  37.899  1.00  0.00     0.017 C 
HETATM   20  C24 UNL     1      48.564  33.088  37.153  1.00  0.00    -0.036 C 
HETATM   21  C25 UNL     1      47.289  33.344  36.315  1.00  0.00     0.016 C 
ENDROOT
BRANCH   1  22
HETATM   22  C5  UNL     1      49.575  33.315  34.818  1.00  0.00    -0.014 C 
HETATM   23  C6  UNL     1      49.768  32.133  33.842  1.00  0.00     0.010 C 
BRANCH  22  24
HETATM   24  C4  UNL     1      50.537  34.343  34.391  1.00  0.00     0.009 C 
BRANCH  24  25
HETATM   25  C3  UNL     1      50.239  35.740  34.886  1.00  0.00     0.034 C 
BRANCH  25  26
HETATM   26  C2  UNL     1      51.190  36.168  35.920  1.00  0.00    -0.086 C 
HETATM   27  C1  UNL     1      52.282  35.462  36.147  1.00  0.00     0.014 C 
BRANCH  26  28
HETATM   28  C26 UNL     1      50.945  37.384  36.717  1.00  0.00     0.005 C 
HETATM   29  C27 UNL     1      50.887  38.619  35.834  1.00  0.00     0.014 C 
HETATM   30  C28 UNL     1      51.919  37.596  37.827  1.00  0.00     0.014 C 
ENDBRANCH  26  28
ENDBRANCH  25  26
ENDBRANCH  24  25
ENDBRANCH  22  24
ENDBRANCH   1  22
BRANCH  10  31
HETATM   31  O1  UNL     1      49.149  31.854  45.206  1.00  0.00    -0.291 OA
BRANCH  31  32
HETATM   32  C17 UNL     1      48.844  30.991  46.270  1.00  0.00     0.373 C 
HETATM   33  N1  UNL     1      49.735  30.020  46.758  1.00  0.00    -0.032 NA
HETATM   34  O2  UNL     1      47.714  31.082  46.824  1.00  0.00    -0.242 OA
ENDBRANCH  31  32
ENDBRANCH  10  31
TORSDOF 7
ENDMDL
MODEL 2
REMARK VINA RESULT: -7.512333991      1.288      2.079
REMARK  7 active torsions:
REMARK  status: ('A' for Active; 'I' for Inactive)
REMARK    1  A    between atoms: C2_2  and  C3_3 
REMARK    2  A    between atoms: C2_2  and  C26_32 
REMARK    3  A    between atoms: C3_3  and  C4_4 
REMARK    4  A    between atoms: C4_4  and  C5_5 
REMARK    5  A    between atoms: C5_5  and  C7_7 
REMARK    6  A    between atoms: C16_16  and  O1_17 
REMARK    7  A    between atoms: O1_17  and  C17_18 
ROOT
HETATM    1  C7  UNL     1      49.760  32.095  36.090  1.00  0.00    -0.002 C 
HETATM    2  C8  UNL     1      49.408  30.586  36.000  1.00  0.00     0.006 C 
HETATM    3  C9  UNL     1      48.857  30.218  37.325  1.00  0.00     0.006 C 
HETATM    4  C10 UNL     1      48.297  31.483  37.946  1.00  0.00     0.001 C 
HETATM    5  C11 UNL     1      48.781  31.512  39.327  1.00  0.00     0.026 C 
HETATM    6  C12 UNL     1      48.284  30.226  40.007  1.00  0.00     0.010 C 
HETATM    7  C13 UNL     1      49.099  29.899  41.219  1.00  0.00     0.026 C 
HETATM    8  C14 UNL     1      49.727  31.182  41.745  1.00  0.00     0.091 C 
HETATM    9  C15 UNL     1      49.974  31.073  43.233  1.00  0.00     0.067 C 
HETATM   10  C16 UNL     1      48.712  31.601  43.894  1.00  0.00     0.227 C 
HETATM   11  C18 UNL     1      48.274  32.615  42.875  1.00  0.00     0.251 C 
HETATM   12  O3  UNL     1      47.610  33.642  43.121  1.00  0.00    -0.270 OA
HETATM   13  N2  UNL     1      48.733  32.221  41.595  1.00  0.00    -0.329 N 
HETATM   14  C19 UNL     1      48.420  32.633  40.213  1.00  0.00     0.096 C 
HETATM   15  C20 UNL     1      46.960  32.987  40.226  1.00  0.00     0.047 C 
HETATM   16  C21 UNL     1      49.316  33.793  39.949  1.00  0.00     0.155 C 
HETATM   17  O4  UNL     1      49.570  34.579  40.818  1.00  0.00    -0.295 OA
HETATM   18  C22 UNL     1      49.953  34.057  38.603  1.00  0.00     0.082 C 
HETATM   19  C23 UNL     1      48.858  33.909  37.606  1.00  0.00     0.017 C 
HETATM   20  C24 UNL     1      48.676  32.562  36.991  1.00  0.00    -0.036 C 
HETATM   21  C25 UNL     1      47.438  32.749  36.084  1.00  0.00     0.016 C 
ENDROOT
BRANCH   1  22
HETATM   22  C5  UNL     1      49.775  32.528  34.685  1.00  0.00    -0.014 C 
HETATM   23  C6  UNL     1      50.043  31.257  33.849  1.00  0.00     0.010 C 
BRANCH  22  24
HETATM   24  C4  UNL     1      50.737  33.531  34.202  1.00  0.00     0.009 C 
BRANCH  24  25
HETATM   25  C3  UNL     1      50.201  34.475  33.151  1.00  0.00     0.034 C 
BRANCH  25  26
HETATM   26  C2  UNL     1      49.183  35.382  33.699  1.00  0.00    -0.086 C 
HETATM   27  C1  UNL     1      49.474  36.157  34.729  1.00  0.00     0.014 C 
BRANCH  26  28
HETATM   28  C26 UNL     1      47.832  35.446  33.115  1.00  0.00     0.005 C 
HETATM   29  C27 UNL     1      46.798  35.832  34.158  1.00  0.00     0.014 C 
HETATM   30  C28 UNL     1      47.408  34.199  32.413  1.00  0.00     0.014 C 
ENDBRANCH  26  28
ENDBRANCH  25  26
ENDBRANCH  24  25
ENDBRANCH  22  24
ENDBRANCH   1  22
BRANCH  10  31
HETATM   31  O1  UNL     1      48.948  32.171  45.145  1.00  0.00    -0.291 OA
BRANCH  31  32
HETATM   32  C17 UNL     1      48.823  31.347  46.275  1.00  0.00     0.373 C 
HETATM   33  N1  UNL     1      49.877  31.097  47.169  1.00  0.00    -0.032 NA
HETATM   34  O2  UNL     1      47.711  30.796  46.507  1.00  0.00    -0.242 OA
ENDBRANCH  31  32
ENDBRANCH  10  31
TORSDOF 7
ENDMDL
MODEL 3
REMARK VINA RESULT: -7.187357305      1.144      1.966
REMARK  7 active torsions:
REMARK  status: ('A' for Active; 'I' for Inactive)
REMARK    1  A    between atoms: C2_2  and  C3_3 
REMARK    2  A    between atoms: C2_2  and  C26_32 
REMARK    3  A    between atoms: C3_3  and  C4_4 
REMARK    4  A    between atoms: C4_4  and  C5_5 
REMARK    5  A    between atoms: C5_5  and  C7_7 
REMARK    6  A    between atoms: C16_16  and  O1_17 
REMARK    7  A    between atoms: O1_17  and  C17_18 
ROOT
HETATM    1  C7  UNL     1      49.634  32.648  36.118  1.00  0.00    -0.002 C 
HETATM    2  C8  UNL     1      49.285  31.151  35.899  1.00  0.00     0.006 C 
HETATM    3  C9  UNL     1      48.790  30.656  37.205  1.00  0.00     0.006 C 
HETATM    4  C10 UNL     1      48.251  31.852  37.965  1.00  0.00     0.001 C 
HETATM    5  C11 UNL     1      48.790  31.755  39.322  1.00  0.00     0.026 C 
HETATM    6  C12 UNL     1      48.327  30.407  39.897  1.00  0.00     0.010 C 
HETATM    7  C13 UNL     1      49.193  29.975  41.039  1.00  0.00     0.026 C 
HETATM    8  C14 UNL     1      49.836  31.207  41.657  1.00  0.00     0.091 C 
HETATM    9  C15 UNL     1      50.144  30.961  43.118  1.00  0.00     0.067 C 
HETATM   10  C16 UNL     1      48.908  31.414  43.875  1.00  0.00     0.227 C 
HETATM   11  C18 UNL     1      48.424  32.516  42.975  1.00  0.00     0.251 C 
HETATM   12  O3  UNL     1      47.765  33.509  43.343  1.00  0.00    -0.270 OA
HETATM   13  N2  UNL     1      48.832  32.247  41.647  1.00  0.00    -0.329 N 
HETATM   14  C19 UNL     1      48.461  32.785  40.324  1.00  0.00     0.096 C 
HETATM   15  C20 UNL     1      47.001  33.124  40.429  1.00  0.00     0.047 C 
HETATM   16  C21 UNL     1      49.340  33.972  40.134  1.00  0.00     0.155 C 
HETATM   17  O4  UNL     1      49.625  34.676  41.062  1.00  0.00    -0.295 OA
HETATM   18  C22 UNL     1      49.920  34.367  38.794  1.00  0.00     0.082 C 
HETATM   19  C23 UNL     1      48.786  34.304  37.832  1.00  0.00     0.017 C 
HETATM   20  C24 UNL     1      48.585  33.019  37.101  1.00  0.00    -0.036 C 
HETATM   21  C25 UNL     1      47.310  33.279  36.266  1.00  0.00     0.016 C 
ENDROOT
BRANCH   1  22
HETATM   22  C5  UNL     1      49.589  33.211  34.760  1.00  0.00    -0.014 C 
HETATM   23  C6  UNL     1      49.659  32.006  33.795  1.00  0.00     0.010 C 
BRANCH  22  24
HETATM   24  C4  UNL     1      50.612  34.158  34.288  1.00  0.00     0.009 C 
BRANCH  24  25
HETATM   25  C3  UNL     1      51.442  34.795  35.378  1.00  0.00     0.034 C 
BRANCH  25  26
HETATM   26  C2  UNL     1      52.840  34.345  35.334  1.00  0.00    -0.086 C 
HETATM   27  C1  UNL     1      53.803  35.136  35.770  1.00  0.00     0.014 C 
BRANCH  26  28
HETATM   28  C26 UNL     1      53.190  33.013  34.811  1.00  0.00     0.005 C 
HETATM   29  C27 UNL     1      53.218  31.974  35.918  1.00  0.00     0.014 C 
HETATM   30  C28 UNL     1      54.468  32.972  34.041  1.00  0.00     0.014 C 
ENDBRANCH  26  28
ENDBRANCH  25  26
ENDBRANCH  24  25
ENDBRANCH  22  24
ENDBRANCH   1  22
BRANCH  10  31
HETATM   31  O1  UNL     1      49.192  31.866  45.164  1.00  0.00    -0.291 OA
BRANCH  31  32
HETATM   32  C17 UNL     1      48.864  31.026  46.241  1.00  0.00     0.373 C 
HETATM   33  N1  UNL     1      49.696  29.987  46.690  1.00  0.00    -0.032 NA
HETATM   34  O2  UNL     1      47.768  31.204  46.841  1.00  0.00    -0.242 OA
ENDBRANCH  31  32
ENDBRANCH  10  31
TORSDOF 7
ENDMDL
MODEL 4
REMARK VINA RESULT: -7.173510856      3.528      8.753
REMARK  7 active torsions:
REMARK  status: ('A' for Active; 'I' for Inactive)
REMARK    1  A    between atoms: C2_2  and  C3_3 
REMARK    2  A    between atoms: C2_2  and  C26_32 
REMARK    3  A    between atoms: C3_3  and  C4_4 
REMARK    4  A    between atoms: C4_4  and  C5_5 
REMARK    5  A    between atoms: C5_5  and  C7_7 
REMARK    6  A    between atoms: C16_16  and  O1_17 
REMARK    7  A    between atoms: O1_17  and  C17_18 
ROOT
HETATM    1  C7  UNL     1      47.575  32.153  41.612  1.00  0.00    -0.002 C 
HETATM    2  C8  UNL     1      46.588  31.154  40.949  1.00  0.00     0.006 C 
HETATM    3  C9  UNL     1      46.896  31.180  39.500  1.00  0.00     0.006 C 
HETATM    4  C10 UNL     1      48.341  31.619  39.356  1.00  0.00     0.001 C 
HETATM    5  C11 UNL     1      48.358  32.638  38.306  1.00  0.00     0.026 C 
HETATM    6  C12 UNL     1      47.787  31.988  37.036  1.00  0.00     0.010 C 
HETATM    7  C13 UNL     1      47.296  33.018  36.068  1.00  0.00     0.026 C 
HETATM    8  C14 UNL     1      48.031  34.325  36.331  1.00  0.00     0.091 C 
HETATM    9  C15 UNL     1      48.103  35.151  35.066  1.00  0.00     0.067 C 
HETATM   10  C16 UNL     1      49.395  34.738  34.384  1.00  0.00     0.227 C 
HETATM   11  C18 UNL     1      50.239  34.396  35.580  1.00  0.00     0.251 C 
HETATM   12  O3  UNL     1      51.483  34.473  35.630  1.00  0.00    -0.270 OA
HETATM   13  N2  UNL     1      49.400  33.974  36.639  1.00  0.00    -0.329 N 
HETATM   14  C19 UNL     1      49.625  33.285  37.924  1.00  0.00     0.096 C 
HETATM   15  C20 UNL     1      50.768  32.343  37.674  1.00  0.00     0.047 C 
HETATM   16  C21 UNL     1      49.946  34.373  38.889  1.00  0.00     0.155 C 
HETATM   17  O4  UNL     1      50.586  35.327  38.544  1.00  0.00    -0.295 OA
HETATM   18  C22 UNL     1      49.502  34.356  40.334  1.00  0.00     0.082 C 
HETATM   19  C23 UNL     1      49.832  32.995  40.839  1.00  0.00     0.017 C 
HETATM   20  C24 UNL     1      48.764  31.958  40.744  1.00  0.00    -0.036 C 
HETATM   21  C25 UNL     1      49.458  30.682  41.275  1.00  0.00     0.016 C 
ENDROOT
BRANCH   1  22
HETATM   22  C5  UNL     1      47.618  31.712  43.014  1.00  0.00    -0.014 C 
HETATM   23  C6  UNL     1      46.545  32.540  43.756  1.00  0.00     0.010 C 
BRANCH  22  24
HETATM   24  C4  UNL     1      48.843  31.836  43.819  1.00  0.00     0.009 C 
BRANCH  24  25
HETATM   25  C3  UNL     1      48.625  31.844  45.314  1.00  0.00     0.034 C 
BRANCH  25  26
HETATM   26  C2  UNL     1      49.504  30.887  46.000  1.00  0.00    -0.086 C 
HETATM   27  C1  UNL     1      50.554  30.387  45.373  1.00  0.00     0.014 C 
BRANCH  26  28
HETATM   28  C26 UNL     1      49.235  30.473  47.388  1.00  0.00     0.005 C 
HETATM   29  C27 UNL     1      50.522  30.350  48.187  1.00  0.00     0.014 C 
HETATM   30  C28 UNL     1      48.438  29.217  47.510  1.00  0.00     0.014 C 
ENDBRANCH  26  28
ENDBRANCH  25  26
ENDBRANCH  24  25
ENDBRANCH  22  24
ENDBRANCH   1  22
BRANCH  10  31
HETATM   31  O1  UNL     1      49.955  35.755  33.611  1.00  0.00    -0.291 OA
BRANCH  31  32
HETATM   32  C17 UNL     1      49.751  37.081  34.026  1.00  0.00     0.373 C 
HETATM   33  N1  UNL     1      50.557  37.725  34.981  1.00  0.00    -0.032 NA
HETATM   34  O2  UNL     1      48.797  37.737  33.522  1.00  0.00    -0.242 OA
ENDBRANCH  31  32
ENDBRANCH  10  31
TORSDOF 7
ENDMDL
MODEL 5
REMARK VINA RESULT: -7.081230020      1.786      2.661
REMARK  7 active torsions:
REMARK  status: ('A' for Active; 'I' for Inactive)
REMARK    1  A    between atoms: C2_2  and  C3_3 
REMARK    2  A    between atoms: C2_2  and  C26_32 
REMARK    3  A    between atoms: C3_3  and  C4_4 
REMARK    4  A    between atoms: C4_4  and  C5_5 
REMARK    5  A    between atoms: C5_5  and  C7_7 
REMARK    6  A    between atoms: C16_16  and  O1_17 
REMARK    7  A    between atoms: O1_17  and  C17_18 
ROOT
HETATM    1  C7  UNL     1      49.981  31.984  36.293  1.00  0.00    -0.002 C 
HETATM    2  C8  UNL     1      49.657  30.467  36.229  1.00  0.00     0.006 C 
HETATM    3  C9  UNL     1      49.040  30.128  37.532  1.00  0.00     0.006 C 
HETATM    4  C10 UNL     1      48.428  31.402  38.085  1.00  0.00     0.001 C 
HETATM    5  C11 UNL     1      48.836  31.478  39.488  1.00  0.00     0.026 C 
HETATM    6  C12 UNL     1      48.321  30.204  40.178  1.00  0.00     0.010 C 
HETATM    7  C13 UNL     1      49.074  29.926  41.441  1.00  0.00     0.026 C 
HETATM    8  C14 UNL     1      49.654  31.234  41.962  1.00  0.00     0.091 C 
HETATM    9  C15 UNL     1      49.820  31.172  43.464  1.00  0.00     0.067 C 
HETATM   10  C16 UNL     1      48.517  31.698  44.040  1.00  0.00     0.227 C 
HETATM   11  C18 UNL     1      48.120  32.675  42.969  1.00  0.00     0.251 C 
HETATM   12  O3  UNL     1      47.428  33.697  43.148  1.00  0.00    -0.270 OA
HETATM   13  N2  UNL     1      48.654  32.251  41.728  1.00  0.00    -0.329 N 
HETATM   14  C19 UNL     1      48.410  32.618  40.320  1.00  0.00     0.096 C 
HETATM   15  C20 UNL     1      46.947  32.949  40.243  1.00  0.00     0.047 C 
HETATM   16  C21 UNL     1      49.302  33.784  40.070  1.00  0.00     0.155 C 
HETATM   17  O4  UNL     1      49.497  34.600  40.927  1.00  0.00    -0.295 OA
HETATM   18  C22 UNL     1      50.008  34.020  38.753  1.00  0.00     0.082 C 
HETATM   19  C23 UNL     1      48.971  33.826  37.703  1.00  0.00     0.017 C 
HETATM   20  C24 UNL     1      48.843  32.459  37.119  1.00  0.00    -0.036 C 
HETATM   21  C25 UNL     1      47.653  32.598  36.141  1.00  0.00     0.016 C 
ENDROOT
BRANCH   1  22
HETATM   22  C5  UNL     1      50.066  32.376  34.879  1.00  0.00    -0.014 C 
HETATM   23  C6  UNL     1      50.101  31.059  34.071  1.00  0.00     0.010 C 
BRANCH  22  24
HETATM   24  C4  UNL     1      51.188  33.181  34.372  1.00  0.00     0.009 C 
BRANCH  24  25
HETATM   25  C3  UNL     1      52.348  33.332  35.328  1.00  0.00     0.034 C 
BRANCH  25  26
HETATM   26  C2  UNL     1      53.392  32.327  35.084  1.00  0.00    -0.086 C 
HETATM   27  C1  UNL     1      53.954  32.234  33.892  1.00  0.00     0.014 C 
BRANCH  26  28
HETATM   28  C26 UNL     1      53.830  31.414  36.155  1.00  0.00     0.005 C 
HETATM   29  C27 UNL     1      55.344  31.318  36.213  1.00  0.00     0.014 C 
HETATM   30  C28 UNL     1      53.234  30.048  36.077  1.00  0.00     0.014 C 
ENDBRANCH  26  28
ENDBRANCH  25  26
ENDBRANCH  24  25
ENDBRANCH  22  24
ENDBRANCH   1  22
BRANCH  10  31
HETATM   31  O1  UNL     1      48.675  32.308  45.284  1.00  0.00    -0.291 OA
BRANCH  31  32
HETATM   32  C17 UNL     1      48.657  31.487  46.423  1.00  0.00     0.373 C 
HETATM   33  N1  UNL     1      49.792  31.238  47.214  1.00  0.00    -0.032 NA
HETATM   34  O2  UNL     1      47.572  30.940  46.763  1.00  0.00    -0.242 OA
ENDBRANCH  31  32
ENDBRANCH  10  31
TORSDOF 7
ENDMDL
