MODEL 1
REMARK VINA RESULT: -6.140578221      0.000      0.000
REMARK  6 active torsions:
REMARK  status: ('A' for Active; 'I' for Inactive)
REMARK    1  A    between atoms: O1_2  and  C2_3 
REMARK    2  A    between atoms: C2_3  and  C3_4 
REMARK    3  A    between atoms: C3_4  and  C4_5 
REMARK    4  A    between atoms: C8_10  and  O2_11 
REMARK    5  A    between atoms: C9_13  and  O3_14 
REMARK    6  A    between atoms: C10_16  and  O4_17 
ROOT
HETATM    1  C2  UNL     1     -11.655  -5.518 -18.316  1.00  0.00     0.090 C 
HETATM    2  C5  UNL     1     -10.678  -5.509 -19.664  1.00  0.00     0.052 C 
HETATM    3  C6  UNL     1      -9.616  -6.141 -19.022  1.00  0.00     0.085 C 
HETATM    4  C7  UNL     1      -9.084  -6.574 -18.284  1.00  0.00    -0.149 C 
HETATM    5  C8  UNL     1      -8.743  -7.083 -17.010  1.00  0.00     0.215 C 
HETATM    6  C9  UNL     1     -10.317  -6.861 -16.479  1.00  0.00     0.189 C 
HETATM    7  C10 UNL     1     -10.750  -5.578 -17.107  1.00  0.00     0.184 C 
ENDROOT
BRANCH   1   8
HETATM    8  O1  UNL     1     -12.367  -4.393 -18.294  1.00  0.00    -0.382 OA
HETATM    9  C1  UNL     1     -12.189  -3.495 -19.299  1.00  0.00     0.202 C 
ENDBRANCH   1   8
BRANCH   1  10
HETATM   10  C3  UNL     1     -12.484  -6.739 -18.416  1.00  0.00     0.056 C 
BRANCH  10  11
HETATM   11  C4  UNL     1     -12.974  -6.998 -19.823  1.00  0.00     0.117 C 
HETATM   12 CL1  UNL     1     -12.609  -8.688 -20.246  1.00  0.00    -0.130 Cl
ENDBRANCH  10  11
ENDBRANCH   1  10
BRANCH   7  13
HETATM   13  O4  UNL     1     -11.418  -4.790 -16.078  1.00  0.00    -0.390 OA
ATOM     14  H4  UNL     1     -11.220  -5.224 -15.256  1.00  0.00     0.210 HD
ENDBRANCH   7  13
BRANCH   6  15
HETATM   15  O3  UNL     1     -10.212  -6.831 -15.120  1.00  0.00    -0.389 OA
ATOM     16  H3  UNL     1     -10.834  -6.165 -14.853  1.00  0.00     0.210 HD
ENDBRANCH   6  15
BRANCH   5  17
HETATM   17  O2  UNL     1      -8.090  -6.260 -16.138  1.00  0.00    -0.382 OA
ATOM     18  H2  UNL     1      -7.153  -6.146 -16.242  1.00  0.00     0.211 HD
ENDBRANCH   5  17
TORSDOF 6
ENDMDL
MODEL 2
REMARK VINA RESULT: -6.008142600      2.304      3.194
REMARK  6 active torsions:
REMARK  status: ('A' for Active; 'I' for Inactive)
REMARK    1  A    between atoms: O1_2  and  C2_3 
REMARK    2  A    between atoms: C2_3  and  C3_4 
REMARK    3  A    between atoms: C3_4  and  C4_5 
REMARK    4  A    between atoms: C8_10  and  O2_11 
REMARK    5  A    between atoms: C9_13  and  O3_14 
REMARK    6  A    between atoms: C10_16  and  O4_17 
ROOT
HETATM    1  C2  UNL     1     -11.948  -5.624 -19.098  1.00  0.00     0.090 C 
HETATM    2  C5  UNL     1     -12.983  -5.410 -17.811  1.00  0.00     0.052 C 
HETATM    3  C6  UNL     1     -12.001  -5.640 -16.852  1.00  0.00     0.085 C 
HETATM    4  C7  UNL     1     -11.097  -5.856 -16.462  1.00  0.00    -0.149 C 
HETATM    5  C8  UNL     1      -9.723  -6.179 -16.381  1.00  0.00     0.215 C 
HETATM    6  C9  UNL     1      -9.555  -5.956 -18.034  1.00  0.00     0.189 C 
HETATM    7  C10 UNL     1     -10.815  -6.503 -18.618  1.00  0.00     0.184 C 
ENDROOT
BRANCH   1   8
HETATM    8  O1  UNL     1     -12.607  -6.231 -20.082  1.00  0.00    -0.382 OA
HETATM    9  C1  UNL     1     -13.810  -6.798 -19.803  1.00  0.00     0.202 C 
ENDBRANCH   1   8
BRANCH   1  10
HETATM   10  C3  UNL     1     -11.455  -4.278 -19.459  1.00  0.00     0.056 C 
BRANCH  10  11
HETATM   11  C4  UNL     1     -11.439  -4.044 -20.954  1.00  0.00     0.117 C 
HETATM   12 CL1  UNL     1     -12.537  -2.692 -21.325  1.00  0.00    -0.130 Cl
ENDBRANCH  10  11
ENDBRANCH   1  10
BRANCH   7  13
HETATM   13  O4  UNL     1     -10.446  -7.324 -19.765  1.00  0.00    -0.390 OA
ATOM     14  H4  UNL     1      -9.499  -7.266 -19.826  1.00  0.00     0.210 HD
ENDBRANCH   7  13
BRANCH   6  15
HETATM   15  O3  UNL     1      -8.424  -6.648 -18.353  1.00  0.00    -0.389 OA
ATOM     16  H3  UNL     1      -7.825  -5.983 -18.670  1.00  0.00     0.210 HD
ENDBRANCH   6  15
BRANCH   5  17
HETATM   17  O2  UNL     1      -9.373  -7.496 -16.292  1.00  0.00    -0.382 OA
ATOM     18  H2  UNL     1      -9.295  -7.884 -15.428  1.00  0.00     0.211 HD
ENDBRANCH   5  17
TORSDOF 6
ENDMDL
MODEL 3
REMARK VINA RESULT: -5.849979181      1.909      2.689
REMARK  6 active torsions:
REMARK  status: ('A' for Active; 'I' for Inactive)
REMARK    1  A    between atoms: O1_2  and  C2_3 
REMARK    2  A    between atoms: C2_3  and  C3_4 
REMARK    3  A    between atoms: C3_4  and  C4_5 
REMARK    4  A    between atoms: C8_10  and  O2_11 
REMARK    5  A    between atoms: C9_13  and  O3_14 
REMARK    6  A    between atoms: C10_16  and  O4_17 
ROOT
HETATM    1  C2  UNL     1     -12.439  -5.414 -20.124  1.00  0.00     0.090 C 
HETATM    2  C5  UNL     1     -11.234  -6.511 -20.465  1.00  0.00     0.052 C 
HETATM    3  C6  UNL     1     -11.016  -6.838 -19.130  1.00  0.00     0.085 C 
HETATM    4  C7  UNL     1     -11.116  -6.823 -18.127  1.00  0.00    -0.149 C 
HETATM    5  C8  UNL     1     -11.589  -6.475 -16.840  1.00  0.00     0.215 C 
HETATM    6  C9  UNL     1     -12.829  -5.575 -17.519  1.00  0.00     0.189 C 
HETATM    7  C10 UNL     1     -12.213  -4.924 -18.713  1.00  0.00     0.184 C 
ENDROOT
BRANCH   1   8
HETATM    8  O1  UNL     1     -12.347  -4.396 -20.977  1.00  0.00    -0.382 OA
HETATM    9  C1  UNL     1     -11.428  -4.470 -21.976  1.00  0.00     0.202 C 
ENDBRANCH   1   8
BRANCH   1  10
HETATM   10  C3  UNL     1     -13.714  -6.157 -20.227  1.00  0.00     0.056 C 
BRANCH  10  11
HETATM   11  C4  UNL     1     -13.716  -7.157 -21.362  1.00  0.00     0.117 C 
HETATM   12 CL1  UNL     1     -14.533  -6.420 -22.762  1.00  0.00    -0.130 Cl
ENDBRANCH  10  11
ENDBRANCH   1  10
BRANCH   7  13
HETATM   13  O4  UNL     1     -12.627  -3.526 -18.713  1.00  0.00    -0.390 OA
ATOM     14  H4  UNL     1     -12.047  -3.088 -19.325  1.00  0.00     0.210 HD
ENDBRANCH   7  13
BRANCH   6  15
HETATM   15  O3  UNL     1     -13.203  -4.719 -16.525  1.00  0.00    -0.389 OA
ATOM     16  H3  UNL     1     -13.928  -4.231 -16.899  1.00  0.00     0.210 HD
ENDBRANCH   6  15
BRANCH   5  17
HETATM   17  O2  UNL     1     -10.937  -5.489 -16.156  1.00  0.00    -0.382 OA
ATOM     18  H2  UNL     1     -11.179  -5.334 -15.251  1.00  0.00     0.211 HD
ENDBRANCH   5  17
TORSDOF 6
ENDMDL
MODEL 4
REMARK VINA RESULT: -5.844034597      2.436      5.092
REMARK  6 active torsions:
REMARK  status: ('A' for Active; 'I' for Inactive)
REMARK    1  A    between atoms: O1_2  and  C2_3 
REMARK    2  A    between atoms: C2_3  and  C3_4 
REMARK    3  A    between atoms: C3_4  and  C4_5 
REMARK    4  A    between atoms: C8_10  and  O2_11 
REMARK    5  A    between atoms: C9_13  and  O3_14 
REMARK    6  A    between atoms: C10_16  and  O4_17 
ROOT
HETATM    1  C2  UNL     1     -12.163  -4.903 -19.025  1.00  0.00     0.090 C 
HETATM    2  C5  UNL     1     -13.406  -5.993 -19.219  1.00  0.00     0.052 C 
HETATM    3  C6  UNL     1     -14.021  -5.265 -20.233  1.00  0.00     0.085 C 
HETATM    4  C7  UNL     1     -14.187  -4.519 -20.891  1.00  0.00    -0.149 C 
HETATM    5  C8  UNL     1     -14.018  -3.312 -21.607  1.00  0.00     0.215 C 
HETATM    6  C9  UNL     1     -12.507  -3.092 -20.915  1.00  0.00     0.189 C 
HETATM    7  C10 UNL     1     -12.666  -3.561 -19.507  1.00  0.00     0.184 C 
ENDROOT
BRANCH   1   8
HETATM    8  O1  UNL     1     -11.851  -4.833 -17.733  1.00  0.00    -0.382 OA
HETATM    9  C1  UNL     1     -12.644  -5.481 -16.840  1.00  0.00     0.202 C 
ENDBRANCH   1   8
BRANCH   1  10
HETATM   10  C3  UNL     1     -11.054  -5.387 -19.875  1.00  0.00     0.056 C 
BRANCH  10  11
HETATM   11  C4  UNL     1     -10.511  -6.724 -19.420  1.00  0.00     0.117 C 
HETATM   12 CL1  UNL     1      -9.082  -6.435 -18.399  1.00  0.00    -0.130 Cl
ENDBRANCH  10  11
ENDBRANCH   1  10
BRANCH   7  13
HETATM   13  O4  UNL     1     -12.032  -2.573 -18.642  1.00  0.00    -0.390 OA
ATOM     14  H4  UNL     1     -11.559  -1.990 -19.225  1.00  0.00     0.210 HD
ENDBRANCH   7  13
BRANCH   6  15
HETATM   15  O3  UNL     1     -12.266  -1.758 -21.054  1.00  0.00    -0.389 OA
ATOM     16  H3  UNL     1     -12.452  -1.396 -20.196  1.00  0.00     0.210 HD
ENDBRANCH   6  15
BRANCH   5  17
HETATM   17  O2  UNL     1     -14.646  -2.192 -21.144  1.00  0.00    -0.382 OA
ATOM     18  H2  UNL     1     -14.165  -1.612 -20.567  1.00  0.00     0.211 HD
ENDBRANCH   5  17
TORSDOF 6
ENDMDL
MODEL 5
REMARK VINA RESULT: -5.829532906      1.519      2.367
REMARK  6 active torsions:
REMARK  status: ('A' for Active; 'I' for Inactive)
REMARK    1  A    between atoms: O1_2  and  C2_3 
REMARK    2  A    between atoms: C2_3  and  C3_4 
REMARK    3  A    between atoms: C3_4  and  C4_5 
REMARK    4  A    between atoms: C8_10  and  O2_11 
REMARK    5  A    between atoms: C9_13  and  O3_14 
REMARK    6  A    between atoms: C10_16  and  O4_17 
ROOT
HETATM    1  C2  UNL     1     -12.254  -5.786 -19.875  1.00  0.00     0.090 C 
HETATM    2  C5  UNL     1     -10.806  -6.590 -20.053  1.00  0.00     0.052 C 
HETATM    3  C6  UNL     1     -10.572  -6.678 -18.683  1.00  0.00     0.085 C 
HETATM    4  C7  UNL     1     -10.716  -6.559 -17.693  1.00  0.00    -0.149 C 
HETATM    5  C8  UNL     1     -11.312  -6.175 -16.469  1.00  0.00     0.215 C 
HETATM    6  C9  UNL     1     -12.703  -5.700 -17.276  1.00  0.00     0.189 C 
HETATM    7  C10 UNL     1     -12.212  -5.078 -18.541  1.00  0.00     0.184 C 
ENDROOT
BRANCH   1   8
HETATM    8  O1  UNL     1     -12.373  -4.896 -20.858  1.00  0.00    -0.382 OA
HETATM    9  C1  UNL     1     -11.315  -4.704 -21.689  1.00  0.00     0.202 C 
ENDBRANCH   1   8
BRANCH   1  10
HETATM   10  C3  UNL     1     -13.306  -6.825 -19.889  1.00  0.00     0.056 C 
BRANCH  10  11
HETATM   11  C4  UNL     1     -13.056  -7.896 -20.928  1.00  0.00     0.117 C 
HETATM   12 CL1  UNL     1     -12.785  -9.443 -20.090  1.00  0.00    -0.130 Cl
ENDBRANCH  10  11
ENDBRANCH   1  10
BRANCH   7  13
HETATM   13  O4  UNL     1     -12.951  -3.836 -18.734  1.00  0.00    -0.390 OA
ATOM     14  H4  UNL     1     -13.161  -3.526 -17.861  1.00  0.00     0.210 HD
ENDBRANCH   7  13
BRANCH   6  15
HETATM   15  O3  UNL     1     -13.315  -4.841 -16.411  1.00  0.00    -0.389 OA
ATOM     16  H3  UNL     1     -12.881  -4.009 -16.564  1.00  0.00     0.210 HD
ENDBRANCH   6  15
BRANCH   5  17
HETATM   17  O2  UNL     1     -10.947  -4.980 -15.920  1.00  0.00    -0.382 OA
ATOM     18  H2  UNL     1     -11.052  -4.865 -14.982  1.00  0.00     0.211 HD
ENDBRANCH   5  17
TORSDOF 6
ENDMDL
