MODEL 1
REMARK VINA RESULT: -6.240514272      0.000      0.000
REMARK  2 active torsions:
REMARK  status: ('A' for Active; 'I' for Inactive)
REMARK    1  A    between atoms: C4_4  and  N1_5 
REMARK    2  A    between atoms: N1_5  and  C5_7 
ROOT
HETATM    1  C1  UNL     1      36.791   0.535  32.115  1.00  0.00     0.000 C 
HETATM    2  C2  UNL     1      35.305   0.496  32.227  1.00  0.00     0.002 C 
HETATM    3  C3  UNL     1      34.928  -0.364  33.434  1.00  0.00     0.024 C 
HETATM    4  C4  UNL     1      35.562   0.098  34.701  1.00  0.00     0.077 C 
HETATM    5  C9  UNL     1      36.984   0.549  34.594  1.00  0.00     0.024 C 
HETATM    6  C10 UNL     1      37.314   1.287  33.345  1.00  0.00     0.002 C 
ENDROOT
BRANCH   4   7
HETATM    7  N1  UNL     1      34.707   0.976  35.402  1.00  0.00    -0.413 N 
ATOM      8  H1  UNL     1      34.528   1.919  35.057  1.00  0.00     0.154 HD
BRANCH   7   9
HETATM    9  C5  UNL     1      34.107   0.512  36.596  1.00  0.00     0.077 C 
HETATM   10  C6  UNL     1      32.709  -0.071  36.435  1.00  0.00     0.025 C 
HETATM   11  C7  UNL     1      33.111  -1.138  37.418  1.00  0.00     0.004 C 
HETATM   12  C8  UNL     1      34.550  -0.851  37.078  1.00  0.00     0.025 C 
ENDBRANCH   7   9
ENDBRANCH   4   7
TORSDOF 2
ENDMDL
MODEL 2
REMARK VINA RESULT: -6.230885580      1.155      4.536
REMARK  2 active torsions:
REMARK  status: ('A' for Active; 'I' for Inactive)
REMARK    1  A    between atoms: C4_4  and  N1_5 
REMARK    2  A    between atoms: N1_5  and  C5_7 
ROOT
HETATM    1  C1  UNL     1      32.054  -0.549  36.752  1.00  0.00     0.000 C 
HETATM    2  C2  UNL     1      32.173  -0.526  35.266  1.00  0.00     0.002 C 
HETATM    3  C3  UNL     1      33.377   0.337  34.885  1.00  0.00     0.024 C 
HETATM    4  C4  UNL     1      34.644  -0.108  35.531  1.00  0.00     0.077 C 
HETATM    5  C9  UNL     1      34.533  -0.545  36.957  1.00  0.00     0.024 C 
HETATM    6  C10 UNL     1      33.286  -1.286  37.289  1.00  0.00     0.002 C 
ENDROOT
BRANCH   4   7
HETATM    7  N1  UNL     1      35.355  -0.991  34.690  1.00  0.00    -0.413 N 
ATOM      8  H1  UNL     1      35.005  -1.931  34.501  1.00  0.00     0.154 HD
BRANCH   7   9
HETATM    9  C5  UNL     1      36.565  -0.537  34.116  1.00  0.00     0.077 C 
HETATM   10  C6  UNL     1      36.443   0.032  32.708  1.00  0.00     0.025 C 
HETATM   11  C7  UNL     1      37.419   1.100  33.125  1.00  0.00     0.004 C 
HETATM   12  C8  UNL     1      37.040   0.829  34.557  1.00  0.00     0.025 C 
ENDBRANCH   7   9
ENDBRANCH   4   7
TORSDOF 2
ENDMDL
MODEL 3
REMARK VINA RESULT: -6.136788565      1.252      1.630
REMARK  2 active torsions:
REMARK  status: ('A' for Active; 'I' for Inactive)
REMARK    1  A    between atoms: C4_4  and  N1_5 
REMARK    2  A    between atoms: N1_5  and  C5_7 
ROOT
HETATM    1  C1  UNL     1      36.647   0.871  31.569  1.00  0.00     0.000 C 
HETATM    2  C2  UNL     1      35.183   1.069  31.771  1.00  0.00     0.002 C 
HETATM    3  C3  UNL     1      34.576  -0.244  32.267  1.00  0.00     0.024 C 
HETATM    4  C4  UNL     1      35.234  -0.764  33.499  1.00  0.00     0.077 C 
HETATM    5  C9  UNL     1      36.723  -0.630  33.551  1.00  0.00     0.024 C 
HETATM    6  C10 UNL     1      37.261   0.622  32.953  1.00  0.00     0.002 C 
ENDROOT
BRANCH   4   7
HETATM    7  N1  UNL     1      34.554  -0.326  34.656  1.00  0.00    -0.413 N 
ATOM      8  H1  UNL     1      33.546  -0.173  34.646  1.00  0.00     0.154 HD
BRANCH   7   9
HETATM    9  C5  UNL     1      35.311  -0.107  35.831  1.00  0.00     0.077 C 
HETATM   10  C6  UNL     1      35.282   1.319  36.365  1.00  0.00     0.025 C 
HETATM   11  C7  UNL     1      35.191   0.731  37.748  1.00  0.00     0.004 C 
HETATM   12  C8  UNL     1      34.666  -0.538  37.129  1.00  0.00     0.025 C 
ENDBRANCH   7   9
ENDBRANCH   4   7
TORSDOF 2
ENDMDL
MODEL 4
REMARK VINA RESULT: -6.115021381      1.095      1.528
REMARK  2 active torsions:
REMARK  status: ('A' for Active; 'I' for Inactive)
REMARK    1  A    between atoms: C4_4  and  N1_5 
REMARK    2  A    between atoms: N1_5  and  C5_7 
ROOT
HETATM    1  C1  UNL     1      37.257   0.841  32.801  1.00  0.00     0.000 C 
HETATM    2  C2  UNL     1      35.923   1.370  32.396  1.00  0.00     0.002 C 
HETATM    3  C3  UNL     1      34.966   0.192  32.211  1.00  0.00     0.024 C 
HETATM    4  C4  UNL     1      34.869  -0.677  33.418  1.00  0.00     0.077 C 
HETATM    5  C9  UNL     1      36.152  -0.939  34.141  1.00  0.00     0.024 C 
HETATM    6  C10 UNL     1      37.089   0.216  34.191  1.00  0.00     0.002 C 
ENDROOT
BRANCH   4   7
HETATM    7  N1  UNL     1      33.791  -0.281  34.239  1.00  0.00    -0.413 N 
ATOM      8  H1  UNL     1      33.082   0.367  33.896  1.00  0.00     0.154 HD
BRANCH   7   9
HETATM    9  C5  UNL     1      33.722  -0.807  35.550  1.00  0.00     0.077 C 
HETATM   10  C6  UNL     1      33.502   0.221  36.652  1.00  0.00     0.025 C 
HETATM   11  C7  UNL     1      32.564  -0.766  37.295  1.00  0.00     0.004 C 
HETATM   12  C8  UNL     1      32.402  -1.426  35.951  1.00  0.00     0.025 C 
ENDBRANCH   7   9
ENDBRANCH   4   7
TORSDOF 2
ENDMDL
MODEL 5
REMARK VINA RESULT: -6.113908031      1.510      4.542
REMARK  2 active torsions:
REMARK  status: ('A' for Active; 'I' for Inactive)
REMARK    1  A    between atoms: C4_4  and  N1_5 
REMARK    2  A    between atoms: N1_5  and  C5_7 
ROOT
HETATM    1  C1  UNL     1      31.410  -0.857  36.377  1.00  0.00     0.000 C 
HETATM    2  C2  UNL     1      32.133  -1.633  35.330  1.00  0.00     0.002 C 
HETATM    3  C3  UNL     1      33.195  -0.731  34.699  1.00  0.00     0.024 C 
HETATM    4  C4  UNL     1      34.135  -0.148  35.698  1.00  0.00     0.077 C 
HETATM    5  C9  UNL     1      33.524   0.305  36.986  1.00  0.00     0.024 C 
HETATM    6  C10 UNL     1      32.420  -0.556  37.491  1.00  0.00     0.002 C 
ENDROOT
BRANCH   4   7
HETATM    7  N1  UNL     1      35.288  -0.952  35.835  1.00  0.00    -0.413 N 
ATOM      8  H1  UNL     1      35.238  -1.867  36.284  1.00  0.00     0.154 HD
BRANCH   7   9
HETATM    9  C5  UNL     1      36.513  -0.453  35.332  1.00  0.00     0.077 C 
HETATM   10  C6  UNL     1      36.841  -0.861  33.901  1.00  0.00     0.025 C 
HETATM   11  C7  UNL     1      37.348   0.541  33.688  1.00  0.00     0.004 C 
HETATM   12  C8  UNL     1      36.502   0.981  34.854  1.00  0.00     0.025 C 
ENDBRANCH   7   9
ENDBRANCH   4   7
TORSDOF 2
ENDMDL
