MODEL 1
REMARK VINA RESULT: -6.478868581      0.000      0.000
REMARK  3 active torsions:
REMARK  status: ('A' for Active; 'I' for Inactive)
REMARK    1  A    between atoms: C2_2  and  C3_3 
REMARK    2  A    between atoms: C2_2  and  C5_9 
REMARK    3  A    between atoms: C3_3  and  N1_5 
ROOT
HETATM    1  C1  UNL     1      34.059  -0.943  37.161  1.00  0.00     0.017 C 
HETATM    2  C2  UNL     1      33.531  -0.530  36.022  1.00  0.00    -0.056 C 
ENDROOT
BRANCH   2   3
HETATM    3  C3  UNL     1      32.061  -0.631  35.813  1.00  0.00     0.208 C 
HETATM    4  C4  UNL     1      31.656  -2.052  35.596  1.00  0.00     0.044 C 
BRANCH   3   5
HETATM    5  N1  UNL     1      31.381  -0.075  36.957  1.00  0.00    -0.072 N 
ATOM      6  H13 UNL     1      30.372  -0.010  36.814  1.00  0.00     0.275 HD
ATOM      7  H12 UNL     1      31.373  -0.714  37.752  1.00  0.00     0.275 HD
ATOM      8  H11 UNL     1      31.798   0.827  37.189  1.00  0.00     0.275 HD
ENDBRANCH   3   5
ENDBRANCH   2   3
BRANCH   2   9
HETATM    9  C5  UNL     1      34.445  -0.026  34.958  1.00  0.00     0.016 C 
HETATM   10  C6  UNL     1      35.480   0.852  35.640  1.00  0.00     0.009 C 
HETATM   11  C7  UNL     1      36.761   0.875  34.806  1.00  0.00     0.001 C 
HETATM   12  C8  UNL     1      37.355  -0.509  34.987  1.00  0.00     0.000 C 
HETATM   13  C9  UNL     1      36.393  -1.591  34.576  1.00  0.00     0.001 C 
HETATM   14  C10 UNL     1      35.065  -1.090  34.143  1.00  0.00     0.009 C 
ENDBRANCH   2   9
TORSDOF 3
ENDMDL
MODEL 2
REMARK VINA RESULT: -6.452975612      2.916      4.501
REMARK  3 active torsions:
REMARK  status: ('A' for Active; 'I' for Inactive)
REMARK    1  A    between atoms: C2_2  and  C3_3 
REMARK    2  A    between atoms: C2_2  and  C5_9 
REMARK    3  A    between atoms: C3_3  and  N1_5 
ROOT
HETATM    1  C1  UNL     1      37.211   0.624  34.062  1.00  0.00     0.017 C 
HETATM    2  C2  UNL     1      36.026   0.353  33.545  1.00  0.00    -0.056 C 
ENDROOT
BRANCH   2   3
HETATM    3  C3  UNL     1      35.796   0.553  32.088  1.00  0.00     0.208 C 
HETATM    4  C4  UNL     1      35.594   2.001  31.781  1.00  0.00     0.044 C 
BRANCH   3   5
HETATM    5  N1  UNL     1      36.920   0.026  31.354  1.00  0.00    -0.072 N 
ATOM      6  H13 UNL     1      36.792   0.100  30.344  1.00  0.00     0.275 HD
ATOM      7  H12 UNL     1      37.748   0.616  31.437  1.00  0.00     0.275 HD
ATOM      8  H11 UNL     1      37.096  -0.933  31.653  1.00  0.00     0.275 HD
ENDBRANCH   3   5
ENDBRANCH   2   3
BRANCH   2   9
HETATM    9  C5  UNL     1      34.938  -0.095  34.460  1.00  0.00     0.016 C 
HETATM   10  C6  UNL     1      35.586  -0.943  35.540  1.00  0.00     0.009 C 
HETATM   11  C7  UNL     1      34.731  -0.899  36.806  1.00  0.00     0.001 C 
HETATM   12  C8  UNL     1      34.928   0.503  37.348  1.00  0.00     0.000 C 
HETATM   13  C9  UNL     1      34.553   1.553  36.337  1.00  0.00     0.001 C 
HETATM   14  C10 UNL     1      34.133   1.007  35.022  1.00  0.00     0.009 C 
ENDBRANCH   2   9
TORSDOF 3
ENDMDL
MODEL 3
REMARK VINA RESULT: -6.273681596      0.847      1.111
REMARK  3 active torsions:
REMARK  status: ('A' for Active; 'I' for Inactive)
REMARK    1  A    between atoms: C2_2  and  C3_3 
REMARK    2  A    between atoms: C2_2  and  C5_9 
REMARK    3  A    between atoms: C3_3  and  N1_5 
ROOT
HETATM    1  C1  UNL     1      33.159  -1.119  37.462  1.00  0.00     0.017 C 
HETATM    2  C2  UNL     1      32.894  -0.565  36.293  1.00  0.00    -0.056 C 
ENDROOT
BRANCH   2   3
HETATM    3  C3  UNL     1      31.513  -0.635  35.742  1.00  0.00     0.208 C 
HETATM    4  C4  UNL     1      31.095  -2.055  35.547  1.00  0.00     0.044 C 
BRANCH   3   5
HETATM    5  N1  UNL     1      30.610   0.044  36.639  1.00  0.00    -0.072 N 
ATOM      6  H13 UNL     1      30.913  -0.014  37.612  1.00  0.00     0.275 HD
ATOM      7  H12 UNL     1      30.651   1.058  36.536  1.00  0.00     0.275 HD
ATOM      8  H11 UNL     1      29.666  -0.320  36.504  1.00  0.00     0.275 HD
ENDBRANCH   3   5
ENDBRANCH   2   3
BRANCH   2   9
HETATM    9  C5  UNL     1      34.011   0.069  35.537  1.00  0.00     0.016 C 
HETATM   10  C6  UNL     1      35.297  -0.281  36.268  1.00  0.00     0.009 C 
HETATM   11  C7  UNL     1      36.467  -0.252  35.286  1.00  0.00     0.001 C 
HETATM   12  C8  UNL     1      36.259  -1.475  34.413  1.00  0.00     0.000 C 
HETATM   13  C9  UNL     1      34.914  -1.462  33.740  1.00  0.00     0.001 C 
HETATM   14  C10 UNL     1      34.061  -0.305  34.110  1.00  0.00     0.009 C 
ENDBRANCH   2   9
TORSDOF 3
ENDMDL
MODEL 4
REMARK VINA RESULT: -6.162728817      2.283      4.116
REMARK  3 active torsions:
REMARK  status: ('A' for Active; 'I' for Inactive)
REMARK    1  A    between atoms: C2_2  and  C3_3 
REMARK    2  A    between atoms: C2_2  and  C5_9 
REMARK    3  A    between atoms: C3_3  and  N1_5 
ROOT
HETATM    1  C1  UNL     1      36.720   0.944  34.737  1.00  0.00     0.017 C 
HETATM    2  C2  UNL     1      35.416   0.851  34.544  1.00  0.00    -0.056 C 
ENDROOT
BRANCH   2   3
HETATM    3  C3  UNL     1      34.889   0.634  33.169  1.00  0.00     0.208 C 
HETATM    4  C4  UNL     1      35.452   1.644  32.224  1.00  0.00     0.044 C 
BRANCH   3   5
HETATM    5  N1  UNL     1      35.218  -0.704  32.741  1.00  0.00    -0.072 N 
ATOM      6  H13 UNL     1      35.982  -1.107  33.284  1.00  0.00     0.275 HD
ATOM      7  H12 UNL     1      34.494  -1.378  32.988  1.00  0.00     0.275 HD
ATOM      8  H11 UNL     1      35.415  -0.697  31.740  1.00  0.00     0.275 HD
ENDBRANCH   3   5
ENDBRANCH   2   3
BRANCH   2   9
HETATM    9  C5  UNL     1      34.511   1.024  35.716  1.00  0.00     0.016 C 
HETATM   10  C6  UNL     1      33.192   0.360  35.360  1.00  0.00     0.009 C 
HETATM   11  C7  UNL     1      32.478  -0.077  36.639  1.00  0.00     0.001 C 
HETATM   12  C8  UNL     1      33.294  -1.250  37.146  1.00  0.00     0.000 C 
HETATM   13  C9  UNL     1      34.736  -0.880  37.363  1.00  0.00     0.001 C 
HETATM   14  C10 UNL     1      35.067   0.517  36.986  1.00  0.00     0.009 C 
ENDBRANCH   2   9
TORSDOF 3
ENDMDL
MODEL 5
REMARK VINA RESULT: -6.146555869      1.249      2.124
REMARK  3 active torsions:
REMARK  status: ('A' for Active; 'I' for Inactive)
REMARK    1  A    between atoms: C2_2  and  C3_3 
REMARK    2  A    between atoms: C2_2  and  C5_9 
REMARK    3  A    between atoms: C3_3  and  N1_5 
ROOT
HETATM    1  C1  UNL     1      32.330  -0.687  37.696  1.00  0.00     0.017 C 
HETATM    2  C2  UNL     1      33.098  -0.802  36.627  1.00  0.00    -0.056 C 
ENDROOT
BRANCH   2   3
HETATM    3  C3  UNL     1      32.475  -1.031  35.294  1.00  0.00     0.208 C 
HETATM    4  C4  UNL     1      31.333  -1.986  35.404  1.00  0.00     0.044 C 
BRANCH   3   5
HETATM    5  N1  UNL     1      32.035   0.232  34.754  1.00  0.00    -0.072 N 
ATOM      6  H13 UNL     1      31.083   0.464  35.037  1.00  0.00     0.275 HD
ATOM      7  H12 UNL     1      32.511   1.025  35.185  1.00  0.00     0.275 HD
ATOM      8  H11 UNL     1      32.146   0.220  33.740  1.00  0.00     0.275 HD
ENDBRANCH   3   5
ENDBRANCH   2   3
BRANCH   2   9
HETATM    9  C5  UNL     1      34.577  -0.752  36.807  1.00  0.00     0.016 C 
HETATM   10  C6  UNL     1      35.200  -1.158  35.482  1.00  0.00     0.009 C 
HETATM   11  C7  UNL     1      36.593  -0.541  35.361  1.00  0.00     0.001 C 
HETATM   12  C8  UNL     1      36.335   0.937  35.147  1.00  0.00     0.000 C 
HETATM   13  C9  UNL     1      35.512   1.531  36.259  1.00  0.00     0.001 C 
HETATM   14  C10 UNL     1      35.082   0.550  37.286  1.00  0.00     0.009 C 
ENDBRANCH   2   9
TORSDOF 3
ENDMDL
