MODEL 1
REMARK VINA RESULT: -5.770718140      0.000      0.000
REMARK  1 active torsions:
REMARK  status: ('A' for Active; 'I' for Inactive)
REMARK    1  A    between atoms: N1_1  and  C1_5 
ROOT
HETATM    1  C1  UNL     1      36.158   0.414  32.604  1.00  0.00     0.127 C 
HETATM    2  C2  UNL     1      37.061   0.572  33.785  1.00  0.00     0.039 C 
HETATM    3  C3  UNL     1      37.207  -0.770  34.507  1.00  0.00     0.002 C 
HETATM    4  C4  UNL     1      35.816  -1.039  35.089  1.00  0.00     0.001 C 
HETATM    5  C5  UNL     1      34.907  -1.317  33.937  1.00  0.00     0.007 C 
HETATM    6  C6  UNL     1      34.894  -0.310  32.868  1.00  0.00     0.021 C 
HETATM    7  C7  UNL     1      34.290   1.032  33.303  1.00  0.00     0.009 C 
HETATM    8  C8  UNL     1      35.298   1.659  32.333  1.00  0.00     0.039 C 
ENDROOT
BRANCH   1   9
HETATM    9  N1  UNL     1      36.859   0.085  31.376  1.00  0.00    -0.070 N 
ATOM     10  H13 UNL     1      36.276   0.283  30.563  1.00  0.00     0.275 HD
ATOM     11  H12 UNL     1      37.618   0.746  31.206  1.00  0.00     0.275 HD
ATOM     12  H11 UNL     1      37.204  -0.874  31.348  1.00  0.00     0.275 HD
ENDBRANCH   1   9
TORSDOF 1
ENDMDL
MODEL 2
REMARK VINA RESULT: -5.757241013      3.582      4.549
REMARK  1 active torsions:
REMARK  status: ('A' for Active; 'I' for Inactive)
REMARK    1  A    between atoms: N1_1  and  C1_5 
ROOT
HETATM    1  C1  UNL     1      32.555  -0.414  36.158  1.00  0.00     0.127 C 
HETATM    2  C2  UNL     1      33.740  -0.511  37.064  1.00  0.00     0.039 C 
HETATM    3  C3  UNL     1      34.430   0.853  37.162  1.00  0.00     0.002 C 
HETATM    4  C4  UNL     1      35.004   1.086  35.761  1.00  0.00     0.001 C 
HETATM    5  C5  UNL     1      33.845   1.303  34.844  1.00  0.00     0.007 C 
HETATM    6  C6  UNL     1      32.801   0.272  34.868  1.00  0.00     0.021 C 
HETATM    7  C7  UNL     1      33.268  -1.080  34.312  1.00  0.00     0.009 C 
HETATM    8  C8  UNL     1      32.314  -1.695  35.343  1.00  0.00     0.039 C 
ENDROOT
BRANCH   1   9
HETATM    9  N1  UNL     1      31.320  -0.090  36.849  1.00  0.00    -0.070 N 
ATOM     10  H13 UNL     1      30.532  -0.099  36.202  1.00  0.00     0.275 HD
ATOM     11  H12 UNL     1      31.042  -0.852  37.467  1.00  0.00     0.275 HD
ATOM     12  H11 UNL     1      31.358   0.792  37.359  1.00  0.00     0.275 HD
ENDBRANCH   1   9
TORSDOF 1
ENDMDL
MODEL 3
REMARK VINA RESULT: -5.746019483      1.818      2.764
REMARK  1 active torsions:
REMARK  status: ('A' for Active; 'I' for Inactive)
REMARK    1  A    between atoms: N1_1  and  C1_5 
ROOT
HETATM    1  C1  UNL     1      35.644  -0.470  34.232  1.00  0.00     0.127 C 
HETATM    2  C2  UNL     1      35.736  -1.355  35.433  1.00  0.00     0.039 C 
HETATM    3  C3  UNL     1      34.608  -1.019  36.412  1.00  0.00     0.002 C 
HETATM    4  C4  UNL     1      34.951   0.388  36.913  1.00  0.00     0.001 C 
HETATM    5  C5  UNL     1      34.757   1.321  35.763  1.00  0.00     0.007 C 
HETATM    6  C6  UNL     1      35.458   0.971  34.522  1.00  0.00     0.021 C 
HETATM    7  C7  UNL     1      36.985   1.079  34.635  1.00  0.00     0.009 C 
HETATM    8  C8  UNL     1      37.018  -0.097  33.651  1.00  0.00     0.039 C 
ENDROOT
BRANCH   1   9
HETATM    9  N1  UNL     1      34.847  -1.031  33.156  1.00  0.00    -0.070 N 
ATOM     10  H13 UNL     1      35.037  -2.027  33.048  1.00  0.00     0.275 HD
ATOM     11  H12 UNL     1      33.863  -1.073  33.421  1.00  0.00     0.275 HD
ATOM     12  H11 UNL     1      34.960  -0.544  32.268  1.00  0.00     0.275 HD
ENDBRANCH   1   9
TORSDOF 1
ENDMDL
MODEL 4
REMARK VINA RESULT: -5.743705593      2.515      3.422
REMARK  1 active torsions:
REMARK  status: ('A' for Active; 'I' for Inactive)
REMARK    1  A    between atoms: N1_1  and  C1_5 
ROOT
HETATM    1  C1  UNL     1      34.209   0.497  35.624  1.00  0.00     0.127 C 
HETATM    2  C2  UNL     1      35.421   1.367  35.717  1.00  0.00     0.039 C 
HETATM    3  C3  UNL     1      36.395   1.021  34.587  1.00  0.00     0.002 C 
HETATM    4  C4  UNL     1      36.879  -0.393  34.926  1.00  0.00     0.001 C 
HETATM    5  C5  UNL     1      35.718  -1.311  34.731  1.00  0.00     0.007 C 
HETATM    6  C6  UNL     1      34.482  -0.947  35.435  1.00  0.00     0.021 C 
HETATM    7  C7  UNL     1      34.595  -1.060  36.961  1.00  0.00     0.009 C 
HETATM    8  C8  UNL     1      33.626   0.128  36.998  1.00  0.00     0.039 C 
ENDROOT
BRANCH   1   9
HETATM    9  N1  UNL     1      33.140   1.073  34.830  1.00  0.00    -0.070 N 
ATOM     10  H13 UNL     1      32.755   1.899  35.288  1.00  0.00     0.275 HD
ATOM     11  H12 UNL     1      33.512   1.506  33.984  1.00  0.00     0.275 HD
ATOM     12  H11 UNL     1      32.400   0.410  34.600  1.00  0.00     0.275 HD
ENDBRANCH   1   9
TORSDOF 1
ENDMDL
MODEL 5
REMARK VINA RESULT: -5.715762291      2.863      3.676
REMARK  1 active torsions:
REMARK  status: ('A' for Active; 'I' for Inactive)
REMARK    1  A    between atoms: N1_1  and  C1_5 
ROOT
HETATM    1  C1  UNL     1      33.394   0.393  34.783  1.00  0.00     0.127 C 
HETATM    2  C2  UNL     1      33.453  -1.059  35.134  1.00  0.00     0.039 C 
HETATM    3  C3  UNL     1      33.259  -1.236  36.642  1.00  0.00     0.002 C 
HETATM    4  C4  UNL     1      34.516  -0.615  37.259  1.00  0.00     0.001 C 
HETATM    5  C5  UNL     1      34.434   0.859  37.028  1.00  0.00     0.007 C 
HETATM    6  C6  UNL     1      34.210   1.283  35.641  1.00  0.00     0.021 C 
HETATM    7  C7  UNL     1      35.396   0.983  34.713  1.00  0.00     0.009 C 
HETATM    8  C8  UNL     1      34.334   0.772  33.627  1.00  0.00     0.039 C 
ENDROOT
BRANCH   1   9
HETATM    9  N1  UNL     1      32.062   0.854  34.439  1.00  0.00    -0.070 N 
ATOM     10  H13 UNL     1      31.982   1.010  33.434  1.00  0.00     0.275 HD
ATOM     11  H12 UNL     1      31.381   0.103  34.549  1.00  0.00     0.275 HD
ATOM     12  H11 UNL     1      31.770   1.683  34.956  1.00  0.00     0.275 HD
ENDBRANCH   1   9
TORSDOF 1
ENDMDL
