MODEL 1
REMARK VINA RESULT: -5.776960734      0.000      0.000
REMARK  0 active torsions:
REMARK  status: ('A' for Active; 'I' for Inactive)
ROOT
HETATM    1  C1  UNL     1      34.366  -1.394  37.027  1.00  0.00     0.004 C 
HETATM    2  C2  UNL     1      34.037  -1.338  35.528  1.00  0.00     0.033 C 
HETATM    3  C3  UNL     1      32.818  -0.483  35.407  1.00  0.00     0.186 C 
HETATM    4  C4  UNL     1      32.812   0.408  34.201  1.00  0.00     0.033 C 
HETATM    5  C5  UNL     1      33.620   1.647  34.361  1.00  0.00     0.004 C 
HETATM    6  C6  UNL     1      34.483   1.691  35.570  1.00  0.00     0.033 C 
HETATM    7  C7  UNL     1      33.915   1.048  36.783  1.00  0.00     0.186 C 
HETATM    8  C8  UNL     1      34.840   0.008  37.401  1.00  0.00     0.033 C 
HETATM    9  N1  UNL     1      32.643   0.397  36.571  1.00  0.00    -0.067 N 
ATOM     10  H11 UNL     1      32.294  -0.088  37.397  1.00  0.00     0.278 HD
ATOM     11  H12 UNL     1      31.865   1.050  36.471  1.00  0.00     0.278 HD
ENDROOT
TORSDOF 0
ENDMDL
MODEL 2
REMARK VINA RESULT: -5.760605771      3.041      3.978
REMARK  0 active torsions:
REMARK  status: ('A' for Active; 'I' for Inactive)
ROOT
HETATM    1  C1  UNL     1      37.029   1.367  34.411  1.00  0.00     0.004 C 
HETATM    2  C2  UNL     1      35.527   1.321  34.092  1.00  0.00     0.033 C 
HETATM    3  C3  UNL     1      35.396   0.488  32.859  1.00  0.00     0.186 C 
HETATM    4  C4  UNL     1      34.186  -0.399  32.847  1.00  0.00     0.033 C 
HETATM    5  C5  UNL     1      34.349  -1.653  33.632  1.00  0.00     0.004 C 
HETATM    6  C6  UNL     1      35.565  -1.715  34.485  1.00  0.00     0.033 C 
HETATM    7  C7  UNL     1      36.775  -1.066  33.919  1.00  0.00     0.186 C 
HETATM    8  C8  UNL     1      37.403  -0.044  34.858  1.00  0.00     0.033 C 
HETATM    9  N1  UNL     1      36.555  -0.392  32.660  1.00  0.00    -0.067 N 
ATOM     10  H11 UNL     1      37.380   0.097  32.314  1.00  0.00     0.278 HD
ATOM     11  H12 UNL     1      36.448  -1.031  31.872  1.00  0.00     0.278 HD
ENDROOT
TORSDOF 0
ENDMDL
MODEL 3
REMARK VINA RESULT: -5.725497194      2.046      3.256
REMARK  0 active torsions:
REMARK  status: ('A' for Active; 'I' for Inactive)
ROOT
HETATM    1  C1  UNL     1      36.932  -0.466  33.848  1.00  0.00     0.004 C 
HETATM    2  C2  UNL     1      36.813   0.736  34.797  1.00  0.00     0.033 C 
HETATM    3  C3  UNL     1      35.375   1.141  34.766  1.00  0.00     0.186 C 
HETATM    4  C4  UNL     1      34.837   1.588  36.093  1.00  0.00     0.033 C 
HETATM    5  C5  UNL     1      34.465   0.469  37.002  1.00  0.00     0.004 C 
HETATM    6  C6  UNL     1      34.901  -0.881  36.560  1.00  0.00     0.033 C 
HETATM    7  C7  UNL     1      34.868  -1.113  35.093  1.00  0.00     0.186 C 
HETATM    8  C8  UNL     1      36.195  -1.613  34.534  1.00  0.00     0.033 C 
HETATM    9  N1  UNL     1      34.503   0.048  34.315  1.00  0.00    -0.067 N 
ATOM     10  H11 UNL     1      34.541  -0.111  33.309  1.00  0.00     0.278 HD
ATOM     11  H12 UNL     1      33.509   0.275  34.368  1.00  0.00     0.278 HD
ENDROOT
TORSDOF 0
ENDMDL
MODEL 4
REMARK VINA RESULT: -5.712078603      1.933      2.686
REMARK  0 active torsions:
REMARK  status: ('A' for Active; 'I' for Inactive)
ROOT
HETATM    1  C1  UNL     1      33.954   0.438  36.865  1.00  0.00     0.004 C 
HETATM    2  C2  UNL     1      34.804  -0.826  36.666  1.00  0.00     0.033 C 
HETATM    3  C3  UNL     1      34.750  -1.130  35.204  1.00  0.00     0.186 C 
HETATM    4  C4  UNL     1      36.041  -1.645  34.639  1.00  0.00     0.033 C 
HETATM    5  C5  UNL     1      37.039  -0.581  34.344  1.00  0.00     0.004 C 
HETATM    6  C6  UNL     1      36.703   0.768  34.869  1.00  0.00     0.033 C 
HETATM    7  C7  UNL     1      35.259   1.119  34.851  1.00  0.00     0.186 C 
HETATM    8  C8  UNL     1      34.734   1.572  36.207  1.00  0.00     0.033 C 
HETATM    9  N1  UNL     1      34.393   0.052  34.407  1.00  0.00    -0.067 N 
ATOM     10  H11 UNL     1      33.403   0.288  34.455  1.00  0.00     0.278 HD
ATOM     11  H12 UNL     1      34.435  -0.112  33.401  1.00  0.00     0.278 HD
ENDROOT
TORSDOF 0
ENDMDL
MODEL 5
REMARK VINA RESULT: -5.651620811      1.444      2.434
REMARK  0 active torsions:
REMARK  status: ('A' for Active; 'I' for Inactive)
ROOT
HETATM    1  C1  UNL     1      31.157  -0.994  35.942  1.00  0.00     0.004 C 
HETATM    2  C2  UNL     1      32.234  -1.731  35.131  1.00  0.00     0.033 C 
HETATM    3  C3  UNL     1      33.150  -0.673  34.610  1.00  0.00     0.186 C 
HETATM    4  C4  UNL     1      34.597  -1.069  34.596  1.00  0.00     0.033 C 
HETATM    5  C5  UNL     1      35.269  -0.948  35.918  1.00  0.00     0.004 C 
HETATM    6  C6  UNL     1      34.365  -0.694  37.070  1.00  0.00     0.033 C 
HETATM    7  C7  UNL     1      33.195   0.176  36.782  1.00  0.00     0.186 C 
HETATM    8  C8  UNL     1      31.867  -0.454  37.181  1.00  0.00     0.033 C 
HETATM    9  N1  UNL     1      33.070   0.565  35.397  1.00  0.00    -0.067 N 
ATOM     10  H11 UNL     1      32.231   1.113  35.206  1.00  0.00     0.278 HD
ATOM     11  H12 UNL     1      33.749   1.271  35.112  1.00  0.00     0.278 HD
ENDROOT
TORSDOF 0
ENDMDL
