MODEL 1
REMARK VINA RESULT: -6.313452140      0.000      0.000
REMARK  8 active torsions:
REMARK  status: ('A' for Active; 'I' for Inactive)
REMARK    1  A    between atoms: C2_2  and  C3_3 
REMARK    2  A    between atoms: C11_12  and  O1_13 
REMARK    3  A    between atoms: C12_15  and  C13_16 
REMARK    4  A    between atoms: C13_16  and  C14_17 
REMARK    5  A    between atoms: C14_17  and  N1_18 
REMARK    6  A    between atoms: N1_18  and  C15_19 
REMARK    7  A    between atoms: N1_18  and  C18_22 
REMARK    8  A    between atoms: C21_25  and  C22_26 
ROOT
HETATM    1  C3  UNL     1      14.389 -12.256  19.149  1.00  0.00    -0.004 C 
HETATM    2  C4  UNL     1      13.552 -11.021  18.722  1.00  0.00     0.021 C 
HETATM    3  C5  UNL     1      15.040 -12.756  17.906  1.00  0.00     0.004 A 
HETATM    4  C6  UNL     1      15.237 -11.758  16.790  1.00  0.00     0.006 A 
HETATM    5  C7  UNL     1      16.730 -11.847  17.030  1.00  0.00     0.007 A 
HETATM    6  C8  UNL     1      16.483 -12.864  18.120  1.00  0.00     0.012 A 
HETATM    7  C9  UNL     1      17.025 -12.408  19.421  1.00  0.00     0.044 C 
HETATM    8 BR1  UNL     1      18.959 -12.375  19.210  1.00  0.00    -0.083 Br
HETATM    9  C10 UNL     1      16.480 -11.072  19.879  1.00  0.00     0.057 C 
HETATM   10  C11 UNL     1      16.967 -11.443  21.227  1.00  0.00     0.140 C 
HETATM   11  C12 UNL     1      16.399 -12.740  20.650  1.00  0.00     0.043 C 
HETATM   12  C21 UNL     1      15.243 -11.797  20.238  1.00  0.00     0.082 C 
ENDROOT
BRANCH  11  13
HETATM   13  C13 UNL     1      16.111 -13.827  21.457  1.00  0.00     0.006 C 
BRANCH  13  14
HETATM   14  C14 UNL     1      16.898 -15.047  21.453  1.00  0.00     0.088 C 
BRANCH  14  15
HETATM   15  N1  UNL     1      17.791 -15.391  22.504  1.00  0.00    -0.358 N 
BRANCH  15  16
HETATM   16  C15 UNL     1      18.737 -14.576  23.155  1.00  0.00    -0.002 C 
HETATM   17  C16 UNL     1      18.540 -14.141  24.373  1.00  0.00     0.038 C 
HETATM   18  C17 UNL     1      20.013 -14.228  22.499  1.00  0.00     0.067 C 
ENDBRANCH  15  16
BRANCH  15  19
HETATM   19  C18 UNL     1      17.811 -16.814  22.901  1.00  0.00     0.081 C 
HETATM   20  C19 UNL     1      18.085 -17.703  21.697  1.00  0.00     0.032 C 
HETATM   21  C20 UNL     1      16.498 -17.162  23.516  1.00  0.00     0.032 C 
ENDBRANCH  15  19
ENDBRANCH  14  15
ENDBRANCH  13  14
ENDBRANCH  11  13
BRANCH  10  22
HETATM   22  O1  UNL     1      18.315 -11.407  21.495  1.00  0.00    -0.394 OA
ATOM     23  H1  UNL     1      18.918 -11.086  20.835  1.00  0.00     0.210 HD
ENDBRANCH  10  22
BRANCH  12  24
HETATM   24  C22 UNL     1      14.431 -11.236  21.321  1.00  0.00     0.184 C 
HETATM   25  O2  UNL     1      14.346  -9.952  21.335  1.00  0.00    -0.647 OA
HETATM   26  O3  UNL     1      13.755 -11.874  22.310  1.00  0.00    -0.647 OA
ENDBRANCH  12  24
BRANCH   1  27
HETATM   27  C2  UNL     1      13.376 -13.240  19.586  1.00  0.00    -0.026 C 
HETATM   28  C1  UNL     1      13.472 -14.522  19.170  1.00  0.00     0.008 C 
ENDBRANCH   1  27
TORSDOF 8
ENDMDL
MODEL 2
REMARK VINA RESULT: -6.256165809      2.598      5.033
REMARK  8 active torsions:
REMARK  status: ('A' for Active; 'I' for Inactive)
REMARK    1  A    between atoms: C2_2  and  C3_3 
REMARK    2  A    between atoms: C11_12  and  O1_13 
REMARK    3  A    between atoms: C12_15  and  C13_16 
REMARK    4  A    between atoms: C13_16  and  C14_17 
REMARK    5  A    between atoms: C14_17  and  N1_18 
REMARK    6  A    between atoms: N1_18  and  C15_19 
REMARK    7  A    between atoms: N1_18  and  C18_22 
REMARK    8  A    between atoms: C21_25  and  C22_26 
ROOT
HETATM    1  C3  UNL     1      15.031 -14.131  19.270  1.00  0.00    -0.004 C 
HETATM    2  C4  UNL     1      15.276 -14.867  17.927  1.00  0.00     0.021 C 
HETATM    3  C5  UNL     1      15.262 -15.144  20.337  1.00  0.00     0.004 A 
HETATM    4  C6  UNL     1      16.157 -16.309  19.990  1.00  0.00     0.006 A 
HETATM    5  C7  UNL     1      17.180 -15.758  20.964  1.00  0.00     0.007 A 
HETATM    6  C8  UNL     1      16.235 -14.627  21.299  1.00  0.00     0.012 A 
HETATM    7  C9  UNL     1      16.849 -13.308  21.020  1.00  0.00     0.044 C 
HETATM    8 BR1  UNL     1      18.310 -13.121  22.292  1.00  0.00    -0.083 Br
HETATM    9  C10 UNL     1      17.314 -13.137  19.590  1.00  0.00     0.057 C 
HETATM   10  C11 UNL     1      17.327 -11.683  19.868  1.00  0.00     0.140 C 
HETATM   11  C12 UNL     1      16.077 -12.202  20.579  1.00  0.00     0.043 C 
HETATM   12  C21 UNL     1      15.890 -12.954  19.239  1.00  0.00     0.082 C 
ENDROOT
BRANCH  11  13
HETATM   13  C13 UNL     1      15.076 -11.346  21.002  1.00  0.00     0.006 C 
BRANCH  13  14
HETATM   14  C14 UNL     1      14.048 -11.736  21.950  1.00  0.00     0.088 C 
BRANCH  14  15
HETATM   15  N1  UNL     1      12.803 -11.059  22.059  1.00  0.00    -0.358 N 
BRANCH  15  16
HETATM   16  C15 UNL     1      12.546  -9.676  21.988  1.00  0.00    -0.002 C 
HETATM   17  C16 UNL     1      12.064  -9.127  20.902  1.00  0.00     0.038 C 
HETATM   18  C17 UNL     1      12.764  -8.807  23.160  1.00  0.00     0.067 C 
ENDBRANCH  15  16
BRANCH  15  19
HETATM   19  C18 UNL     1      11.634 -11.898  22.394  1.00  0.00     0.081 C 
HETATM   20  C19 UNL     1      11.052 -11.494  23.741  1.00  0.00     0.032 C 
HETATM   21  C20 UNL     1      12.057 -13.328  22.418  1.00  0.00     0.032 C 
ENDBRANCH  15  19
ENDBRANCH  14  15
ENDBRANCH  13  14
ENDBRANCH  11  13
BRANCH  10  22
HETATM   22  O1  UNL     1      18.324 -11.150  20.651  1.00  0.00    -0.394 OA
ATOM     23  H1  UNL     1      19.234 -11.282  20.409  1.00  0.00     0.210 HD
ENDBRANCH  10  22
BRANCH  12  24
HETATM   24  C22 UNL     1      15.593 -12.137  18.060  1.00  0.00     0.184 C 
HETATM   25  O2  UNL     1      16.382 -12.310  17.058  1.00  0.00    -0.647 OA
HETATM   26  O3  UNL     1      14.606 -11.225  17.871  1.00  0.00    -0.647 OA
ENDBRANCH  12  24
BRANCH   1  27
HETATM   27  C2  UNL     1      13.591 -13.794  19.235  1.00  0.00    -0.026 C 
HETATM   28  C1  UNL     1      12.675 -14.781  19.355  1.00  0.00     0.008 C 
ENDBRANCH   1  27
TORSDOF 8
ENDMDL
MODEL 3
REMARK VINA RESULT: -6.252203632      2.504      4.255
REMARK  8 active torsions:
REMARK  status: ('A' for Active; 'I' for Inactive)
REMARK    1  A    between atoms: C2_2  and  C3_3 
REMARK    2  A    between atoms: C11_12  and  O1_13 
REMARK    3  A    between atoms: C12_15  and  C13_16 
REMARK    4  A    between atoms: C13_16  and  C14_17 
REMARK    5  A    between atoms: C14_17  and  N1_18 
REMARK    6  A    between atoms: N1_18  and  C15_19 
REMARK    7  A    between atoms: N1_18  and  C18_22 
REMARK    8  A    between atoms: C21_25  and  C22_26 
ROOT
HETATM    1  C3  UNL     1      16.789 -13.506  20.725  1.00  0.00    -0.004 C 
HETATM    2  C4  UNL     1      16.733 -13.111  19.226  1.00  0.00     0.021 C 
HETATM    3  C5  UNL     1      15.894 -14.689  20.867  1.00  0.00     0.004 A 
HETATM    4  C6  UNL     1      15.656 -15.517  19.627  1.00  0.00     0.006 A 
HETATM    5  C7  UNL     1      16.440 -16.639  20.276  1.00  0.00     0.007 A 
HETATM    6  C8  UNL     1      16.627 -15.781  21.507  1.00  0.00     0.012 A 
HETATM    7  C9  UNL     1      18.062 -15.569  21.807  1.00  0.00     0.044 C 
HETATM    8 BR1  UNL     1      18.763 -17.312  22.313  1.00  0.00    -0.083 Br
HETATM    9  C10 UNL     1      18.842 -14.950  20.668  1.00  0.00     0.057 C 
HETATM   10  C11 UNL     1      19.869 -14.614  21.680  1.00  0.00     0.140 C 
HETATM   11  C12 UNL     1      18.535 -14.362  22.383  1.00  0.00     0.043 C 
HETATM   12  C21 UNL     1      18.203 -13.670  21.038  1.00  0.00     0.082 C 
ENDROOT
BRANCH  11  13
HETATM   13  C13 UNL     1      18.458 -13.617  23.547  1.00  0.00     0.006 C 
BRANCH  13  14
HETATM   14  C14 UNL     1      18.421 -14.216  24.869  1.00  0.00     0.088 C 
BRANCH  14  15
HETATM   15  N1  UNL     1      19.580 -14.370  25.678  1.00  0.00    -0.358 N 
BRANCH  15  16
HETATM   16  C15 UNL     1      20.647 -13.471  25.864  1.00  0.00    -0.002 C 
HETATM   17  C16 UNL     1      20.907 -12.954  27.038  1.00  0.00     0.038 C 
HETATM   18  C17 UNL     1      21.543 -13.120  24.745  1.00  0.00     0.067 C 
ENDBRANCH  15  16
BRANCH  15  19
HETATM   19  C18 UNL     1      19.748 -15.686  26.329  1.00  0.00     0.081 C 
HETATM   20  C19 UNL     1      20.789 -16.518  25.597  1.00  0.00     0.032 C 
HETATM   21  C20 UNL     1      18.433 -16.390  26.340  1.00  0.00     0.032 C 
ENDBRANCH  15  19
ENDBRANCH  14  15
ENDBRANCH  13  14
ENDBRANCH  11  13
BRANCH  10  22
HETATM   22  O1  UNL     1      20.674 -15.606  22.188  1.00  0.00    -0.394 OA
ATOM     23  H1  UNL     1      20.523 -15.928  23.069  1.00  0.00     0.210 HD
ENDBRANCH  10  22
BRANCH  12  24
HETATM   24  C22 UNL     1      18.940 -12.442  20.729  1.00  0.00     0.184 C 
HETATM   25  O2  UNL     1      18.511 -11.382  21.319  1.00  0.00    -0.647 OA
HETATM   26  O3  UNL     1      20.010 -12.261  19.914  1.00  0.00    -0.647 OA
ENDBRANCH  12  24
BRANCH   1  27
HETATM   27  C2  UNL     1      16.173 -12.356  21.422  1.00  0.00    -0.026 C 
HETATM   28  C1  UNL     1      14.828 -12.231  21.436  1.00  0.00     0.008 C 
ENDBRANCH   1  27
TORSDOF 8
ENDMDL
MODEL 4
REMARK VINA RESULT: -6.232590467      3.456      7.727
REMARK  8 active torsions:
REMARK  status: ('A' for Active; 'I' for Inactive)
REMARK    1  A    between atoms: C2_2  and  C3_3 
REMARK    2  A    between atoms: C11_12  and  O1_13 
REMARK    3  A    between atoms: C12_15  and  C13_16 
REMARK    4  A    between atoms: C13_16  and  C14_17 
REMARK    5  A    between atoms: C14_17  and  N1_18 
REMARK    6  A    between atoms: N1_18  and  C15_19 
REMARK    7  A    between atoms: N1_18  and  C18_22 
REMARK    8  A    between atoms: C21_25  and  C22_26 
ROOT
HETATM    1  C3  UNL     1      21.895 -14.899  24.878  1.00  0.00    -0.004 C 
HETATM    2  C4  UNL     1      22.747 -15.054  26.165  1.00  0.00     0.021 C 
HETATM    3  C5  UNL     1      22.018 -16.193  24.151  1.00  0.00     0.004 A 
HETATM    4  C6  UNL     1      22.362 -17.410  24.977  1.00  0.00     0.006 A 
HETATM    5  C7  UNL     1      20.970 -17.940  24.699  1.00  0.00     0.007 A 
HETATM    6  C8  UNL     1      20.685 -16.717  23.857  1.00  0.00     0.012 A 
HETATM    7  C9  UNL     1      19.518 -15.965  24.373  1.00  0.00     0.044 C 
HETATM    8 BR1  UNL     1      17.976 -17.119  24.099  1.00  0.00    -0.083 Br
HETATM    9  C10 UNL     1      19.655 -15.532  25.817  1.00  0.00     0.057 C 
HETATM   10  C11 UNL     1      18.566 -14.570  25.533  1.00  0.00     0.140 C 
HETATM   11  C12 UNL     1      19.437 -14.551  24.277  1.00  0.00     0.043 C 
HETATM   12  C21 UNL     1      20.573 -14.483  25.326  1.00  0.00     0.082 C 
ENDROOT
BRANCH  11  13
HETATM   13  C13 UNL     1      19.338 -13.536  23.342  1.00  0.00     0.006 C 
BRANCH  13  14
HETATM   14  C14 UNL     1      19.477 -13.757  21.914  1.00  0.00     0.088 C 
BRANCH  14  15
HETATM   15  N1  UNL     1      18.365 -13.817  21.031  1.00  0.00    -0.358 N 
BRANCH  15  16
HETATM   16  C15 UNL     1      17.321 -14.762  20.996  1.00  0.00    -0.002 C 
HETATM   17  C16 UNL     1      17.546 -16.016  20.696  1.00  0.00     0.038 C 
HETATM   18  C17 UNL     1      15.942 -14.377  21.351  1.00  0.00     0.067 C 
ENDBRANCH  15  16
BRANCH  15  19
HETATM   19  C18 UNL     1      18.349 -12.825  19.936  1.00  0.00     0.081 C 
HETATM   20  C19 UNL     1      19.738 -12.663  19.338  1.00  0.00     0.032 C 
HETATM   21  C20 UNL     1      17.858 -11.523  20.473  1.00  0.00     0.032 C 
ENDBRANCH  15  19
ENDBRANCH  14  15
ENDBRANCH  13  14
ENDBRANCH  11  13
BRANCH  10  22
HETATM   22  O1  UNL     1      17.275 -15.025  25.401  1.00  0.00    -0.394 OA
ATOM     23  H1  UNL     1      16.566 -14.556  25.826  1.00  0.00     0.210 HD
ENDBRANCH  10  22
BRANCH  12  24
HETATM   24  C22 UNL     1      20.665 -13.254  26.118  1.00  0.00     0.184 C 
HETATM   25  O2  UNL     1      20.475 -13.399  27.383  1.00  0.00    -0.647 OA
HETATM   26  O3  UNL     1      20.924 -11.985  25.712  1.00  0.00    -0.647 OA
ENDBRANCH  12  24
BRANCH   1  27
HETATM   27  C2  UNL     1      22.600 -13.851  24.108  1.00  0.00    -0.026 C 
HETATM   28  C1  UNL     1      23.948 -13.778  24.164  1.00  0.00     0.008 C 
ENDBRANCH   1  27
TORSDOF 8
ENDMDL
MODEL 5
REMARK VINA RESULT: -6.226671422      0.734      1.116
REMARK  8 active torsions:
REMARK  status: ('A' for Active; 'I' for Inactive)
REMARK    1  A    between atoms: C2_2  and  C3_3 
REMARK    2  A    between atoms: C11_12  and  O1_13 
REMARK    3  A    between atoms: C12_15  and  C13_16 
REMARK    4  A    between atoms: C13_16  and  C14_17 
REMARK    5  A    between atoms: C14_17  and  N1_18 
REMARK    6  A    between atoms: N1_18  and  C15_19 
REMARK    7  A    between atoms: N1_18  and  C18_22 
REMARK    8  A    between atoms: C21_25  and  C22_26 
ROOT
HETATM    1  C3  UNL     1      14.500 -12.339  19.129  1.00  0.00    -0.004 C 
HETATM    2  C4  UNL     1      13.590 -11.160  18.693  1.00  0.00     0.021 C 
HETATM    3  C5  UNL     1      15.145 -12.837  17.882  1.00  0.00     0.004 A 
HETATM    4  C6  UNL     1      15.262 -11.860  16.736  1.00  0.00     0.006 A 
HETATM    5  C7  UNL     1      16.764 -11.866  16.940  1.00  0.00     0.007 A 
HETATM    6  C8  UNL     1      16.597 -12.866  18.061  1.00  0.00     0.012 A 
HETATM    7  C9  UNL     1      17.147 -12.349  19.335  1.00  0.00     0.044 C 
HETATM    8 BR1  UNL     1      19.070 -12.222  19.072  1.00  0.00    -0.083 Br
HETATM    9  C10 UNL     1      16.545 -11.031  19.774  1.00  0.00     0.057 C 
HETATM   10  C11 UNL     1      17.084 -11.341  21.117  1.00  0.00     0.140 C 
HETATM   11  C12 UNL     1      16.569 -12.680  20.588  1.00  0.00     0.043 C 
HETATM   12  C21 UNL     1      15.356 -11.808  20.183  1.00  0.00     0.082 C 
ENDROOT
BRANCH  11  13
HETATM   13  C13 UNL     1      16.358 -13.759  21.429  1.00  0.00     0.006 C 
BRANCH  13  14
HETATM   14  C14 UNL     1      17.005 -13.894  22.722  1.00  0.00     0.088 C 
BRANCH  14  15
HETATM   15  N1  UNL     1      18.200 -14.640  22.911  1.00  0.00    -0.358 N 
BRANCH  15  16
HETATM   16  C15 UNL     1      19.408 -14.560  22.192  1.00  0.00    -0.002 C 
HETATM   17  C16 UNL     1      20.362 -13.738  22.550  1.00  0.00     0.038 C 
HETATM   18  C17 UNL     1      19.660 -15.442  21.037  1.00  0.00     0.067 C 
ENDBRANCH  15  16
BRANCH  15  19
HETATM   19  C18 UNL     1      18.143 -15.715  23.923  1.00  0.00     0.081 C 
HETATM   20  C19 UNL     1      17.040 -16.708  23.588  1.00  0.00     0.032 C 
HETATM   21  C20 UNL     1      17.905 -15.105  25.263  1.00  0.00     0.032 C 
ENDBRANCH  15  19
ENDBRANCH  14  15
ENDBRANCH  13  14
ENDBRANCH  11  13
BRANCH  10  22
HETATM   22  O1  UNL     1      18.435 -11.230  21.350  1.00  0.00    -0.394 OA
ATOM     23  H1  UNL     1      19.020 -11.918  21.055  1.00  0.00     0.210 HD
ENDBRANCH  10  22
BRANCH  12  24
HETATM   24  C22 UNL     1      14.544 -11.262  21.273  1.00  0.00     0.184 C 
HETATM   25  O2  UNL     1      14.417  -9.981  21.274  1.00  0.00    -0.647 OA
HETATM   26  O3  UNL     1      13.905 -11.910  22.279  1.00  0.00    -0.647 OA
ENDBRANCH  12  24
BRANCH   1  27
HETATM   27  C2  UNL     1      13.550 -13.362  19.616  1.00  0.00    -0.026 C 
HETATM   28  C1  UNL     1      13.673 -14.639  19.191  1.00  0.00     0.008 C 
ENDBRANCH   1  27
TORSDOF 8
ENDMDL
