MODEL 1
REMARK VINA RESULT: -5.592298115      0.000      0.000
REMARK  5 active torsions:
REMARK  status: ('A' for Active; 'I' for Inactive)
REMARK    1  A    between atoms: N2_4  and  N3_6 
REMARK    2  A    between atoms: N3_6  and  C1_8 
REMARK    3  A    between atoms: N4_9  and  C2_11 
REMARK    4  A    between atoms: C2_11  and  C3_12 
REMARK    5  A    between atoms: C3_12  and  N5_13 
ROOT
HETATM    1  C1  UNL     1      30.363  15.075 -60.192  1.00  0.00     0.194 C 
HETATM    2  N4  UNL     1      29.242  15.193 -59.576  1.00  0.00    -0.383 N 
ATOM      3  H4  UNL     1      28.615  15.967 -59.798  1.00  0.00     0.160 HD
ENDROOT
BRANCH   2   4
HETATM    4  C2  UNL     1      28.870  14.223 -58.565  1.00  0.00     0.142 C 
BRANCH   4   5
HETATM    5  C3  UNL     1      27.476  14.556 -58.058  1.00  0.00     0.167 C 
BRANCH   5   6
HETATM    6  N5  UNL     1      27.552  14.681 -56.601  1.00  0.00    -0.302 N 
HETATM    7  C4  UNL     1      27.249  13.697 -55.724  1.00  0.00     0.111 A 
HETATM    8  C5  UNL     1      27.463  14.254 -54.479  1.00  0.00     0.037 A 
HETATM    9  C6  UNL     1      27.884  15.548 -54.631  1.00  0.00     0.108 A 
HETATM   10  N6  UNL     1      27.927  15.776 -55.957  1.00  0.00    -0.310 N 
ATOM     11  H6  UNL     1      28.205  16.653 -56.396  1.00  0.00     0.186 HD
ENDBRANCH   5   6
ENDBRANCH   4   5
ENDBRANCH   2   4
BRANCH   1  12
HETATM   12  N3  UNL     1      31.227  13.995 -59.878  1.00  0.00    -0.283 N 
ATOM     13  H3  UNL     1      30.957  13.337 -59.146  1.00  0.00     0.189 HD
BRANCH  12  14
HETATM   14  N2  UNL     1      32.441  13.813 -60.549  1.00  0.00    -0.248 N 
HETATM   15  N1  UNL     1      32.970  12.677 -60.546  1.00  0.00    -0.331 N 
ATOM     16  H12 UNL     1      32.511  11.908 -60.058  1.00  0.00     0.178 HD
ATOM     17  H11 UNL     1      33.856  12.544 -61.035  1.00  0.00     0.178 HD
ATOM     18  H2  UNL     1      32.888  14.592 -61.033  1.00  0.00     0.207 HD
ENDBRANCH  12  14
ENDBRANCH   1  12
TORSDOF 5
ENDMDL
MODEL 2
REMARK VINA RESULT: -5.219979775      3.849      6.524
REMARK  5 active torsions:
REMARK  status: ('A' for Active; 'I' for Inactive)
REMARK    1  A    between atoms: N2_4  and  N3_6 
REMARK    2  A    between atoms: N3_6  and  C1_8 
REMARK    3  A    between atoms: N4_9  and  C2_11 
REMARK    4  A    between atoms: C2_11  and  C3_12 
REMARK    5  A    between atoms: C3_12  and  N5_13 
ROOT
HETATM    1  C1  UNL     1      26.552  19.348 -54.718  1.00  0.00     0.194 C 
HETATM    2  N4  UNL     1      27.566  19.229 -55.497  1.00  0.00    -0.383 N 
ATOM      3  H4  UNL     1      27.734  19.920 -56.229  1.00  0.00     0.160 HD
ENDROOT
BRANCH   2   4
HETATM    4  C2  UNL     1      28.472  18.109 -55.333  1.00  0.00     0.142 C 
BRANCH   4   5
HETATM    5  C3  UNL     1      28.300  17.166 -56.514  1.00  0.00     0.167 C 
BRANCH   5   6
HETATM    6  N5  UNL     1      27.904  15.859 -55.984  1.00  0.00    -0.302 N 
HETATM    7  C4  UNL     1      27.571  14.788 -56.739  1.00  0.00     0.111 A 
HETATM    8  C5  UNL     1      27.273  13.793 -55.830  1.00  0.00     0.037 A 
HETATM    9  C6  UNL     1      27.431  14.281 -54.560  1.00  0.00     0.108 A 
HETATM   10  N6  UNL     1      27.822  15.561 -54.696  1.00  0.00    -0.310 N 
ATOM     11  H6  UNL     1      28.023  16.202 -53.928  1.00  0.00     0.186 HD
ENDBRANCH   5   6
ENDBRANCH   4   5
ENDBRANCH   2   4
BRANCH   1  12
HETATM   12  N3  UNL     1      26.329  18.382 -53.703  1.00  0.00    -0.283 N 
ATOM     13  H3  UNL     1      27.063  17.707 -53.486  1.00  0.00     0.189 HD
BRANCH  12  14
HETATM   14  N2  UNL     1      25.124  18.335 -52.993  1.00  0.00    -0.248 N 
HETATM   15  N1  UNL     1      24.832  17.291 -52.364  1.00  0.00    -0.331 N 
ATOM     16  H12 UNL     1      25.473  16.497 -52.379  1.00  0.00     0.178 HD
ATOM     17  H11 UNL     1      23.953  17.256 -51.846  1.00  0.00     0.178 HD
ATOM     18  H2  UNL     1      24.494  19.137 -52.988  1.00  0.00     0.207 HD
ENDBRANCH  12  14
ENDBRANCH   1  12
TORSDOF 5
ENDMDL
MODEL 3
REMARK VINA RESULT: -5.177533567      1.608      5.774
REMARK  5 active torsions:
REMARK  status: ('A' for Active; 'I' for Inactive)
REMARK    1  A    between atoms: N2_4  and  N3_6 
REMARK    2  A    between atoms: N3_6  and  C1_8 
REMARK    3  A    between atoms: N4_9  and  C2_11 
REMARK    4  A    between atoms: C2_11  and  C3_12 
REMARK    5  A    between atoms: C3_12  and  N5_13 
ROOT
HETATM    1  C1  UNL     1      27.779  15.534 -54.891  1.00  0.00     0.194 C 
HETATM    2  N4  UNL     1      27.580  14.630 -55.782  1.00  0.00    -0.383 N 
ATOM      3  H4  UNL     1      27.272  13.698 -55.506  1.00  0.00     0.160 HD
ENDROOT
BRANCH   2   4
HETATM    4  C2  UNL     1      27.793  14.940 -57.183  1.00  0.00     0.142 C 
BRANCH   4   5
HETATM    5  C3  UNL     1      28.173  13.662 -57.913  1.00  0.00     0.167 C 
BRANCH   5   6
HETATM    6  N5  UNL     1      29.197  14.003 -58.903  1.00  0.00    -0.302 N 
HETATM    7  C4  UNL     1      29.261  15.174 -59.577  1.00  0.00     0.111 A 
HETATM    8  C5  UNL     1      30.372  15.055 -60.388  1.00  0.00     0.037 A 
HETATM    9  C6  UNL     1      30.946  13.828 -60.188  1.00  0.00     0.108 A 
HETATM   10  N6  UNL     1      30.192  13.207 -59.263  1.00  0.00    -0.310 N 
ATOM     11  H6  UNL     1      30.360  12.270 -58.896  1.00  0.00     0.186 HD
ENDBRANCH   5   6
ENDBRANCH   4   5
ENDBRANCH   2   4
BRANCH   1  12
HETATM   12  N3  UNL     1      28.206  16.827 -55.286  1.00  0.00    -0.283 N 
ATOM     13  H3  UNL     1      29.089  16.930 -55.788  1.00  0.00     0.189 HD
BRANCH  12  14
HETATM   14  N2  UNL     1      27.443  17.966 -55.003  1.00  0.00    -0.248 N 
HETATM   15  N1  UNL     1      27.083  18.705 -55.949  1.00  0.00    -0.331 N 
ATOM     16  H12 UNL     1      27.351  18.467 -56.905  1.00  0.00     0.178 HD
ATOM     17  H11 UNL     1      26.527  19.535 -55.743  1.00  0.00     0.178 HD
ATOM     18  H2  UNL     1      27.183  18.189 -54.043  1.00  0.00     0.207 HD
ENDBRANCH  12  14
ENDBRANCH   1  12
TORSDOF 5
ENDMDL
MODEL 4
REMARK VINA RESULT: -4.999186261      1.704      2.154
REMARK  5 active torsions:
REMARK  status: ('A' for Active; 'I' for Inactive)
REMARK    1  A    between atoms: N2_4  and  N3_6 
REMARK    2  A    between atoms: N3_6  and  C1_8 
REMARK    3  A    between atoms: N4_9  and  C2_11 
REMARK    4  A    between atoms: C2_11  and  C3_12 
REMARK    5  A    between atoms: C3_12  and  N5_13 
ROOT
HETATM    1  C1  UNL     1      30.323  13.568 -59.499  1.00  0.00     0.194 C 
HETATM    2  N4  UNL     1      29.272  13.542 -58.761  1.00  0.00    -0.383 N 
ATOM      3  H4  UNL     1      29.013  12.687 -58.269  1.00  0.00     0.160 HD
ENDROOT
BRANCH   2   4
HETATM    4  C2  UNL     1      28.455  14.732 -58.629  1.00  0.00     0.142 C 
BRANCH   4   5
HETATM    5  C3  UNL     1      27.788  14.717 -57.263  1.00  0.00     0.167 C 
BRANCH   5   6
HETATM    6  N5  UNL     1      28.079  15.998 -56.614  1.00  0.00    -0.302 N 
HETATM    7  C4  UNL     1      28.490  17.115 -57.256  1.00  0.00     0.111 A 
HETATM    8  C5  UNL     1      28.636  18.061 -56.262  1.00  0.00     0.037 A 
HETATM    9  C6  UNL     1      28.315  17.500 -55.055  1.00  0.00     0.108 A 
HETATM   10  N6  UNL     1      27.975  16.224 -55.313  1.00  0.00    -0.310 N 
ATOM     11  H6  UNL     1      27.684  15.538 -54.616  1.00  0.00     0.186 HD
ENDBRANCH   5   6
ENDBRANCH   4   5
ENDBRANCH   2   4
BRANCH   1  12
HETATM   12  N3  UNL     1      30.675  14.763 -60.178  1.00  0.00    -0.283 N 
ATOM     13  H3  UNL     1      30.380  15.661 -59.793  1.00  0.00     0.189 HD
BRANCH  12  14
HETATM   14  N2  UNL     1      31.417  14.737 -61.364  1.00  0.00    -0.248 N 
HETATM   15  N1  UNL     1      32.588  14.289 -61.337  1.00  0.00    -0.331 N 
ATOM     16  H12 UNL     1      32.978  13.953 -60.456  1.00  0.00     0.178 HD
ATOM     17  H11 UNL     1      33.129  14.270 -62.201  1.00  0.00     0.178 HD
ATOM     18  H2  UNL     1      31.012  15.076 -62.236  1.00  0.00     0.207 HD
ENDBRANCH  12  14
ENDBRANCH   1  12
TORSDOF 5
ENDMDL
MODEL 5
REMARK VINA RESULT: -4.904818758      2.215      3.115
REMARK  5 active torsions:
REMARK  status: ('A' for Active; 'I' for Inactive)
REMARK    1  A    between atoms: N2_4  and  N3_6 
REMARK    2  A    between atoms: N3_6  and  C1_8 
REMARK    3  A    between atoms: N4_9  and  C2_11 
REMARK    4  A    between atoms: C2_11  and  C3_12 
REMARK    5  A    between atoms: C3_12  and  N5_13 
ROOT
HETATM    1  C1  UNL     1      29.855  18.015 -58.244  1.00  0.00     0.194 C 
HETATM    2  N4  UNL     1      29.290  18.485 -57.191  1.00  0.00    -0.383 N 
ATOM      3  H4  UNL     1      29.677  19.305 -56.725  1.00  0.00     0.160 HD
ENDROOT
BRANCH   2   4
HETATM    4  C2  UNL     1      28.099  17.845 -56.666  1.00  0.00     0.142 C 
BRANCH   4   5
HETATM    5  C3  UNL     1      28.434  17.222 -55.319  1.00  0.00     0.167 C 
BRANCH   5   6
HETATM    6  N5  UNL     1      27.938  15.844 -55.332  1.00  0.00    -0.302 N 
HETATM    7  C4  UNL     1      27.730  15.087 -54.231  1.00  0.00     0.111 A 
HETATM    8  C5  UNL     1      27.268  13.879 -54.714  1.00  0.00     0.037 A 
HETATM    9  C6  UNL     1      27.208  13.934 -56.081  1.00  0.00     0.108 A 
HETATM   10  N6  UNL     1      27.630  15.164 -56.426  1.00  0.00    -0.310 N 
ATOM     11  H6  UNL     1      27.702  15.517 -57.381  1.00  0.00     0.186 HD
ENDBRANCH   5   6
ENDBRANCH   4   5
ENDBRANCH   2   4
BRANCH   1  12
HETATM   12  N3  UNL     1      29.307  16.874 -58.885  1.00  0.00    -0.283 N 
ATOM     13  H3  UNL     1      28.294  16.792 -58.979  1.00  0.00     0.189 HD
BRANCH  12  14
HETATM   14  N2  UNL     1      30.126  15.858 -59.390  1.00  0.00    -0.248 N 
HETATM   15  N1  UNL     1      29.819  15.317 -60.479  1.00  0.00    -0.331 N 
ATOM     16  H12 UNL     1      28.983  15.625 -60.976  1.00  0.00     0.178 HD
ATOM     17  H11 UNL     1      30.416  14.577 -60.847  1.00  0.00     0.178 HD
ATOM     18  H2  UNL     1      30.958  15.561 -58.881  1.00  0.00     0.207 HD
ENDBRANCH  12  14
ENDBRANCH   1  12
TORSDOF 5
ENDMDL
