MODEL 1
REMARK VINA RESULT: -6.689161358      0.000      0.000
REMARK  2 active torsions:
REMARK  status: ('A' for Active; 'I' for Inactive)
REMARK    1  A    between atoms: C1_2  and  C2_3 
REMARK    2  A    between atoms: C2_3  and  C3_4 
ROOT
HETATM    1  C3  UNL     1      27.663  17.670   5.345  1.00  0.00     0.248 A 
HETATM    2  F2  UNL     1      28.674  18.564   5.664  1.00  0.00    -0.229 F 
HETATM    3  C4  UNL     1      28.071  16.445   4.665  1.00  0.00     0.352 A 
HETATM    4  F3  UNL     1      27.374  15.274   4.975  1.00  0.00    -0.195 F 
HETATM    5  F4  UNL     1      29.409  16.205   4.412  1.00  0.00    -0.195 F 
HETATM    6  C5  UNL     1      27.342  17.456   3.877  1.00  0.00     0.352 A 
HETATM    7  F5  UNL     1      27.971  18.338   3.040  1.00  0.00    -0.195 F 
HETATM    8  F6  UNL     1      26.045  17.165   3.514  1.00  0.00    -0.195 F 
ENDROOT
BRANCH   1   9
HETATM    9  C2  UNL     1      26.458  17.777   6.223  1.00  0.00     0.088 C 
BRANCH   9  10
HETATM   10  C1  UNL     1      26.691  18.759   7.369  1.00  0.00     0.225 C 
HETATM   11  F1  UNL     1      26.520  20.031   6.821  1.00  0.00    -0.255 F 
ENDBRANCH   9  10
ENDBRANCH   1   9
TORSDOF 2
ENDMDL
MODEL 2
REMARK VINA RESULT: -6.672600583      1.125      2.606
REMARK  2 active torsions:
REMARK  status: ('A' for Active; 'I' for Inactive)
REMARK    1  A    between atoms: C1_2  and  C2_3 
REMARK    2  A    between atoms: C2_3  and  C3_4 
ROOT
HETATM    1  C3  UNL     1      27.061  17.484   5.006  1.00  0.00     0.248 A 
HETATM    2  F2  UNL     1      25.812  17.123   5.488  1.00  0.00    -0.229 F 
HETATM    3  C4  UNL     1      27.222  17.482   3.556  1.00  0.00     0.352 A 
HETATM    4  F3  UNL     1      28.045  18.463   2.997  1.00  0.00    -0.195 F 
HETATM    5  F4  UNL     1      26.148  17.176   2.739  1.00  0.00    -0.195 F 
HETATM    6  C5  UNL     1      27.893  16.416   4.320  1.00  0.00     0.352 A 
HETATM    7  F5  UNL     1      27.378  15.153   4.440  1.00  0.00    -0.195 F 
HETATM    8  F6  UNL     1      29.266  16.474   4.421  1.00  0.00    -0.195 F 
ENDROOT
BRANCH   1   9
HETATM    9  C2  UNL     1      27.839  18.362   5.932  1.00  0.00     0.088 C 
BRANCH   9  10
HETATM   10  C1  UNL     1      26.920  19.295   6.718  1.00  0.00     0.225 C 
HETATM   11  F1  UNL     1      26.594  18.609   7.888  1.00  0.00    -0.255 F 
ENDBRANCH   9  10
ENDBRANCH   1   9
TORSDOF 2
ENDMDL
MODEL 3
REMARK VINA RESULT: -6.645929038      1.096      2.222
REMARK  2 active torsions:
REMARK  status: ('A' for Active; 'I' for Inactive)
REMARK    1  A    between atoms: C1_2  and  C2_3 
REMARK    2  A    between atoms: C2_3  and  C3_4 
ROOT
HETATM    1  C3  UNL     1      27.521  17.101   5.752  1.00  0.00     0.248 A 
HETATM    2  F2  UNL     1      27.343  16.238   6.824  1.00  0.00    -0.229 F 
HETATM    3  C4  UNL     1      27.372  16.521   4.422  1.00  0.00     0.352 A 
HETATM    4  F3  UNL     1      26.801  17.323   3.430  1.00  0.00    -0.195 F 
HETATM    5  F4  UNL     1      27.027  15.189   4.280  1.00  0.00    -0.195 F 
HETATM    6  C5  UNL     1      28.731  16.887   4.862  1.00  0.00     0.352 A 
HETATM    7  F5  UNL     1      29.622  15.971   5.353  1.00  0.00    -0.195 F 
HETATM    8  F6  UNL     1      29.320  17.979   4.264  1.00  0.00    -0.195 F 
ENDROOT
BRANCH   1   9
HETATM    9  C2  UNL     1      27.246  18.534   6.075  1.00  0.00     0.088 C 
BRANCH   9  10
HETATM   10  C1  UNL     1      26.595  18.681   7.448  1.00  0.00     0.225 C 
HETATM   11  F1  UNL     1      25.725  19.766   7.342  1.00  0.00    -0.255 F 
ENDBRANCH   9  10
ENDBRANCH   1   9
TORSDOF 2
ENDMDL
MODEL 4
REMARK VINA RESULT: -6.525552567      0.899      2.465
REMARK  2 active torsions:
REMARK  status: ('A' for Active; 'I' for Inactive)
REMARK    1  A    between atoms: C1_2  and  C2_3 
REMARK    2  A    between atoms: C2_3  and  C3_4 
ROOT
HETATM    1  C3  UNL     1      26.991  17.173   5.289  1.00  0.00     0.248 A 
HETATM    2  F2  UNL     1      25.738  16.987   4.725  1.00  0.00    -0.229 F 
HETATM    3  C4  UNL     1      28.030  17.686   4.403  1.00  0.00     0.352 A 
HETATM    4  F3  UNL     1      28.971  18.561   4.953  1.00  0.00    -0.195 F 
HETATM    5  F4  UNL     1      27.731  17.999   3.090  1.00  0.00    -0.195 F 
HETATM    6  C5  UNL     1      28.121  16.275   4.821  1.00  0.00     0.352 A 
HETATM    7  F5  UNL     1      27.710  15.239   4.026  1.00  0.00    -0.195 F 
HETATM    8  F6  UNL     1      29.117  15.938   5.712  1.00  0.00    -0.195 F 
ENDROOT
BRANCH   1   9
HETATM    9  C2  UNL     1      26.964  17.401   6.766  1.00  0.00     0.088 C 
BRANCH   9  10
HETATM   10  C1  UNL     1      26.400  18.779   7.106  1.00  0.00     0.225 C 
HETATM   11  F1  UNL     1      27.501  19.629   7.199  1.00  0.00    -0.255 F 
ENDBRANCH   9  10
ENDBRANCH   1   9
TORSDOF 2
ENDMDL
MODEL 5
REMARK VINA RESULT: -6.049459585      1.272      2.680
REMARK  2 active torsions:
REMARK  status: ('A' for Active; 'I' for Inactive)
REMARK    1  A    between atoms: C1_2  and  C2_3 
REMARK    2  A    between atoms: C2_3  and  C3_4 
ROOT
HETATM    1  C3  UNL     1      26.859  17.666   5.672  1.00  0.00     0.248 A 
HETATM    2  F2  UNL     1      25.695  17.621   6.425  1.00  0.00    -0.229 F 
HETATM    3  C4  UNL     1      26.767  17.161   4.306  1.00  0.00     0.352 A 
HETATM    4  F3  UNL     1      27.529  17.805   3.328  1.00  0.00    -0.195 F 
HETATM    5  F4  UNL     1      25.554  16.714   3.812  1.00  0.00    -0.195 F 
HETATM    6  C5  UNL     1      27.506  16.347   5.288  1.00  0.00     0.352 A 
HETATM    7  F5  UNL     1      26.957  15.260   5.913  1.00  0.00    -0.195 F 
HETATM    8  F6  UNL     1      28.877  16.290   5.162  1.00  0.00    -0.195 F 
ENDROOT
BRANCH   1   9
HETATM    9  C2  UNL     1      27.828  18.716   6.111  1.00  0.00     0.088 C 
BRANCH   9  10
HETATM   10  C1  UNL     1      27.138  19.798   6.939  1.00  0.00     0.225 C 
HETATM   11  F1  UNL     1      28.107  20.773   7.172  1.00  0.00    -0.255 F 
ENDBRANCH   9  10
ENDBRANCH   1   9
TORSDOF 2
ENDMDL
