MODEL 1
REMARK VINA RESULT: -5.997403797      0.000      0.000
REMARK  9 active torsions:
REMARK  status: ('A' for Active; 'I' for Inactive)
REMARK    1  A    between atoms: C2_2  and  C3_3 
REMARK    2  A    between atoms: C3_3  and  C4_4 
REMARK    3  A    between atoms: C6_7  and  O2_8 
REMARK    4  A    between atoms: C7_10  and  C8_11 
REMARK    5  A    between atoms: C7_10  and  C14_17 
REMARK    6  A    between atoms: C8_11  and  C9_12 
REMARK    7  A    between atoms: C11_14  and  C12_15 
REMARK    8  A    between atoms: C14_17  and  O3_18 
REMARK    9  A    between atoms: N1_20  and  O4_22 
ROOT
HETATM    1  C4  UNL     1      -3.207   5.897  12.949  1.00  0.00     0.014 C 
HETATM    2  C5  UNL     1      -4.617   6.451  12.848  1.00  0.00     0.176 C 
HETATM    3  O1  UNL     1      -5.392   5.333  12.451  1.00  0.00    -0.360 OA
HETATM    4  C6  UNL     1      -5.496   4.436  13.479  1.00  0.00     0.273 C 
HETATM    5  C7  UNL     1      -4.170   3.730  13.746  1.00  0.00     0.077 C 
HETATM    6  C15 UNL     1      -3.219   4.908  14.065  1.00  0.00     0.030 C 
ENDROOT
BRANCH   5   7
HETATM    7  C8  UNL     1      -4.203   2.950  15.001  1.00  0.00     0.028 C 
BRANCH   7   8
HETATM    8  C9  UNL     1      -4.958   1.701  15.074  1.00  0.00    -0.005 A 
HETATM    9  C10 UNL     1      -4.464   0.356  15.317  1.00  0.00     0.014 A 
HETATM   10  C11 UNL     1      -5.118   1.091  16.463  1.00  0.00     0.012 A 
BRANCH  10  11
HETATM   11  C12 UNL     1      -6.410   0.647  16.929  1.00  0.00    -0.032 C 
HETATM   12  C13 UNL     1      -7.335   1.459  17.375  1.00  0.00     0.007 C 
ENDBRANCH  10  11
ENDBRANCH   7   8
ENDBRANCH   5   7
BRANCH   5  13
HETATM   13  C14 UNL     1      -3.646   3.072  12.555  1.00  0.00     0.149 C 
HETATM   14  N1  UNL     1      -4.286   2.486  11.655  1.00  0.00    -0.250 N 
ATOM     15  H1  UNL     1      -3.674   2.111  10.930  1.00  0.00     0.196 HD
BRANCH  13  16
HETATM   16  O3  UNL     1      -2.242   3.102  12.386  1.00  0.00    -0.347 OA
ATOM     17  H3  UNL     1      -1.923   3.450  11.562  1.00  0.00     0.219 HD
ENDBRANCH  13  16
BRANCH  14  18
HETATM   18  O4  UNL     1      -5.564   2.230  11.411  1.00  0.00    -0.288 OA
ATOM     19  H4  UNL     1      -6.396   2.604  11.677  1.00  0.00     0.244 HD
ENDBRANCH  14  18
ENDBRANCH   5  13
BRANCH   4  20
HETATM   20  O2  UNL     1      -5.798   5.150  14.648  1.00  0.00    -0.370 OA
ATOM     21  H2  UNL     1      -5.010   5.196  15.176  1.00  0.00     0.212 HD
ENDBRANCH   4  20
BRANCH   1  22
HETATM   22  C3  UNL     1      -2.206   6.970  13.279  1.00  0.00     0.033 C 
BRANCH  22  23
HETATM   23  C2  UNL     1      -2.338   7.492  14.642  1.00  0.00    -0.036 C 
HETATM   24  C1  UNL     1      -1.736   8.609  15.009  1.00  0.00     0.007 C 
ENDBRANCH  22  23
ENDBRANCH   1  22
TORSDOF 9
ENDMDL
MODEL 2
REMARK VINA RESULT: -5.925488775      2.676      4.905
REMARK  9 active torsions:
REMARK  status: ('A' for Active; 'I' for Inactive)
REMARK    1  A    between atoms: C2_2  and  C3_3 
REMARK    2  A    between atoms: C3_3  and  C4_4 
REMARK    3  A    between atoms: C6_7  and  O2_8 
REMARK    4  A    between atoms: C7_10  and  C8_11 
REMARK    5  A    between atoms: C7_10  and  C14_17 
REMARK    6  A    between atoms: C8_11  and  C9_12 
REMARK    7  A    between atoms: C11_14  and  C12_15 
REMARK    8  A    between atoms: C14_17  and  O3_18 
REMARK    9  A    between atoms: N1_20  and  O4_22 
ROOT
HETATM    1  C4  UNL     1      -2.706   5.547  13.920  1.00  0.00     0.014 C 
HETATM    2  C5  UNL     1      -1.328   5.145  13.425  1.00  0.00     0.176 C 
HETATM    3  O1  UNL     1      -1.555   3.918  12.753  1.00  0.00    -0.360 OA
HETATM    4  C6  UNL     1      -2.241   4.134  11.589  1.00  0.00     0.273 C 
HETATM    5  C7  UNL     1      -3.689   4.537  11.853  1.00  0.00     0.077 C 
HETATM    6  C15 UNL     1      -3.531   5.817  12.708  1.00  0.00     0.030 C 
ENDROOT
BRANCH   5   7
HETATM    7  C8  UNL     1      -4.363   5.009  10.627  1.00  0.00     0.028 C 
BRANCH   7   8
HETATM    8  C9  UNL     1      -4.654   6.429  10.443  1.00  0.00    -0.005 A 
HETATM    9  C10 UNL     1      -5.189   7.102   9.272  1.00  0.00     0.014 A 
HETATM   10  C11 UNL     1      -6.129   6.818  10.420  1.00  0.00     0.012 A 
BRANCH  10  11
HETATM   11  C12 UNL     1      -6.612   7.922  11.214  1.00  0.00    -0.032 C 
HETATM   12  C13 UNL     1      -7.533   7.800  12.136  1.00  0.00     0.007 C 
ENDBRANCH  10  11
ENDBRANCH   7   8
ENDBRANCH   5   7
BRANCH   5  13
HETATM   13  C14 UNL     1      -4.390   3.561  12.678  1.00  0.00     0.149 C 
HETATM   14  N1  UNL     1      -4.165   2.335  12.779  1.00  0.00    -0.250 N 
ATOM     15  H1  UNL     1      -4.806   1.878  13.429  1.00  0.00     0.196 HD
BRANCH  13  16
HETATM   16  O3  UNL     1      -5.455   4.053  13.468  1.00  0.00    -0.347 OA
ATOM     17  H3  UNL     1      -5.253   4.245  14.377  1.00  0.00     0.219 HD
ENDBRANCH  13  16
BRANCH  14  18
HETATM   18  O4  UNL     1      -3.298   1.481  12.251  1.00  0.00    -0.288 OA
ATOM     19  H4  UNL     1      -2.948   0.631  12.490  1.00  0.00     0.244 HD
ENDBRANCH  14  18
ENDBRANCH   5  13
BRANCH   4  20
HETATM   20  O2  UNL     1      -1.648   5.223  10.932  1.00  0.00    -0.370 OA
ATOM     21  H2  UNL     1      -1.373   4.931  10.070  1.00  0.00     0.212 HD
ENDBRANCH   4  20
BRANCH   1  22
HETATM   22  C3  UNL     1      -2.660   6.801  14.749  1.00  0.00     0.033 C 
BRANCH  22  23
HETATM   23  C2  UNL     1      -1.850   7.867  14.150  1.00  0.00    -0.036 C 
HETATM   24  C1  UNL     1      -1.533   8.952  14.834  1.00  0.00     0.007 C 
ENDBRANCH  22  23
ENDBRANCH   1  22
TORSDOF 9
ENDMDL
MODEL 3
REMARK VINA RESULT: -5.924212206      3.006      5.504
REMARK  9 active torsions:
REMARK  status: ('A' for Active; 'I' for Inactive)
REMARK    1  A    between atoms: C2_2  and  C3_3 
REMARK    2  A    between atoms: C3_3  and  C4_4 
REMARK    3  A    between atoms: C6_7  and  O2_8 
REMARK    4  A    between atoms: C7_10  and  C8_11 
REMARK    5  A    between atoms: C7_10  and  C14_17 
REMARK    6  A    between atoms: C8_11  and  C9_12 
REMARK    7  A    between atoms: C11_14  and  C12_15 
REMARK    8  A    between atoms: C14_17  and  O3_18 
REMARK    9  A    between atoms: N1_20  and  O4_22 
ROOT
HETATM    1  C4  UNL     1      -4.617   5.896  11.977  1.00  0.00     0.014 C 
HETATM    2  C5  UNL     1      -5.047   5.373  13.336  1.00  0.00     0.176 C 
HETATM    3  O1  UNL     1      -5.034   3.965  13.176  1.00  0.00    -0.360 OA
HETATM    4  C6  UNL     1      -3.748   3.510  13.072  1.00  0.00     0.273 C 
HETATM    5  C7  UNL     1      -3.114   3.911  11.744  1.00  0.00     0.077 C 
HETATM    6  C15 UNL     1      -3.208   5.455  11.778  1.00  0.00     0.030 C 
ENDROOT
BRANCH   5   7
HETATM    7  C8  UNL     1      -1.661   3.643  11.723  1.00  0.00     0.028 C 
BRANCH   7   8
HETATM    8  C9  UNL     1      -0.763   4.498  10.950  1.00  0.00    -0.005 A 
HETATM    9  C10 UNL     1       0.407   5.230  11.405  1.00  0.00     0.014 A 
HETATM   10  C11 UNL     1       0.624   3.933  10.662  1.00  0.00     0.012 A 
BRANCH  10  11
HETATM   11  C12 UNL     1       1.175   3.979   9.328  1.00  0.00    -0.032 C 
HETATM   12  C13 UNL     1       1.994   3.075   8.854  1.00  0.00     0.007 C 
ENDBRANCH  10  11
ENDBRANCH   7   8
ENDBRANCH   5   7
BRANCH   5  13
HETATM   13  C14 UNL     1      -3.901   3.464  10.600  1.00  0.00     0.149 C 
HETATM   14  N1  UNL     1      -4.802   2.598  10.578  1.00  0.00    -0.250 N 
ATOM     15  H1  UNL     1      -5.194   2.475   9.644  1.00  0.00     0.196 HD
BRANCH  13  16
HETATM   16  O3  UNL     1      -3.619   4.085   9.361  1.00  0.00    -0.347 OA
ATOM     17  H3  UNL     1      -3.935   3.640   8.584  1.00  0.00     0.219 HD
ENDBRANCH  13  16
BRANCH  14  18
HETATM   18  O4  UNL     1      -5.375   1.799  11.468  1.00  0.00    -0.288 OA
ATOM     19  H4  UNL     1      -5.768   0.935  11.453  1.00  0.00     0.244 HD
ENDBRANCH  14  18
ENDBRANCH   5  13
BRANCH   4  20
HETATM   20  O2  UNL     1      -2.985   4.133  14.071  1.00  0.00    -0.370 OA
ATOM     21  H2  UNL     1      -2.531   4.869  13.677  1.00  0.00     0.212 HD
ENDBRANCH   4  20
BRANCH   1  22
HETATM   22  C3  UNL     1      -4.655   7.399  11.917  1.00  0.00     0.033 C 
BRANCH  22  23
HETATM   23  C2  UNL     1      -5.774   7.923  11.129  1.00  0.00    -0.036 C 
HETATM   24  C1  UNL     1      -6.947   8.168  11.685  1.00  0.00     0.007 C 
ENDBRANCH  22  23
ENDBRANCH   1  22
TORSDOF 9
ENDMDL
MODEL 4
REMARK VINA RESULT: -5.882863042      2.177      3.124
REMARK  9 active torsions:
REMARK  status: ('A' for Active; 'I' for Inactive)
REMARK    1  A    between atoms: C2_2  and  C3_3 
REMARK    2  A    between atoms: C3_3  and  C4_4 
REMARK    3  A    between atoms: C6_7  and  O2_8 
REMARK    4  A    between atoms: C7_10  and  C8_11 
REMARK    5  A    between atoms: C7_10  and  C14_17 
REMARK    6  A    between atoms: C8_11  and  C9_12 
REMARK    7  A    between atoms: C11_14  and  C12_15 
REMARK    8  A    between atoms: C14_17  and  O3_18 
REMARK    9  A    between atoms: N1_20  and  O4_22 
ROOT
HETATM    1  C4  UNL     1      -1.964   7.386  13.797  1.00  0.00     0.014 C 
HETATM    2  C5  UNL     1      -2.269   8.201  12.553  1.00  0.00     0.176 C 
HETATM    3  O1  UNL     1      -2.061   7.288  11.490  1.00  0.00    -0.360 OA
HETATM    4  C6  UNL     1      -3.048   6.340  11.476  1.00  0.00     0.273 C 
HETATM    5  C7  UNL     1      -2.920   5.377  12.652  1.00  0.00     0.077 C 
HETATM    6  C15 UNL     1      -3.007   6.323  13.874  1.00  0.00     0.030 C 
ENDROOT
BRANCH   5   7
HETATM    7  C8  UNL     1      -4.109   4.511  12.788  1.00  0.00     0.028 C 
BRANCH   7   8
HETATM    8  C9  UNL     1      -4.590   4.117  14.111  1.00  0.00    -0.005 A 
HETATM    9  C10 UNL     1      -5.929   3.718  14.508  1.00  0.00     0.014 A 
HETATM   10  C11 UNL     1      -4.896   2.635  14.303  1.00  0.00     0.012 A 
BRANCH  10  11
HETATM   11  C12 UNL     1      -4.396   1.923  15.455  1.00  0.00    -0.032 C 
HETATM   12  C13 UNL     1      -4.784   0.717  15.784  1.00  0.00     0.007 C 
ENDBRANCH  10  11
ENDBRANCH   7   8
ENDBRANCH   5   7
BRANCH   5  13
HETATM   13  C14 UNL     1      -1.609   4.739  12.703  1.00  0.00     0.149 C 
HETATM   14  N1  UNL     1      -1.039   4.231  13.693  1.00  0.00    -0.250 N 
ATOM     15  H1  UNL     1      -0.123   3.851  13.455  1.00  0.00     0.196 HD
BRANCH  13  16
HETATM   16  O3  UNL     1      -0.891   4.679  11.487  1.00  0.00    -0.347 OA
ATOM     17  H3  UNL     1      -1.295   5.100  10.736  1.00  0.00     0.219 HD
ENDBRANCH  13  16
BRANCH  14  18
HETATM   18  O4  UNL     1      -1.331   4.065  14.976  1.00  0.00    -0.288 OA
ATOM     19  H4  UNL     1      -0.836   4.019  15.786  1.00  0.00     0.244 HD
ENDBRANCH  14  18
ENDBRANCH   5  13
BRANCH   4  20
HETATM   20  O2  UNL     1      -4.278   6.993  11.640  1.00  0.00    -0.370 OA
ATOM     21  H2  UNL     1      -4.549   6.885  12.545  1.00  0.00     0.212 HD
ENDBRANCH   4  20
BRANCH   1  22
HETATM   22  C3  UNL     1      -2.045   8.218  15.047  1.00  0.00     0.033 C 
BRANCH  22  23
HETATM   23  C2  UNL     1      -1.519   9.576  14.877  1.00  0.00    -0.036 C 
HETATM   24  C1  UNL     1      -0.223   9.822  14.949  1.00  0.00     0.007 C 
ENDBRANCH  22  23
ENDBRANCH   1  22
TORSDOF 9
ENDMDL
MODEL 5
REMARK VINA RESULT: -5.836023161      2.297      3.277
REMARK  9 active torsions:
REMARK  status: ('A' for Active; 'I' for Inactive)
REMARK    1  A    between atoms: C2_2  and  C3_3 
REMARK    2  A    between atoms: C3_3  and  C4_4 
REMARK    3  A    between atoms: C6_7  and  O2_8 
REMARK    4  A    between atoms: C7_10  and  C8_11 
REMARK    5  A    between atoms: C7_10  and  C14_17 
REMARK    6  A    between atoms: C8_11  and  C9_12 
REMARK    7  A    between atoms: C11_14  and  C12_15 
REMARK    8  A    between atoms: C14_17  and  O3_18 
REMARK    9  A    between atoms: N1_20  and  O4_22 
ROOT
HETATM    1  C4  UNL     1      -3.760   6.105  11.437  1.00  0.00     0.014 C 
HETATM    2  C5  UNL     1      -4.292   5.742  10.061  1.00  0.00     0.176 C 
HETATM    3  O1  UNL     1      -3.448   4.685   9.640  1.00  0.00    -0.360 OA
HETATM    4  C6  UNL     1      -3.702   3.554  10.369  1.00  0.00     0.273 C 
HETATM    5  C7  UNL     1      -3.219   3.691  11.809  1.00  0.00     0.077 C 
HETATM    6  C15 UNL     1      -4.006   4.924  12.313  1.00  0.00     0.030 C 
ENDROOT
BRANCH   5   7
HETATM    7  C8  UNL     1      -3.704   2.586  12.662  1.00  0.00     0.028 C 
BRANCH   7   8
HETATM    8  C9  UNL     1      -4.271   2.864  13.979  1.00  0.00    -0.005 A 
HETATM    9  C10 UNL     1      -5.663   3.078  14.342  1.00  0.00     0.014 A 
HETATM   10  C11 UNL     1      -5.051   1.727  14.631  1.00  0.00     0.012 A 
BRANCH  10  11
HETATM   11  C12 UNL     1      -4.802   1.355  16.004  1.00  0.00    -0.032 C 
HETATM   12  C13 UNL     1      -5.681   0.746  16.758  1.00  0.00     0.007 C 
ENDBRANCH  10  11
ENDBRANCH   7   8
ENDBRANCH   5   7
BRANCH   5  13
HETATM   13  C14 UNL     1      -1.803   4.033  11.886  1.00  0.00     0.149 C 
HETATM   14  N1  UNL     1      -1.125   4.278  12.908  1.00  0.00    -0.250 N 
ATOM     15  H1  UNL     1      -0.153   4.490  12.682  1.00  0.00     0.196 HD
BRANCH  13  16
HETATM   16  O3  UNL     1      -1.102   4.091  10.659  1.00  0.00    -0.347 OA
ATOM     17  H3  UNL     1      -1.325   3.430  10.013  1.00  0.00     0.219 HD
ENDBRANCH  13  16
BRANCH  14  18
HETATM   18  O4  UNL     1      -1.357   4.331  14.212  1.00  0.00    -0.288 OA
ATOM     19  H4  UNL     1      -0.879   4.099  14.999  1.00  0.00     0.244 HD
ENDBRANCH  14  18
ENDBRANCH   5  13
BRANCH   4  20
HETATM   20  O2  UNL     1      -5.093   3.387  10.439  1.00  0.00    -0.370 OA
ATOM     21  H2  UNL     1      -5.487   3.912   9.752  1.00  0.00     0.212 HD
ENDBRANCH   4  20
BRANCH   1  22
HETATM   22  C3  UNL     1      -4.482   7.287  12.022  1.00  0.00     0.033 C 
BRANCH  22  23
HETATM   23  C2  UNL     1      -5.941   7.179  11.941  1.00  0.00    -0.036 C 
HETATM   24  C1  UNL     1      -6.687   8.216  11.605  1.00  0.00     0.007 C 
ENDBRANCH  22  23
ENDBRANCH   1  22
TORSDOF 9
ENDMDL
