MODEL 1
REMARK VINA RESULT: -5.636323352      0.000      0.000
REMARK  7 active torsions:
REMARK  status: ('A' for Active; 'I' for Inactive)
REMARK    1  A    between atoms: N1_1  and  C1_4 
REMARK    2  A    between atoms: C2_7  and  C3_8 
REMARK    3  A    between atoms: C3_8  and  N3_9 
REMARK    4  A    between atoms: C4_11  and  C5_12 
REMARK    5  A    between atoms: C5_12  and  S1_13 
REMARK    6  A    between atoms: S1_13  and  C6_14 
REMARK    7  A    between atoms: C6_14  and  C7_15 
ROOT
HETATM    1  N3  UNL     1      -2.818   4.171  14.722  1.00  0.00    -0.396 N 
ATOM      2  H3  UNL     1      -2.412   3.324  15.121  1.00  0.00     0.159 HD
HETATM    3  C4  UNL     1      -1.997   5.207  14.507  1.00  0.00     0.066 C 
ENDROOT
BRANCH   1   4
HETATM    4  C3  UNL     1      -4.202   4.160  14.439  1.00  0.00     0.176 C 
BRANCH   4   5
HETATM    5  C2  UNL     1      -4.332   3.123  13.291  1.00  0.00     0.035 A 
HETATM    6  N2  UNL     1      -4.360   1.831  13.414  1.00  0.00    -0.339 N 
HETATM    7  C1  UNL     1      -4.394   1.075  12.304  1.00  0.00     0.142 A 
ATOM      8  H2  UNL     1      -4.356   1.397  14.338  1.00  0.00     0.168 HD
HETATM    9  S2  UNL     1      -4.398   2.223  11.043  1.00  0.00    -0.064 SA
HETATM   10  C13 UNL     1      -4.347   3.636  11.996  1.00  0.00     0.080 A 
BRANCH   7  11
HETATM   11  N1  UNL     1      -4.414  -0.222  12.157  1.00  0.00    -0.380 N 
ATOM     12  H12 UNL     1      -4.668  -0.901  12.875  1.00  0.00     0.158 HD
ATOM     13  H11 UNL     1      -4.201  -0.804  11.346  1.00  0.00     0.158 HD
ENDBRANCH   7  11
ENDBRANCH   4   5
ENDBRANCH   1   4
BRANCH   3  14
HETATM   14  C5  UNL     1      -1.402   5.862  13.352  1.00  0.00     0.118 C 
BRANCH  14  15
HETATM   15  S1  UNL     1      -2.441   7.392  13.156  1.00  0.00    -0.159 SA
BRANCH  15  16
HETATM   16  C6  UNL     1      -2.952   7.707  11.461  1.00  0.00     0.112 C 
BRANCH  16  17
HETATM   17  C7  UNL     1      -4.456   7.955  11.543  1.00  0.00    -0.049 A 
HETATM   18  C8  UNL     1      -5.068   9.040  10.966  1.00  0.00     0.008 A 
HETATM   19  C9  UNL     1      -6.460   9.170  11.054  1.00  0.00     0.001 A 
HETATM   20  C10 UNL     1      -7.249   8.248  11.697  1.00  0.00     0.000 A 
HETATM   21  C11 UNL     1      -6.631   7.159  12.283  1.00  0.00     0.001 A 
HETATM   22  C12 UNL     1      -5.250   7.035  12.193  1.00  0.00     0.008 A 
ENDBRANCH  16  17
ENDBRANCH  15  16
ENDBRANCH  14  15
ENDBRANCH   3  14
TORSDOF 7
ENDMDL
MODEL 2
REMARK VINA RESULT: -5.429688036      1.537      2.306
REMARK  7 active torsions:
REMARK  status: ('A' for Active; 'I' for Inactive)
REMARK    1  A    between atoms: N1_1  and  C1_4 
REMARK    2  A    between atoms: C2_7  and  C3_8 
REMARK    3  A    between atoms: C3_8  and  N3_9 
REMARK    4  A    between atoms: C4_11  and  C5_12 
REMARK    5  A    between atoms: C5_12  and  S1_13 
REMARK    6  A    between atoms: S1_13  and  C6_14 
REMARK    7  A    between atoms: C6_14  and  C7_15 
ROOT
HETATM    1  N3  UNL     1      -1.487   5.661  11.738  1.00  0.00    -0.396 N 
ATOM      2  H3  UNL     1      -1.892   6.405  11.170  1.00  0.00     0.159 HD
HETATM    3  C4  UNL     1      -1.272   5.920  13.034  1.00  0.00     0.066 C 
ENDROOT
BRANCH   1   4
HETATM    4  C3  UNL     1      -1.196   4.436  11.095  1.00  0.00     0.176 C 
BRANCH   4   5
HETATM    5  C2  UNL     1      -2.483   3.595  11.312  1.00  0.00     0.035 A 
HETATM    6  N2  UNL     1      -2.690   2.725  12.253  1.00  0.00    -0.339 N 
HETATM    7  C1  UNL     1      -3.836   2.022  12.245  1.00  0.00     0.142 A 
ATOM      8  H2  UNL     1      -1.995   2.576  12.985  1.00  0.00     0.168 HD
HETATM    9  S2  UNL     1      -4.655   2.616  10.872  1.00  0.00    -0.064 SA
HETATM   10  C13 UNL     1      -3.484   3.743  10.355  1.00  0.00     0.080 A 
BRANCH   7  11
HETATM   11  N1  UNL     1      -4.273   1.096  13.054  1.00  0.00    -0.380 N 
ATOM     12  H12 UNL     1      -3.699   0.528  13.677  1.00  0.00     0.158 HD
ATOM     13  H11 UNL     1      -5.220   0.762  13.235  1.00  0.00     0.158 HD
ENDBRANCH   7  11
ENDBRANCH   4   5
ENDBRANCH   1   4
BRANCH   3  14
HETATM   14  C5  UNL     1      -1.864   5.526  14.303  1.00  0.00     0.118 C 
BRANCH  14  15
HETATM   15  S1  UNL     1      -3.490   6.428  14.305  1.00  0.00    -0.159 SA
BRANCH  15  16
HETATM   16  C6  UNL     1      -4.764   5.623  13.324  1.00  0.00     0.112 C 
BRANCH  16  17
HETATM   17  C7  UNL     1      -5.421   6.750  12.531  1.00  0.00    -0.049 A 
HETATM   18  C8  UNL     1      -6.770   7.003  12.566  1.00  0.00     0.008 A 
HETATM   19  C9  UNL     1      -7.285   8.085  11.840  1.00  0.00     0.001 A 
HETATM   20  C10 UNL     1      -6.491   8.913  11.087  1.00  0.00     0.000 A 
HETATM   21  C11 UNL     1      -5.134   8.655  11.047  1.00  0.00     0.001 A 
HETATM   22  C12 UNL     1      -4.628   7.580  11.769  1.00  0.00     0.008 A 
ENDBRANCH  16  17
ENDBRANCH  15  16
ENDBRANCH  14  15
ENDBRANCH   3  14
TORSDOF 7
ENDMDL
MODEL 3
REMARK VINA RESULT: -5.337733925      1.931      2.866
REMARK  7 active torsions:
REMARK  status: ('A' for Active; 'I' for Inactive)
REMARK    1  A    between atoms: N1_1  and  C1_4 
REMARK    2  A    between atoms: C2_7  and  C3_8 
REMARK    3  A    between atoms: C3_8  and  N3_9 
REMARK    4  A    between atoms: C4_11  and  C5_12 
REMARK    5  A    between atoms: C5_12  and  S1_13 
REMARK    6  A    between atoms: S1_13  and  C6_14 
REMARK    7  A    between atoms: C6_14  and  C7_15 
ROOT
HETATM    1  N3  UNL     1      -4.364   2.036  13.242  1.00  0.00    -0.396 N 
ATOM      2  H3  UNL     1      -4.005   1.121  13.517  1.00  0.00     0.159 HD
HETATM    3  C4  UNL     1      -4.570   2.936  14.211  1.00  0.00     0.066 C 
ENDROOT
BRANCH   1   4
HETATM    4  C3  UNL     1      -4.605   2.253  11.867  1.00  0.00     0.176 C 
BRANCH   4   5
HETATM    5  C2  UNL     1      -3.326   2.988  11.383  1.00  0.00     0.035 A 
HETATM    6  N2  UNL     1      -2.171   3.004  11.976  1.00  0.00    -0.339 N 
HETATM    7  C1  UNL     1      -1.188   3.762  11.459  1.00  0.00     0.142 A 
ATOM      8  H2  UNL     1      -2.012   2.452  12.818  1.00  0.00     0.168 HD
HETATM    9  S2  UNL     1      -1.912   4.467  10.085  1.00  0.00    -0.064 SA
HETATM   10  C13 UNL     1      -3.458   3.764  10.234  1.00  0.00     0.080 A 
BRANCH   7  11
HETATM   11  N1  UNL     1       0.037   3.958  11.863  1.00  0.00    -0.380 N 
ATOM     12  H12 UNL     1       0.463   3.554  12.698  1.00  0.00     0.158 HD
ATOM     13  H11 UNL     1       0.790   4.517  11.461  1.00  0.00     0.158 HD
ENDBRANCH   7  11
ENDBRANCH   4   5
ENDBRANCH   1   4
BRANCH   3  14
HETATM   14  C5  UNL     1      -3.938   4.167  14.662  1.00  0.00     0.118 C 
BRANCH  14  15
HETATM   15  S1  UNL     1      -4.911   5.484  13.781  1.00  0.00    -0.159 SA
BRANCH  15  16
HETATM   16  C6  UNL     1      -3.932   6.456  12.627  1.00  0.00     0.112 C 
BRANCH  16  17
HETATM   17  C7  UNL     1      -4.916   7.452  12.018  1.00  0.00    -0.049 A 
HETATM   18  C8  UNL     1      -4.520   8.521  11.253  1.00  0.00     0.008 A 
HETATM   19  C9  UNL     1      -5.492   9.364  10.697  1.00  0.00     0.001 A 
HETATM   20  C10 UNL     1      -6.837   9.164  10.885  1.00  0.00     0.000 A 
HETATM   21  C11 UNL     1      -7.234   8.091  11.661  1.00  0.00     0.001 A 
HETATM   22  C12 UNL     1      -6.266   7.259  12.210  1.00  0.00     0.008 A 
ENDBRANCH  16  17
ENDBRANCH  15  16
ENDBRANCH  14  15
ENDBRANCH   3  14
TORSDOF 7
ENDMDL
MODEL 4
REMARK VINA RESULT: -5.322731568      1.919      2.444
REMARK  7 active torsions:
REMARK  status: ('A' for Active; 'I' for Inactive)
REMARK    1  A    between atoms: N1_1  and  C1_4 
REMARK    2  A    between atoms: C2_7  and  C3_8 
REMARK    3  A    between atoms: C3_8  and  N3_9 
REMARK    4  A    between atoms: C4_11  and  C5_12 
REMARK    5  A    between atoms: C5_12  and  S1_13 
REMARK    6  A    between atoms: S1_13  and  C6_14 
REMARK    7  A    between atoms: C6_14  and  C7_15 
ROOT
HETATM    1  N3  UNL     1      -4.504   3.480  10.681  1.00  0.00    -0.396 N 
ATOM      2  H3  UNL     1      -5.369   3.984  10.882  1.00  0.00     0.159 HD
HETATM    3  C4  UNL     1      -3.486   4.183  10.168  1.00  0.00     0.066 C 
ENDROOT
BRANCH   1   4
HETATM    4  C3  UNL     1      -4.474   2.096  10.964  1.00  0.00     0.176 C 
BRANCH   4   5
HETATM    5  C2  UNL     1      -4.522   2.039  12.514  1.00  0.00     0.035 A 
HETATM    6  N2  UNL     1      -4.328   0.993  13.257  1.00  0.00    -0.339 N 
HETATM    7  C1  UNL     1      -4.489   1.103  14.587  1.00  0.00     0.142 A 
ATOM      8  H2  UNL     1      -4.058   0.102  12.839  1.00  0.00     0.168 HD
HETATM    9  S2  UNL     1      -4.917   2.740  14.800  1.00  0.00    -0.064 SA
HETATM   10  C13 UNL     1      -4.881   3.218  13.164  1.00  0.00     0.080 A 
BRANCH   7  11
HETATM   11  N1  UNL     1      -4.368   0.215  15.536  1.00  0.00    -0.380 N 
ATOM     12  H12 UNL     1      -4.550  -0.785  15.445  1.00  0.00     0.158 HD
ATOM     13  H11 UNL     1      -4.080   0.316  16.510  1.00  0.00     0.158 HD
ENDBRANCH   7  11
ENDBRANCH   4   5
ENDBRANCH   1   4
BRANCH   3  14
HETATM   14  C5  UNL     1      -2.197   4.671  10.636  1.00  0.00     0.118 C 
BRANCH  14  15
HETATM   15  S1  UNL     1      -2.667   6.025  11.821  1.00  0.00    -0.159 SA
BRANCH  15  16
HETATM   16  C6  UNL     1      -3.003   7.600  11.022  1.00  0.00     0.112 C 
BRANCH  16  17
HETATM   17  C7  UNL     1      -4.480   7.874  11.296  1.00  0.00    -0.049 A 
HETATM   18  C8  UNL     1      -5.128   8.998  10.849  1.00  0.00     0.008 A 
HETATM   19  C9  UNL     1      -6.497   9.151  11.110  1.00  0.00     0.001 A 
HETATM   20  C10 UNL     1      -7.226   8.214  11.799  1.00  0.00     0.000 A 
HETATM   21  C11 UNL     1      -6.571   7.085  12.254  1.00  0.00     0.001 A 
HETATM   22  C12 UNL     1      -5.213   6.939  11.993  1.00  0.00     0.008 A 
ENDBRANCH  16  17
ENDBRANCH  15  16
ENDBRANCH  14  15
ENDBRANCH   3  14
TORSDOF 7
ENDMDL
MODEL 5
REMARK VINA RESULT: -5.190379147      2.902      5.239
REMARK  7 active torsions:
REMARK  status: ('A' for Active; 'I' for Inactive)
REMARK    1  A    between atoms: N1_1  and  C1_4 
REMARK    2  A    between atoms: C2_7  and  C3_8 
REMARK    3  A    between atoms: C3_8  and  N3_9 
REMARK    4  A    between atoms: C4_11  and  C5_12 
REMARK    5  A    between atoms: C5_12  and  S1_13 
REMARK    6  A    between atoms: S1_13  and  C6_14 
REMARK    7  A    between atoms: C6_14  and  C7_15 
ROOT
HETATM    1  N3  UNL     1      -4.251   2.935  10.497  1.00  0.00    -0.396 N 
ATOM      2  H3  UNL     1      -4.535   2.641   9.562  1.00  0.00     0.159 HD
HETATM    3  C4  UNL     1      -4.821   2.315  11.539  1.00  0.00     0.066 C 
ENDROOT
BRANCH   1   4
HETATM    4  C3  UNL     1      -3.287   3.964  10.592  1.00  0.00     0.176 C 
BRANCH   4   5
HETATM    5  C2  UNL     1      -4.078   5.242  10.205  1.00  0.00     0.035 A 
HETATM    6  N2  UNL     1      -5.277   5.291   9.712  1.00  0.00    -0.339 N 
HETATM    7  C1  UNL     1      -5.783   6.485   9.355  1.00  0.00     0.142 A 
ATOM      8  H2  UNL     1      -5.827   4.440   9.597  1.00  0.00     0.168 HD
HETATM    9  S2  UNL     1      -4.530   7.576   9.738  1.00  0.00    -0.064 SA
HETATM   10  C13 UNL     1      -3.398   6.451  10.336  1.00  0.00     0.080 A 
BRANCH   7  11
HETATM   11  N1  UNL     1      -6.938   6.799   8.833  1.00  0.00    -0.380 N 
ATOM     12  H12 UNL     1      -7.213   7.725   8.505  1.00  0.00     0.158 HD
ATOM     13  H11 UNL     1      -7.762   6.228   8.647  1.00  0.00     0.158 HD
ENDBRANCH   7  11
ENDBRANCH   4   5
ENDBRANCH   1   4
BRANCH   3  14
HETATM   14  C5  UNL     1      -4.411   1.349  12.547  1.00  0.00     0.118 C 
BRANCH  14  15
HETATM   15  S1  UNL     1      -4.697   2.260  14.142  1.00  0.00    -0.159 SA
BRANCH  15  16
HETATM   16  C6  UNL     1      -5.336   3.926  13.918  1.00  0.00     0.112 C 
BRANCH  16  17
HETATM   17  C7  UNL     1      -4.133   4.841  14.130  1.00  0.00    -0.049 A 
HETATM   18  C8  UNL     1      -4.183   6.199  13.940  1.00  0.00     0.008 A 
HETATM   19  C9  UNL     1      -3.042   6.971  14.198  1.00  0.00     0.001 A 
HETATM   20  C10 UNL     1      -1.864   6.422  14.639  1.00  0.00     0.000 A 
HETATM   21  C11 UNL     1      -1.812   5.053  14.824  1.00  0.00     0.001 A 
HETATM   22  C12 UNL     1      -2.947   4.293  14.567  1.00  0.00     0.008 A 
ENDBRANCH  16  17
ENDBRANCH  15  16
ENDBRANCH  14  15
ENDBRANCH   3  14
TORSDOF 7
ENDMDL
