MODEL 1
REMARK VINA RESULT: -8.283768072      0.000      0.000
REMARK  6 active torsions:
REMARK  status: ('A' for Active; 'I' for Inactive)
REMARK    1  A    between atoms: O1_2  and  C2_3 
REMARK    2  A    between atoms: C2_3  and  C3_5 
REMARK    3  A    between atoms: C3_5  and  N1_6 
REMARK    4  A    between atoms: C6_9  and  N2_10 
REMARK    5  A    between atoms: C25_42  and  C26_43 
REMARK    6  A    between atoms: C26_43  and  N7_44 
ROOT
HETATM    1  N2  UNL     1      20.147  35.389  46.265  1.00  0.00    -0.378 N 
HETATM    2  C7  UNL     1      19.204  34.364  46.039  1.00  0.00     0.150 C 
HETATM    3  C8  UNL     1      18.006  34.697  45.222  1.00  0.00     0.252 C 
HETATM    4  N3  UNL     1      16.789  34.206  45.840  1.00  0.00    -0.074 N 
ATOM      5  H31 UNL     1      15.983  34.358  45.234  1.00  0.00     0.277 HD
ATOM      6  H32 UNL     1      16.515  34.794  46.627  1.00  0.00     0.277 HD
HETATM    7  C9  UNL     1      16.889  32.815  46.237  1.00  0.00     0.234 C 
HETATM    8  C10 UNL     1      16.516  32.734  47.706  1.00  0.00     0.055 C 
HETATM    9  C11 UNL     1      15.438  31.677  47.937  1.00  0.00     0.234 C 
HETATM   10  N4  UNL     1      14.572  32.016  49.055  1.00  0.00    -0.073 N 
ATOM     11  H41 UNL     1      13.583  31.896  48.836  1.00  0.00     0.277 HD
ATOM     12  H42 UNL     1      14.551  33.018  49.246  1.00  0.00     0.277 HD
HETATM   13  C12 UNL     1      14.986  31.241  50.199  1.00  0.00     0.259 C 
HETATM   14  C13 UNL     1      15.811  32.022  51.186  1.00  0.00     0.259 C 
HETATM   15  N5  UNL     1      14.960  32.846  52.030  1.00  0.00    -0.073 N 
ATOM     16  H51 UNL     1      15.061  32.597  53.014  1.00  0.00     0.277 HD
ATOM     17  H52 UNL     1      13.975  32.610  51.905  1.00  0.00     0.277 HD
HETATM   18  C14 UNL     1      15.196  34.274  51.816  1.00  0.00     0.234 C 
HETATM   19  C15 UNL     1      16.010  34.868  52.949  1.00  0.00     0.055 C 
HETATM   20  C16 UNL     1      15.857  36.366  52.908  1.00  0.00     0.233 C 
HETATM   21  N6  UNL     1      17.065  37.021  53.393  1.00  0.00    -0.075 N 
ATOM     22  H61 UNL     1      17.760  37.160  52.660  1.00  0.00     0.277 HD
ATOM     23  H62 UNL     1      17.624  36.420  53.998  1.00  0.00     0.277 HD
HETATM   24  C17 UNL     1      16.675  38.253  54.035  1.00  0.00     0.234 C 
HETATM   25  C18 UNL     1      17.197  39.386  53.159  1.00  0.00     0.054 C 
HETATM   26  C19 UNL     1      18.644  39.099  52.808  1.00  0.00     0.177 C 
HETATM   27  O3  UNL     1      18.795  39.261  51.432  1.00  0.00    -0.350 OA
HETATM   28  C20 UNL     1      19.450  38.383  50.524  1.00  0.00     0.076 A 
HETATM   29  C21 UNL     1      18.553  37.649  49.789  1.00  0.00     0.038 A 
HETATM   30  C22 UNL     1      18.939  36.698  48.810  1.00  0.00     0.015 A 
HETATM   31  C23 UNL     1      20.264  36.476  48.558  1.00  0.00    -0.020 A 
HETATM   32  C24 UNL     1      21.155  37.206  49.294  1.00  0.00     0.024 A 
HETATM   33  C25 UNL     1      20.784  38.182  50.298  1.00  0.00     0.001 A 
HETATM   34  C27 UNL     1      20.756  35.480  47.520  1.00  0.00     0.097 C 
ENDROOT
BRANCH   1  35
HETATM   35  C6  UNL     1      20.621  36.051  45.143  1.00  0.00     0.124 C 
HETATM   36  C5  UNL     1      21.427  37.298  45.430  1.00  0.00     0.051 C 
HETATM   37  C4  UNL     1      22.465  37.301  44.350  1.00  0.00     0.130 C 
HETATM   38  N1  UNL     1      22.462  36.007  43.709  1.00  0.00    -0.363 N 
HETATM   39  C28 UNL     1      21.351  35.253  44.100  1.00  0.00     0.088 C 
BRANCH  38  40
HETATM   40  C3  UNL     1      22.915  36.023  42.375  1.00  0.00     0.172 C 
BRANCH  40  41
HETATM   41  C2  UNL     1      24.273  35.482  42.180  1.00  0.00     0.298 C 
HETATM   42  O2  UNL     1      24.512  34.274  42.283  1.00  0.00    -0.259 OA
BRANCH  41  43
HETATM   43  O1  UNL     1      25.341  36.349  41.862  1.00  0.00    -0.322 OA
HETATM   44  C1  UNL     1      26.214  36.078  40.761  1.00  0.00     0.213 C 
ENDBRANCH  41  43
ENDBRANCH  40  41
ENDBRANCH  38  40
ENDBRANCH   1  35
BRANCH  33  45
HETATM   45  C26 UNL     1      22.019  38.845  50.892  1.00  0.00     0.271 C 
BRANCH  45  46
HETATM   46  N7  UNL     1      21.656  40.041  51.707  1.00  0.00    -0.075 N 
ATOM     47  H73 UNL     1      22.400  40.739  51.697  1.00  0.00     0.274 HD
ATOM     48  H72 UNL     1      20.920  40.588  51.259  1.00  0.00     0.274 HD
ATOM     49  H71 UNL     1      21.402  39.780  52.659  1.00  0.00     0.274 HD
ENDBRANCH  45  46
ENDBRANCH  33  45
TORSDOF 6
ENDMDL
MODEL 2
REMARK VINA RESULT: -8.192171956      1.510      1.784
REMARK  6 active torsions:
REMARK  status: ('A' for Active; 'I' for Inactive)
REMARK    1  A    between atoms: O1_2  and  C2_3 
REMARK    2  A    between atoms: C2_3  and  C3_5 
REMARK    3  A    between atoms: C3_5  and  N1_6 
REMARK    4  A    between atoms: C6_9  and  N2_10 
REMARK    5  A    between atoms: C25_42  and  C26_43 
REMARK    6  A    between atoms: C26_43  and  N7_44 
ROOT
HETATM    1  N2  UNL     1      19.096  35.195  46.904  1.00  0.00    -0.378 N 
HETATM    2  C7  UNL     1      18.160  34.149  47.055  1.00  0.00     0.150 C 
HETATM    3  C8  UNL     1      16.762  34.407  46.618  1.00  0.00     0.252 C 
HETATM    4  N3  UNL     1      15.805  33.962  47.612  1.00  0.00    -0.074 N 
ATOM      5  H31 UNL     1      14.849  34.059  47.271  1.00  0.00     0.277 HD
ATOM      6  H32 UNL     1      15.765  34.610  48.399  1.00  0.00     0.277 HD
HETATM    7  C9  UNL     1      16.063  32.608  48.065  1.00  0.00     0.234 C 
HETATM    8  C10 UNL     1      16.155  32.645  49.580  1.00  0.00     0.055 C 
HETATM    9  C11 UNL     1      15.230  31.605  50.207  1.00  0.00     0.234 C 
HETATM   10  N4  UNL     1      14.733  32.029  51.507  1.00  0.00    -0.073 N 
ATOM     11  H41 UNL     1      13.728  31.886  51.609  1.00  0.00     0.277 HD
ATOM     12  H42 UNL     1      14.741  33.043  51.618  1.00  0.00     0.277 HD
HETATM   13  C12 UNL     1      15.497  31.352  52.527  1.00  0.00     0.259 C 
HETATM   14  C13 UNL     1      16.558  32.217  53.153  1.00  0.00     0.259 C 
HETATM   15  N5  UNL     1      15.978  33.101  54.150  1.00  0.00    -0.073 N 
ATOM     16  H51 UNL     1      16.380  32.935  55.073  1.00  0.00     0.277 HD
ATOM     17  H52 UNL     1      15.010  32.850  54.349  1.00  0.00     0.277 HD
HETATM   18  C14 UNL     1      16.095  34.508  53.766  1.00  0.00     0.234 C 
HETATM   19  C15 UNL     1      17.195  35.198  54.549  1.00  0.00     0.055 C 
HETATM   20  C16 UNL     1      16.991  36.686  54.443  1.00  0.00     0.233 C 
HETATM   21  N6  UNL     1      18.269  37.386  54.486  1.00  0.00    -0.075 N 
ATOM     22  H61 UNL     1      18.705  37.469  53.568  1.00  0.00     0.277 HD
ATOM     23  H62 UNL     1      19.004  36.840  54.936  1.00  0.00     0.277 HD
HETATM   24  C17 UNL     1      18.055  38.664  55.121  1.00  0.00     0.234 C 
HETATM   25  C18 UNL     1      18.252  39.724  54.044  1.00  0.00     0.054 C 
HETATM   26  C19 UNL     1      19.533  39.419  53.292  1.00  0.00     0.177 C 
HETATM   27  O3  UNL     1      19.255  39.469  51.928  1.00  0.00    -0.350 OA
HETATM   28  C20 UNL     1      19.631  38.523  50.933  1.00  0.00     0.076 A 
HETATM   29  C21 UNL     1      18.577  37.726  50.563  1.00  0.00     0.038 A 
HETATM   30  C22 UNL     1      18.677  36.700  49.589  1.00  0.00     0.015 A 
HETATM   31  C23 UNL     1      19.869  36.466  48.964  1.00  0.00    -0.020 A 
HETATM   32  C24 UNL     1      20.919  37.259  49.335  1.00  0.00     0.024 A 
HETATM   33  C25 UNL     1      20.839  38.311  50.327  1.00  0.00     0.001 A 
HETATM   34  C27 UNL     1      20.054  35.391  47.904  1.00  0.00     0.097 C 
ENDROOT
BRANCH   1  35
HETATM   35  C6  UNL     1      19.188  35.766  45.644  1.00  0.00     0.124 C 
HETATM   36  C5  UNL     1      19.492  37.247  45.635  1.00  0.00     0.051 C 
HETATM   37  C4  UNL     1      20.354  37.420  44.422  1.00  0.00     0.130 C 
HETATM   38  N1  UNL     1      20.779  36.115  43.972  1.00  0.00    -0.363 N 
HETATM   39  C28 UNL     1      20.069  35.101  44.624  1.00  0.00     0.088 C 
BRANCH  38  40
HETATM   40  C3  UNL     1      21.073  36.047  42.597  1.00  0.00     0.172 C 
BRANCH  40  41
HETATM   41  C2  UNL     1      22.512  35.981  42.278  1.00  0.00     0.298 C 
HETATM   42  O2  UNL     1      22.918  35.936  41.112  1.00  0.00    -0.259 OA
BRANCH  41  43
HETATM   43  O1  UNL     1      23.467  35.973  43.318  1.00  0.00    -0.322 OA
HETATM   44  C1  UNL     1      24.121  34.764  43.716  1.00  0.00     0.213 C 
ENDBRANCH  41  43
ENDBRANCH  40  41
ENDBRANCH  38  40
ENDBRANCH   1  35
BRANCH  33  45
HETATM   45  C26 UNL     1      22.175  39.028  50.466  1.00  0.00     0.271 C 
BRANCH  45  46
HETATM   46  N7  UNL     1      22.133  40.055  51.546  1.00  0.00    -0.075 N 
ATOM     47  H73 UNL     1      21.495  39.784  52.294  1.00  0.00     0.274 HD
ATOM     48  H72 UNL     1      23.003  40.071  52.080  1.00  0.00     0.274 HD
ATOM     49  H71 UNL     1      21.905  40.977  51.175  1.00  0.00     0.274 HD
ENDBRANCH  45  46
ENDBRANCH  33  45
TORSDOF 6
ENDMDL
MODEL 3
REMARK VINA RESULT: -8.149280923      3.011      9.521
REMARK  6 active torsions:
REMARK  status: ('A' for Active; 'I' for Inactive)
REMARK    1  A    between atoms: O1_2  and  C2_3 
REMARK    2  A    between atoms: C2_3  and  C3_5 
REMARK    3  A    between atoms: C3_5  and  N1_6 
REMARK    4  A    between atoms: C6_9  and  N2_10 
REMARK    5  A    between atoms: C25_42  and  C26_43 
REMARK    6  A    between atoms: C26_43  and  N7_44 
ROOT
HETATM    1  N2  UNL     1      18.476  35.308  46.629  1.00  0.00    -0.378 N 
HETATM    2  C7  UNL     1      17.407  34.875  45.816  1.00  0.00     0.150 C 
HETATM    3  C8  UNL     1      17.178  33.409  45.702  1.00  0.00     0.252 C 
HETATM    4  N3  UNL     1      16.976  33.010  44.322  1.00  0.00    -0.074 N 
ATOM      5  H31 UNL     1      16.731  32.022  44.258  1.00  0.00     0.277 HD
ATOM      6  H32 UNL     1      17.859  32.993  43.812  1.00  0.00     0.277 HD
HETATM    7  C9  UNL     1      15.997  33.836  43.642  1.00  0.00     0.234 C 
HETATM    8  C10 UNL     1      16.648  34.365  42.377  1.00  0.00     0.055 C 
HETATM    9  C11 UNL     1      15.775  34.084  41.157  1.00  0.00     0.234 C 
HETATM   10  N4  UNL     1      16.567  33.892  39.951  1.00  0.00    -0.073 N 
ATOM     11  H41 UNL     1      16.272  33.077  39.413  1.00  0.00     0.277 HD
ATOM     12  H42 UNL     1      17.520  33.589  40.152  1.00  0.00     0.277 HD
HETATM   13  C12 UNL     1      16.522  35.111  39.181  1.00  0.00     0.259 C 
HETATM   14  C13 UNL     1      17.762  35.954  39.319  1.00  0.00     0.259 C 
HETATM   15  N5  UNL     1      18.828  35.440  38.476  1.00  0.00    -0.073 N 
ATOM     16  H51 UNL     1      19.127  36.134  37.792  1.00  0.00     0.277 HD
ATOM     17  H52 UNL     1      18.484  34.723  37.838  1.00  0.00     0.277 HD
HETATM   18  C14 UNL     1      19.960  34.951  39.265  1.00  0.00     0.234 C 
HETATM   19  C15 UNL     1      21.113  35.934  39.232  1.00  0.00     0.055 C 
HETATM   20  C16 UNL     1      22.362  35.216  39.673  1.00  0.00     0.233 C 
HETATM   21  N6  UNL     1      23.267  36.131  40.357  1.00  0.00    -0.075 N 
ATOM     22  H61 UNL     1      23.068  36.212  41.354  1.00  0.00     0.277 HD
ATOM     23  H62 UNL     1      23.108  37.106  40.107  1.00  0.00     0.277 HD
HETATM   24  C17 UNL     1      24.618  35.699  40.091  1.00  0.00     0.234 C 
HETATM   25  C18 UNL     1      25.182  35.189  41.412  1.00  0.00     0.054 C 
HETATM   26  C19 UNL     1      24.874  36.205  42.495  1.00  0.00     0.177 C 
HETATM   27  O3  UNL     1      24.322  35.526  43.579  1.00  0.00    -0.350 OA
HETATM   28  C20 UNL     1      23.159  35.880  44.320  1.00  0.00     0.076 A 
HETATM   29  C21 UNL     1      22.083  35.098  43.981  1.00  0.00     0.038 A 
HETATM   30  C22 UNL     1      20.800  35.239  44.568  1.00  0.00     0.015 A 
HETATM   31  C23 UNL     1      20.588  36.191  45.526  1.00  0.00    -0.020 A 
HETATM   32  C24 UNL     1      21.661  36.969  45.860  1.00  0.00     0.024 A 
HETATM   33  C25 UNL     1      22.978  36.843  45.273  1.00  0.00     0.001 A 
HETATM   34  C27 UNL     1      19.245  36.398  46.208  1.00  0.00     0.097 C 
ENDROOT
BRANCH   1  35
HETATM   35  C6  UNL     1      18.507  34.814  47.924  1.00  0.00     0.124 C 
HETATM   36  C5  UNL     1      19.821  34.189  48.338  1.00  0.00     0.051 C 
HETATM   37  C4  UNL     1      19.937  34.545  49.788  1.00  0.00     0.130 C 
HETATM   38  N1  UNL     1      18.953  35.558  50.091  1.00  0.00    -0.363 N 
HETATM   39  C28 UNL     1      18.044  35.709  49.039  1.00  0.00     0.088 C 
BRANCH  38  40
HETATM   40  C3  UNL     1      18.539  35.576  51.437  1.00  0.00     0.172 C 
BRANCH  40  41
HETATM   41  C2  UNL     1      18.572  36.906  52.073  1.00  0.00     0.298 C 
HETATM   42  O2  UNL     1      19.531  37.273  52.762  1.00  0.00    -0.259 OA
BRANCH  41  43
HETATM   43  O1  UNL     1      17.494  37.801  51.900  1.00  0.00    -0.322 OA
HETATM   44  C1  UNL     1      17.636  38.991  51.119  1.00  0.00     0.213 C 
ENDBRANCH  41  43
ENDBRANCH  40  41
ENDBRANCH  38  40
ENDBRANCH   1  35
BRANCH  33  45
HETATM   45  C26 UNL     1      23.950  37.832  45.903  1.00  0.00     0.271 C 
BRANCH  45  46
HETATM   46  N7  UNL     1      25.361  37.519  45.536  1.00  0.00    -0.075 N 
ATOM     47  H73 UNL     1      25.924  38.366  45.462  1.00  0.00     0.274 HD
ATOM     48  H72 UNL     1      25.856  37.068  46.307  1.00  0.00     0.274 HD
ATOM     49  H71 UNL     1      25.410  36.962  44.683  1.00  0.00     0.274 HD
ENDBRANCH  45  46
ENDBRANCH  33  45
TORSDOF 6
ENDMDL
MODEL 4
REMARK VINA RESULT: -8.141060666      1.545      1.818
REMARK  6 active torsions:
REMARK  status: ('A' for Active; 'I' for Inactive)
REMARK    1  A    between atoms: O1_2  and  C2_3 
REMARK    2  A    between atoms: C2_3  and  C3_5 
REMARK    3  A    between atoms: C3_5  and  N1_6 
REMARK    4  A    between atoms: C6_9  and  N2_10 
REMARK    5  A    between atoms: C25_42  and  C26_43 
REMARK    6  A    between atoms: C26_43  and  N7_44 
ROOT
HETATM    1  N2  UNL     1      19.162  35.438  46.708  1.00  0.00    -0.378 N 
HETATM    2  C7  UNL     1      18.219  34.395  46.824  1.00  0.00     0.150 C 
HETATM    3  C8  UNL     1      16.820  34.681  46.408  1.00  0.00     0.252 C 
HETATM    4  N3  UNL     1      15.867  34.203  47.392  1.00  0.00    -0.074 N 
ATOM      5  H31 UNL     1      14.909  34.321  47.061  1.00  0.00     0.277 HD
ATOM      6  H32 UNL     1      15.837  34.821  48.203  1.00  0.00     0.277 HD
HETATM    7  C9  UNL     1      16.117  32.831  47.789  1.00  0.00     0.234 C 
HETATM    8  C10 UNL     1      16.221  32.808  49.303  1.00  0.00     0.055 C 
HETATM    9  C11 UNL     1      15.292  31.751  49.896  1.00  0.00     0.234 C 
HETATM   10  N4  UNL     1      14.808  32.127  51.215  1.00  0.00    -0.073 N 
ATOM     11  H41 UNL     1      13.803  31.987  51.320  1.00  0.00     0.277 HD
ATOM     12  H42 UNL     1      14.824  33.136  51.366  1.00  0.00     0.277 HD
HETATM   13  C12 UNL     1      15.574  31.405  52.202  1.00  0.00     0.259 C 
HETATM   14  C13 UNL     1      16.647  32.236  52.854  1.00  0.00     0.259 C 
HETATM   15  N5  UNL     1      16.081  33.085  53.889  1.00  0.00    -0.073 N 
ATOM     16  H51 UNL     1      16.488  32.879  54.801  1.00  0.00     0.277 HD
ATOM     17  H52 UNL     1      15.112  32.834  54.086  1.00  0.00     0.277 HD
HETATM   18  C14 UNL     1      16.206  34.505  53.560  1.00  0.00     0.234 C 
HETATM   19  C15 UNL     1      17.317  35.155  54.361  1.00  0.00     0.055 C 
HETATM   20  C16 UNL     1      17.124  36.648  54.315  1.00  0.00     0.233 C 
HETATM   21  N6  UNL     1      18.408  37.335  54.376  1.00  0.00    -0.075 N 
ATOM     22  H61 UNL     1      18.838  37.451  53.458  1.00  0.00     0.277 HD
ATOM     23  H62 UNL     1      19.141  36.767  54.798  1.00  0.00     0.277 HD
HETATM   24  C17 UNL     1      18.208  38.589  55.062  1.00  0.00     0.234 C 
HETATM   25  C18 UNL     1      18.406  39.690  54.026  1.00  0.00     0.054 C 
HETATM   26  C19 UNL     1      19.679  39.404  53.253  1.00  0.00     0.177 C 
HETATM   27  O3  UNL     1      19.391  39.510  51.894  1.00  0.00    -0.350 OA
HETATM   28  C20 UNL     1      19.753  38.602  50.860  1.00  0.00     0.076 A 
HETATM   29  C21 UNL     1      18.689  37.827  50.467  1.00  0.00     0.038 A 
HETATM   30  C22 UNL     1      18.774  36.840  49.453  1.00  0.00     0.015 A 
HETATM   31  C23 UNL     1      19.960  36.622  48.810  1.00  0.00    -0.020 A 
HETATM   32  C24 UNL     1      21.019  37.392  49.204  1.00  0.00     0.024 A 
HETATM   33  C25 UNL     1      20.954  38.405  50.237  1.00  0.00     0.001 A 
HETATM   34  C27 UNL     1      20.129  35.588  47.707  1.00  0.00     0.097 C 
ENDROOT
BRANCH   1  35
HETATM   35  C6  UNL     1      19.249  36.058  45.471  1.00  0.00     0.124 C 
HETATM   36  C5  UNL     1      19.979  37.383  45.469  1.00  0.00     0.051 C 
HETATM   37  C4  UNL     1      20.681  37.395  44.145  1.00  0.00     0.130 C 
HETATM   38  N1  UNL     1      20.629  36.063  43.588  1.00  0.00    -0.363 N 
HETATM   39  C28 UNL     1      19.744  35.251  44.303  1.00  0.00     0.088 C 
BRANCH  38  40
HETATM   40  C3  UNL     1      20.701  36.024  42.182  1.00  0.00     0.172 C 
BRANCH  40  41
HETATM   41  C2  UNL     1      22.070  35.988  41.637  1.00  0.00     0.298 C 
HETATM   42  O2  UNL     1      23.032  35.619  42.319  1.00  0.00    -0.259 OA
BRANCH  41  43
HETATM   43  O1  UNL     1      22.311  36.377  40.301  1.00  0.00    -0.322 OA
HETATM   44  C1  UNL     1      21.392  36.048  39.255  1.00  0.00     0.213 C 
ENDBRANCH  41  43
ENDBRANCH  40  41
ENDBRANCH  38  40
ENDBRANCH   1  35
BRANCH  33  45
HETATM   45  C26 UNL     1      22.297  39.105  50.394  1.00  0.00     0.271 C 
BRANCH  45  46
HETATM   46  N7  UNL     1      22.266  40.102  51.503  1.00  0.00    -0.075 N 
ATOM     47  H73 UNL     1      21.715  39.765  52.292  1.00  0.00     0.274 HD
ATOM     48  H72 UNL     1      23.173  40.176  51.964  1.00  0.00     0.274 HD
ATOM     49  H71 UNL     1      21.936  41.011  51.178  1.00  0.00     0.274 HD
ENDBRANCH  45  46
ENDBRANCH  33  45
TORSDOF 6
ENDMDL
MODEL 5
REMARK VINA RESULT: -7.973031068      3.032      9.742
REMARK  6 active torsions:
REMARK  status: ('A' for Active; 'I' for Inactive)
REMARK    1  A    between atoms: O1_2  and  C2_3 
REMARK    2  A    between atoms: C2_3  and  C3_5 
REMARK    3  A    between atoms: C3_5  and  N1_6 
REMARK    4  A    between atoms: C6_9  and  N2_10 
REMARK    5  A    between atoms: C25_42  and  C26_43 
REMARK    6  A    between atoms: C26_43  and  N7_44 
ROOT
HETATM    1  N2  UNL     1      18.731  35.197  46.734  1.00  0.00    -0.378 N 
HETATM    2  C7  UNL     1      17.632  34.772  45.958  1.00  0.00     0.150 C 
HETATM    3  C8  UNL     1      17.413  33.307  45.819  1.00  0.00     0.252 C 
HETATM    4  N3  UNL     1      17.153  32.938  44.440  1.00  0.00    -0.074 N 
ATOM      5  H31 UNL     1      16.916  31.949  44.364  1.00  0.00     0.277 HD
ATOM      6  H32 UNL     1      18.013  32.943  43.892  1.00  0.00     0.277 HD
HETATM    7  C9  UNL     1      16.137  33.769  43.824  1.00  0.00     0.234 C 
HETATM    8  C10 UNL     1      16.727  34.335  42.545  1.00  0.00     0.055 C 
HETATM    9  C11 UNL     1      15.803  34.074  41.358  1.00  0.00     0.234 C 
HETATM   10  N4  UNL     1      16.542  33.920  40.114  1.00  0.00    -0.073 N 
ATOM     11  H41 UNL     1      16.232  33.114  39.570  1.00  0.00     0.277 HD
ATOM     12  H42 UNL     1      17.506  33.622  40.265  1.00  0.00     0.277 HD
HETATM   13  C12 UNL     1      16.452  35.156  39.377  1.00  0.00     0.259 C 
HETATM   14  C13 UNL     1      17.688  36.009  39.480  1.00  0.00     0.259 C 
HETATM   15  N5  UNL     1      18.721  35.527  38.579  1.00  0.00    -0.073 N 
ATOM     16  H51 UNL     1      18.982  36.240  37.899  1.00  0.00     0.277 HD
ATOM     17  H52 UNL     1      18.356  34.821  37.939  1.00  0.00     0.277 HD
HETATM   18  C14 UNL     1      19.892  35.031  39.305  1.00  0.00     0.234 C 
HETATM   19  C15 UNL     1      21.032  36.028  39.245  1.00  0.00     0.055 C 
HETATM   20  C16 UNL     1      22.306  35.313  39.613  1.00  0.00     0.233 C 
HETATM   21  N6  UNL     1      23.232  36.221  40.279  1.00  0.00    -0.075 N 
ATOM     22  H61 UNL     1      23.076  36.276  41.285  1.00  0.00     0.277 HD
ATOM     23  H62 UNL     1      23.052  37.200  40.059  1.00  0.00     0.277 HD
HETATM   24  C17 UNL     1      24.574  35.810  39.943  1.00  0.00     0.234 C 
HETATM   25  C18 UNL     1      25.201  35.275  41.225  1.00  0.00     0.054 C 
HETATM   26  C19 UNL     1      24.932  36.262  42.344  1.00  0.00     0.177 C 
HETATM   27  O3  UNL     1      24.434  35.552  43.435  1.00  0.00    -0.350 OA
HETATM   28  C20 UNL     1      23.302  35.875  44.235  1.00  0.00     0.076 A 
HETATM   29  C21 UNL     1      22.219  35.090  43.925  1.00  0.00     0.038 A 
HETATM   30  C22 UNL     1      20.962  35.203  44.571  1.00  0.00     0.015 A 
HETATM   31  C23 UNL     1      20.783  36.129  45.561  1.00  0.00    -0.020 A 
HETATM   32  C24 UNL     1      21.863  36.911  45.866  1.00  0.00     0.024 A 
HETATM   33  C25 UNL     1      23.154  36.813  45.219  1.00  0.00     0.001 A 
HETATM   34  C27 UNL     1      19.470  36.305  46.306  1.00  0.00     0.097 C 
ENDROOT
BRANCH   1  35
HETATM   35  C6  UNL     1      18.825  34.673  48.014  1.00  0.00     0.124 C 
HETATM   36  C5  UNL     1      20.142  34.927  48.714  1.00  0.00     0.051 C 
HETATM   37  C4  UNL     1      19.747  35.104  50.148  1.00  0.00     0.130 C 
HETATM   38  N1  UNL     1      18.314  35.270  50.211  1.00  0.00    -0.363 N 
HETATM   39  C28 UNL     1      17.716  34.963  48.985  1.00  0.00     0.088 C 
BRANCH  38  40
HETATM   40  C3  UNL     1      17.742  34.872  51.436  1.00  0.00     0.172 C 
BRANCH  40  41
HETATM   41  C2  UNL     1      17.712  35.922  52.470  1.00  0.00     0.298 C 
HETATM   42  O2  UNL     1      17.690  37.123  52.177  1.00  0.00    -0.259 OA
BRANCH  41  43
HETATM   43  O1  UNL     1      17.702  35.569  53.837  1.00  0.00    -0.322 OA
HETATM   44  C1  UNL     1      17.067  34.369  54.290  1.00  0.00     0.213 C 
ENDBRANCH  41  43
ENDBRANCH  40  41
ENDBRANCH  38  40
ENDBRANCH   1  35
BRANCH  33  45
HETATM   45  C26 UNL     1      24.143  37.798  45.829  1.00  0.00     0.271 C 
BRANCH  45  46
HETATM   46  N7  UNL     1      25.551  37.431  45.500  1.00  0.00    -0.075 N 
ATOM     47  H73 UNL     1      25.590  36.657  44.836  1.00  0.00     0.274 HD
ATOM     48  H72 UNL     1      26.000  38.149  44.930  1.00  0.00     0.274 HD
ATOM     49  H71 UNL     1      26.090  37.230  46.342  1.00  0.00     0.274 HD
ENDBRANCH  45  46
ENDBRANCH  33  45
TORSDOF 6
ENDMDL
