MODEL 1
REMARK VINA RESULT: -9.292817409      0.000      0.000
REMARK  9 active torsions:
REMARK  status: ('A' for Active; 'I' for Inactive)
REMARK    1  A    between atoms: N1_1  and  C1_5 
REMARK    2  A    between atoms: C3_7  and  O1_8 
REMARK    3  A    between atoms: C4_10  and  N2_11 
REMARK    4  A    between atoms: C7_16  and  N4_17 
REMARK    5  A    between atoms: N4_17  and  C8_19 
REMARK    6  A    between atoms: C11_22  and  N5_23 
REMARK    7  A    between atoms: N6_26  and  C14_27 
REMARK    8  A    between atoms: C26_43  and  O2_44 
REMARK    9  A    between atoms: C27_46  and  O3_47 
ROOT
HETATM    1  N2  UNL     1      17.487  36.580  52.325  1.00  0.00    -0.317 N 
HETATM    2  C5  UNL     1      17.491  35.774  51.247  1.00  0.00     0.185 A 
HETATM    3  N3  UNL     1      18.580  36.009  50.471  1.00  0.00    -0.346 N 
ATOM      4  H3  UNL     1      18.820  35.535  49.600  1.00  0.00     0.167 HD
HETATM    5  C6  UNL     1      19.270  36.970  51.064  1.00  0.00     0.122 A 
HETATM    6  C7  UNL     1      20.486  37.586  50.669  1.00  0.00     0.133 A 
HETATM    7  N7  UNL     1      20.904  38.539  51.520  1.00  0.00    -0.337 N 
ATOM      8  H7  UNL     1      21.773  39.026  51.300  1.00  0.00     0.168 HD
HETATM    9  C24 UNL     1      20.249  38.894  52.649  1.00  0.00     0.183 A 
HETATM   10  N8  UNL     1      19.102  38.297  53.000  1.00  0.00    -0.336 N 
ATOM     11  H8  UNL     1      18.610  38.569  53.851  1.00  0.00     0.168 HD
HETATM   12  C25 UNL     1      18.620  37.337  52.204  1.00  0.00     0.141 A 
ENDROOT
BRANCH   6  13
HETATM   13  N4  UNL     1      21.038  37.218  49.619  1.00  0.00    -0.370 N 
ATOM     14  H4  UNL     1      21.733  36.520  49.883  1.00  0.00     0.161 HD
BRANCH  13  15
HETATM   15  C8  UNL     1      21.111  37.350  48.265  1.00  0.00     0.083 C 
HETATM   16  C9  UNL     1      22.463  37.949  47.818  1.00  0.00     0.027 C 
HETATM   17  C10 UNL     1      22.888  37.401  46.485  1.00  0.00     0.038 C 
HETATM   18  C11 UNL     1      21.784  37.239  45.493  1.00  0.00     0.223 C 
HETATM   19  C22 UNL     1      20.579  36.500  46.063  1.00  0.00     0.038 C 
HETATM   20  C23 UNL     1      20.855  36.071  47.509  1.00  0.00     0.027 C 
BRANCH  18  21
HETATM   21  N5  UNL     1      22.265  36.461  44.368  1.00  0.00     0.096 N 
HETATM   22  C12 UNL     1      23.176  35.414  44.756  1.00  0.00     0.303 C 
HETATM   23  C13 UNL     1      23.872  34.927  43.497  1.00  0.00     0.303 C 
HETATM   24  N6  UNL     1      22.823  34.382  42.620  1.00  0.00     0.096 N 
HETATM   25  C20 UNL     1      21.898  35.400  42.256  1.00  0.00     0.303 C 
HETATM   26  C21 UNL     1      21.239  35.923  43.539  1.00  0.00     0.303 C 
BRANCH  24  27
HETATM   27  C14 UNL     1      23.486  33.757  41.509  1.00  0.00     0.223 C 
HETATM   28  C15 UNL     1      24.796  34.339  41.120  1.00  0.00     0.036 C 
HETATM   29  C16 UNL     1      24.714  34.890  39.690  1.00  0.00     0.002 C 
HETATM   30  C17 UNL     1      24.426  33.716  38.789  1.00  0.00     0.000 C 
HETATM   31  C18 UNL     1      23.200  32.944  39.239  1.00  0.00     0.002 C 
HETATM   32  C19 UNL     1      22.533  33.750  40.332  1.00  0.00     0.036 C 
ENDBRANCH  24  27
ENDBRANCH  18  21
ENDBRANCH  13  15
ENDBRANCH   6  13
BRANCH   1  33
HETATM   33  C4  UNL     1      16.498  36.639  53.383  1.00  0.00     0.152 C 
HETATM   34  C3  UNL     1      15.755  37.932  53.452  1.00  0.00     0.146 C 
HETATM   35  C2  UNL     1      15.099  38.046  54.820  1.00  0.00     0.069 C 
HETATM   36  C1  UNL     1      14.724  36.667  55.332  1.00  0.00     0.217 C 
HETATM   37  C27 UNL     1      15.939  35.830  55.640  1.00  0.00     0.179 C 
HETATM   38  C26 UNL     1      17.071  36.185  54.708  1.00  0.00     0.174 C 
BRANCH  34  39
HETATM   39  O1  UNL     1      16.475  39.053  53.122  1.00  0.00    -0.393 OA
ATOM     40  H1  UNL     1      16.486  39.214  52.186  1.00  0.00     0.210 HD
ENDBRANCH  34  39
BRANCH  36  41
HETATM   41  N1  UNL     1      13.912  36.818  56.532  1.00  0.00    -0.072 N 
ATOM     42  H13 UNL     1      14.341  37.440  57.217  1.00  0.00     0.274 HD
ATOM     43  H12 UNL     1      13.063  37.357  56.364  1.00  0.00     0.274 HD
ATOM     44  H11 UNL     1      13.717  35.892  56.914  1.00  0.00     0.274 HD
ENDBRANCH  36  41
BRANCH  37  45
HETATM   45  O3  UNL     1      15.689  34.466  55.500  1.00  0.00    -0.391 OA
ATOM     46  H3  UNL     1      16.370  33.934  55.894  1.00  0.00     0.210 HD
ENDBRANCH  37  45
BRANCH  38  47
HETATM   47  O2  UNL     1      17.923  37.076  55.299  1.00  0.00    -0.391 OA
ATOM     48  H2  UNL     1      18.029  36.964  56.236  1.00  0.00     0.210 HD
ENDBRANCH  38  47
ENDBRANCH   1  33
TORSDOF 9
ENDMDL
MODEL 2
REMARK VINA RESULT: -9.187342917      4.645     12.544
REMARK  9 active torsions:
REMARK  status: ('A' for Active; 'I' for Inactive)
REMARK    1  A    between atoms: N1_1  and  C1_5 
REMARK    2  A    between atoms: C3_7  and  O1_8 
REMARK    3  A    between atoms: C4_10  and  N2_11 
REMARK    4  A    between atoms: C7_16  and  N4_17 
REMARK    5  A    between atoms: N4_17  and  C8_19 
REMARK    6  A    between atoms: C11_22  and  N5_23 
REMARK    7  A    between atoms: N6_26  and  C14_27 
REMARK    8  A    between atoms: C26_43  and  O2_44 
REMARK    9  A    between atoms: C27_46  and  O3_47 
ROOT
HETATM    1  N2  UNL     1      22.334  35.830  44.389  1.00  0.00    -0.317 N 
HETATM    2  C5  UNL     1      22.969  36.573  45.314  1.00  0.00     0.185 A 
HETATM    3  N3  UNL     1      22.356  36.471  46.522  1.00  0.00    -0.346 N 
ATOM      4  H3  UNL     1      22.636  36.934  47.387  1.00  0.00     0.167 HD
HETATM    5  C6  UNL     1      21.326  35.657  46.358  1.00  0.00     0.122 A 
HETATM    6  C7  UNL     1      20.361  35.218  47.302  1.00  0.00     0.133 A 
HETATM    7  N7  UNL     1      19.444  34.385  46.782  1.00  0.00    -0.337 N 
ATOM      8  H7  UNL     1      18.718  34.028  47.404  1.00  0.00     0.168 HD
HETATM    9  C24 UNL     1      19.421  33.988  45.489  1.00  0.00     0.183 A 
HETATM   10  N8  UNL     1      20.342  34.417  44.617  1.00  0.00    -0.336 N 
ATOM     11  H8  UNL     1      20.320  34.117  43.642  1.00  0.00     0.168 HD
HETATM   12  C25 UNL     1      21.290  35.249  45.058  1.00  0.00     0.141 A 
ENDROOT
BRANCH   6  13
HETATM   13  N4  UNL     1      20.435  35.621  48.475  1.00  0.00    -0.370 N 
ATOM     14  H4  UNL     1      21.340  35.316  48.833  1.00  0.00     0.161 HD
BRANCH  13  15
HETATM   15  C8  UNL     1      19.820  36.295  49.486  1.00  0.00     0.083 C 
HETATM   16  C9  UNL     1      19.571  35.390  50.713  1.00  0.00     0.027 C 
HETATM   17  C10 UNL     1      19.666  36.169  51.995  1.00  0.00     0.038 C 
HETATM   18  C11 UNL     1      19.061  37.534  51.945  1.00  0.00     0.223 C 
HETATM   19  C22 UNL     1      19.528  38.344  50.740  1.00  0.00     0.038 C 
HETATM   20  C23 UNL     1      20.547  37.543  49.923  1.00  0.00     0.027 C 
BRANCH  18  21
HETATM   21  N5  UNL     1      19.454  38.272  53.129  1.00  0.00     0.096 N 
HETATM   22  C12 UNL     1      19.659  39.676  52.876  1.00  0.00     0.303 C 
HETATM   23  C13 UNL     1      20.401  40.249  54.071  1.00  0.00     0.303 C 
HETATM   24  N6  UNL     1      19.523  40.071  55.238  1.00  0.00     0.096 N 
HETATM   25  C20 UNL     1      19.286  38.688  55.478  1.00  0.00     0.303 C 
HETATM   26  C21 UNL     1      18.584  38.106  54.245  1.00  0.00     0.303 C 
BRANCH  24  27
HETATM   27  C14 UNL     1      20.134  40.769  56.336  1.00  0.00     0.223 C 
HETATM   28  C15 UNL     1      19.350  41.890  56.911  1.00  0.00     0.036 C 
HETATM   29  C16 UNL     1      20.119  43.206  56.731  1.00  0.00     0.002 C 
HETATM   30  C17 UNL     1      21.402  43.069  57.512  1.00  0.00     0.000 C 
HETATM   31  C18 UNL     1      22.175  41.826  57.116  1.00  0.00     0.002 C 
HETATM   32  C19 UNL     1      21.502  41.243  55.892  1.00  0.00     0.036 C 
ENDBRANCH  24  27
ENDBRANCH  18  21
ENDBRANCH  13  15
ENDBRANCH   6  13
BRANCH   1  33
HETATM   33  C4  UNL     1      22.673  35.677  42.988  1.00  0.00     0.152 C 
HETATM   34  C3  UNL     1      21.730  36.360  42.054  1.00  0.00     0.146 C 
HETATM   35  C2  UNL     1      21.915  35.777  40.661  1.00  0.00     0.069 C 
HETATM   36  C1  UNL     1      23.360  35.352  40.465  1.00  0.00     0.217 C 
HETATM   37  C27 UNL     1      23.727  34.182  41.341  1.00  0.00     0.179 C 
HETATM   38  C26 UNL     1      22.955  34.233  42.637  1.00  0.00     0.174 C 
BRANCH  34  39
HETATM   39  O1  UNL     1      20.414  36.378  42.443  1.00  0.00    -0.393 OA
ATOM     40  H1  UNL     1      19.938  35.612  42.145  1.00  0.00     0.210 HD
ENDBRANCH  34  39
BRANCH  36  41
HETATM   41  N1  UNL     1      23.558  35.000  39.065  1.00  0.00    -0.072 N 
ATOM     42  H13 UNL     1      22.912  35.488  38.445  1.00  0.00     0.274 HD
ATOM     43  H12 UNL     1      24.427  35.376  38.687  1.00  0.00     0.274 HD
ATOM     44  H11 UNL     1      23.497  33.986  38.971  1.00  0.00     0.274 HD
ENDBRANCH  36  41
BRANCH  37  45
HETATM   45  O3  UNL     1      25.084  34.167  41.659  1.00  0.00    -0.391 OA
ATOM     46  H3  UNL     1      25.326  34.884  42.233  1.00  0.00     0.210 HD
ENDBRANCH  37  45
BRANCH  38  47
HETATM   47  O2  UNL     1      21.847  33.434  42.572  1.00  0.00    -0.391 OA
ATOM     48  H2  UNL     1      21.299  33.575  41.808  1.00  0.00     0.210 HD
ENDBRANCH  38  47
ENDBRANCH   1  33
TORSDOF 9
ENDMDL
MODEL 3
REMARK VINA RESULT: -9.116536299      1.294      1.789
REMARK  9 active torsions:
REMARK  status: ('A' for Active; 'I' for Inactive)
REMARK    1  A    between atoms: N1_1  and  C1_5 
REMARK    2  A    between atoms: C3_7  and  O1_8 
REMARK    3  A    between atoms: C4_10  and  N2_11 
REMARK    4  A    between atoms: C7_16  and  N4_17 
REMARK    5  A    between atoms: N4_17  and  C8_19 
REMARK    6  A    between atoms: C11_22  and  N5_23 
REMARK    7  A    between atoms: N6_26  and  C14_27 
REMARK    8  A    between atoms: C26_43  and  O2_44 
REMARK    9  A    between atoms: C27_46  and  O3_47 
ROOT
HETATM    1  N2  UNL     1      18.273  36.617  51.205  1.00  0.00    -0.317 N 
HETATM    2  C5  UNL     1      18.209  35.795  50.142  1.00  0.00     0.185 A 
HETATM    3  N3  UNL     1      19.238  36.027  49.287  1.00  0.00    -0.346 N 
ATOM      4  H3  UNL     1      19.419  35.542  48.408  1.00  0.00     0.167 HD
HETATM    5  C6  UNL     1      19.957  37.003  49.815  1.00  0.00     0.122 A 
HETATM    6  C7  UNL     1      21.136  37.625  49.325  1.00  0.00     0.133 A 
HETATM    7  N7  UNL     1      21.604  38.594  50.129  1.00  0.00    -0.337 N 
ATOM      8  H7  UNL     1      22.450  39.085  49.841  1.00  0.00     0.168 HD
HETATM    9  C24 UNL     1      21.027  38.961  51.296  1.00  0.00     0.183 A 
HETATM   10  N8  UNL     1      19.914  38.360  51.737  1.00  0.00    -0.336 N 
ATOM     11  H8  UNL     1      19.481  38.640  52.617  1.00  0.00     0.168 HD
HETATM   12  C25 UNL     1      19.387  37.383  50.993  1.00  0.00     0.141 A 
ENDROOT
BRANCH   6  13
HETATM   13  N4  UNL     1      21.616  37.245  48.244  1.00  0.00    -0.370 N 
ATOM     14  H4  UNL     1      22.118  36.378  48.435  1.00  0.00     0.161 HD
BRANCH  13  15
HETATM   15  C8  UNL     1      21.758  37.494  46.912  1.00  0.00     0.083 C 
HETATM   16  C9  UNL     1      23.242  37.505  46.484  1.00  0.00     0.027 C 
HETATM   17  C10 UNL     1      23.410  36.992  45.082  1.00  0.00     0.038 C 
HETATM   18  C11 UNL     1      22.358  37.439  44.121  1.00  0.00     0.223 C 
HETATM   19  C22 UNL     1      20.944  37.224  44.650  1.00  0.00     0.038 C 
HETATM   20  C23 UNL     1      20.987  36.549  46.025  1.00  0.00     0.027 C 
BRANCH  18  21
HETATM   21  N5  UNL     1      22.473  36.670  42.897  1.00  0.00     0.096 N 
HETATM   22  C12 UNL     1      22.895  35.311  43.123  1.00  0.00     0.303 C 
HETATM   23  C13 UNL     1      23.322  34.739  41.783  1.00  0.00     0.303 C 
HETATM   24  N6  UNL     1      22.132  34.759  40.917  1.00  0.00     0.096 N 
HETATM   25  C20 UNL     1      21.686  36.096  40.713  1.00  0.00     0.303 C 
HETATM   26  C21 UNL     1      21.307  36.683  42.078  1.00  0.00     0.303 C 
BRANCH  24  27
HETATM   27  C14 UNL     1      22.476  34.057  39.712  1.00  0.00     0.223 C 
HETATM   28  C15 UNL     1      21.445  33.128  39.183  1.00  0.00     0.036 C 
HETATM   29  C16 UNL     1      21.991  31.693  39.187  1.00  0.00     0.002 C 
HETATM   30  C17 UNL     1      23.174  31.676  38.253  1.00  0.00     0.000 C 
HETATM   31  C18 UNL     1      24.194  32.741  38.612  1.00  0.00     0.002 C 
HETATM   32  C19 UNL     1      23.784  33.330  39.944  1.00  0.00     0.036 C 
ENDBRANCH  24  27
ENDBRANCH  18  21
ENDBRANCH  13  15
ENDBRANCH   6  13
BRANCH   1  33
HETATM   33  C4  UNL     1      17.362  36.684  52.331  1.00  0.00     0.152 C 
HETATM   34  C3  UNL     1      16.502  37.905  52.348  1.00  0.00     0.146 C 
HETATM   35  C2  UNL     1      15.938  38.085  53.749  1.00  0.00     0.069 C 
HETATM   36  C1  UNL     1      15.737  36.730  54.405  1.00  0.00     0.217 C 
HETATM   37  C27 UNL     1      17.048  36.041  54.686  1.00  0.00     0.179 C 
HETATM   38  C26 UNL     1      18.070  36.409  53.639  1.00  0.00     0.174 C 
BRANCH  34  39
HETATM   39  O1  UNL     1      17.084  39.051  51.866  1.00  0.00    -0.393 OA
ATOM     40  H1  UNL     1      18.024  39.062  51.997  1.00  0.00     0.210 HD
ENDBRANCH  34  39
BRANCH  36  41
HETATM   41  N1  UNL     1      15.003  36.918  55.650  1.00  0.00    -0.072 N 
ATOM     42  H13 UNL     1      15.266  36.239  56.364  1.00  0.00     0.274 HD
ATOM     43  H12 UNL     1      15.287  37.762  56.147  1.00  0.00     0.274 HD
ATOM     44  H11 UNL     1      14.004  36.903  55.445  1.00  0.00     0.274 HD
ENDBRANCH  36  41
BRANCH  37  45
HETATM   45  O3  UNL     1      16.923  34.652  54.684  1.00  0.00    -0.391 OA
ATOM     46  H3  UNL     1      16.660  34.315  55.532  1.00  0.00     0.210 HD
ENDBRANCH  37  45
BRANCH  38  47
HETATM   47  O2  UNL     1      18.870  37.425  54.081  1.00  0.00    -0.391 OA
ATOM     48  H2  UNL     1      18.412  38.233  54.284  1.00  0.00     0.210 HD
ENDBRANCH  38  47
ENDBRANCH   1  33
TORSDOF 9
ENDMDL
MODEL 4
REMARK VINA RESULT: -9.101518591      4.094     12.296
REMARK  9 active torsions:
REMARK  status: ('A' for Active; 'I' for Inactive)
REMARK    1  A    between atoms: N1_1  and  C1_5 
REMARK    2  A    between atoms: C3_7  and  O1_8 
REMARK    3  A    between atoms: C4_10  and  N2_11 
REMARK    4  A    between atoms: C7_16  and  N4_17 
REMARK    5  A    between atoms: N4_17  and  C8_19 
REMARK    6  A    between atoms: C11_22  and  N5_23 
REMARK    7  A    between atoms: N6_26  and  C14_27 
REMARK    8  A    between atoms: C26_43  and  O2_44 
REMARK    9  A    between atoms: C27_46  and  O3_47 
ROOT
HETATM    1  N2  UNL     1      21.935  36.288  43.882  1.00  0.00    -0.317 N 
HETATM    2  C5  UNL     1      20.701  36.148  44.400  1.00  0.00     0.185 A 
HETATM    3  N3  UNL     1      20.645  36.646  45.662  1.00  0.00    -0.346 N 
ATOM      4  H3  UNL     1      19.829  36.663  46.274  1.00  0.00     0.167 HD
HETATM    5  C6  UNL     1      21.854  37.104  45.943  1.00  0.00     0.122 A 
HETATM    6  C7  UNL     1      22.334  37.722  47.128  1.00  0.00     0.133 A 
HETATM    7  N7  UNL     1      23.632  38.064  47.065  1.00  0.00    -0.337 N 
ATOM      8  H7  UNL     1      24.047  38.514  47.882  1.00  0.00     0.168 HD
HETATM    9  C24 UNL     1      24.425  37.852  45.990  1.00  0.00     0.183 A 
HETATM   10  N8  UNL     1      23.949  37.266  44.883  1.00  0.00    -0.336 N 
ATOM     11  H8  UNL     1      24.550  37.107  44.075  1.00  0.00     0.168 HD
HETATM   12  C25 UNL     1      22.664  36.897  44.867  1.00  0.00     0.141 A 
ENDROOT
BRANCH   6  13
HETATM   13  N4  UNL     1      21.557  37.886  48.083  1.00  0.00    -0.370 N 
ATOM     14  H4  UNL     1      20.933  38.650  47.824  1.00  0.00     0.161 HD
BRANCH  13  15
HETATM   15  C8  UNL     1      21.185  37.480  49.329  1.00  0.00     0.083 C 
HETATM   16  C9  UNL     1      21.274  38.629  50.358  1.00  0.00     0.027 C 
HETATM   17  C10 UNL     1      20.213  38.499  51.415  1.00  0.00     0.038 C 
HETATM   18  C11 UNL     1      19.960  37.103  51.881  1.00  0.00     0.223 C 
HETATM   19  C22 UNL     1      19.753  36.124  50.731  1.00  0.00     0.038 C 
HETATM   20  C23 UNL     1      19.811  36.860  49.388  1.00  0.00     0.027 C 
BRANCH  18  21
HETATM   21  N5  UNL     1      18.750  37.080  52.679  1.00  0.00     0.096 N 
HETATM   22  C12 UNL     1      18.262  35.747  52.925  1.00  0.00     0.303 C 
HETATM   23  C13 UNL     1      16.838  35.871  53.437  1.00  0.00     0.303 C 
HETATM   24  N6  UNL     1      16.908  36.622  54.701  1.00  0.00     0.096 N 
HETATM   25  C20 UNL     1      17.420  37.931  54.476  1.00  0.00     0.303 C 
HETATM   26  C21 UNL     1      18.838  37.795  53.908  1.00  0.00     0.303 C 
BRANCH  24  27
HETATM   27  C14 UNL     1      15.596  36.590  55.285  1.00  0.00     0.223 C 
HETATM   28  C15 UNL     1      14.763  35.408  54.948  1.00  0.00     0.036 C 
HETATM   29  C16 UNL     1      13.507  35.859  54.189  1.00  0.00     0.002 C 
HETATM   30  C17 UNL     1      12.726  36.742  55.128  1.00  0.00     0.000 C 
HETATM   31  C18 UNL     1      13.574  37.875  55.676  1.00  0.00     0.002 C 
HETATM   32  C19 UNL     1      14.881  37.872  54.914  1.00  0.00     0.036 C 
ENDBRANCH  24  27
ENDBRANCH  18  21
ENDBRANCH  13  15
ENDBRANCH   6  13
BRANCH   1  33
HETATM   33  C4  UNL     1      22.398  35.881  42.570  1.00  0.00     0.152 C 
HETATM   34  C3  UNL     1      21.623  36.473  41.439  1.00  0.00     0.146 C 
HETATM   35  C2  UNL     1      21.891  35.656  40.184  1.00  0.00     0.069 C 
HETATM   36  C1  UNL     1      23.300  35.091  40.224  1.00  0.00     0.217 C 
HETATM   37  C27 UNL     1      23.462  34.056  41.307  1.00  0.00     0.179 C 
HETATM   38  C26 UNL     1      22.572  34.381  42.481  1.00  0.00     0.174 C 
BRANCH  34  39
HETATM   39  O1  UNL     1      20.282  36.659  41.667  1.00  0.00    -0.393 OA
ATOM     40  H1  UNL     1      19.892  37.268  41.052  1.00  0.00     0.210 HD
ENDBRANCH  34  39
BRANCH  36  41
HETATM   41  N1  UNL     1      23.603  34.499  38.927  1.00  0.00    -0.072 N 
ATOM     42  H13 UNL     1      23.716  35.200  38.195  1.00  0.00     0.274 HD
ATOM     43  H12 UNL     1      24.542  34.104  38.889  1.00  0.00     0.274 HD
ATOM     44  H11 UNL     1      22.882  33.813  38.704  1.00  0.00     0.274 HD
ENDBRANCH  36  41
BRANCH  37  45
HETATM   45  O3  UNL     1      24.773  33.986  41.777  1.00  0.00    -0.391 OA
ATOM     46  H3  UNL     1      24.854  33.413  42.530  1.00  0.00     0.210 HD
ENDBRANCH  37  45
BRANCH  38  47
HETATM   47  O2  UNL     1      21.405  33.672  42.414  1.00  0.00    -0.391 OA
ATOM     48  H2  UNL     1      21.224  33.283  41.566  1.00  0.00     0.210 HD
ENDBRANCH  38  47
ENDBRANCH   1  33
TORSDOF 9
ENDMDL
MODEL 5
REMARK VINA RESULT: -9.039341953      4.534     12.387
REMARK  9 active torsions:
REMARK  status: ('A' for Active; 'I' for Inactive)
REMARK    1  A    between atoms: N1_1  and  C1_5 
REMARK    2  A    between atoms: C3_7  and  O1_8 
REMARK    3  A    between atoms: C4_10  and  N2_11 
REMARK    4  A    between atoms: C7_16  and  N4_17 
REMARK    5  A    between atoms: N4_17  and  C8_19 
REMARK    6  A    between atoms: C11_22  and  N5_23 
REMARK    7  A    between atoms: N6_26  and  C14_27 
REMARK    8  A    between atoms: C26_43  and  O2_44 
REMARK    9  A    between atoms: C27_46  and  O3_47 
ROOT
HETATM    1  N2  UNL     1      21.583  35.157  45.080  1.00  0.00    -0.317 N 
HETATM    2  C5  UNL     1      22.052  36.085  45.933  1.00  0.00     0.185 A 
HETATM    3  N3  UNL     1      21.532  35.908  47.175  1.00  0.00    -0.346 N 
ATOM      4  H3  UNL     1      21.723  36.475  48.001  1.00  0.00     0.167 HD
HETATM    5  C6  UNL     1      20.728  34.859  47.105  1.00  0.00     0.122 A 
HETATM    6  C7  UNL     1      19.940  34.255  48.119  1.00  0.00     0.133 A 
HETATM    7  N7  UNL     1      19.237  33.194  47.688  1.00  0.00    -0.337 N 
ATOM      8  H7  UNL     1      18.646  32.707  48.364  1.00  0.00     0.168 HD
HETATM    9  C24 UNL     1      19.260  32.728  46.419  1.00  0.00     0.183 A 
HETATM   10  N8  UNL     1      20.012  33.316  45.479  1.00  0.00    -0.336 N 
ATOM     11  H8  UNL     1      20.026  32.963  44.522  1.00  0.00     0.168 HD
HETATM   12  C25 UNL     1      20.742  34.379  45.830  1.00  0.00     0.141 A 
ENDROOT
BRANCH   6  13
HETATM   13  N4  UNL     1      19.959  34.731  49.266  1.00  0.00    -0.370 N 
ATOM     14  H4  UNL     1      20.699  34.245  49.773  1.00  0.00     0.161 HD
BRANCH  13  15
HETATM   15  C8  UNL     1      19.411  35.626  50.135  1.00  0.00     0.083 C 
HETATM   16  C9  UNL     1      18.953  34.949  51.445  1.00  0.00     0.027 C 
HETATM   17  C10 UNL     1      19.107  35.873  52.620  1.00  0.00     0.038 C 
HETATM   18  C11 UNL     1      18.739  37.296  52.351  1.00  0.00     0.223 C 
HETATM   19  C22 UNL     1      19.394  37.849  51.091  1.00  0.00     0.038 C 
HETATM   20  C23 UNL     1      20.309  36.793  50.461  1.00  0.00     0.027 C 
BRANCH  18  21
HETATM   21  N5  UNL     1      19.185  38.119  53.458  1.00  0.00     0.096 N 
HETATM   22  C12 UNL     1      19.333  39.508  53.102  1.00  0.00     0.303 C 
HETATM   23  C13 UNL     1      20.133  40.177  54.206  1.00  0.00     0.303 C 
HETATM   24  N6  UNL     1      19.336  40.055  55.438  1.00  0.00     0.096 N 
HETATM   25  C20 UNL     1      19.155  38.686  55.781  1.00  0.00     0.303 C 
HETATM   26  C21 UNL     1      18.392  38.007  54.637  1.00  0.00     0.303 C 
BRANCH  24  27
HETATM   27  C14 UNL     1      19.995  40.839  56.446  1.00  0.00     0.223 C 
HETATM   28  C15 UNL     1      19.248  42.021  56.943  1.00  0.00     0.036 C 
HETATM   29  C16 UNL     1      20.029  43.302  56.618  1.00  0.00     0.002 C 
HETATM   30  C17 UNL     1      21.336  43.214  57.364  1.00  0.00     0.000 C 
HETATM   31  C18 UNL     1      22.078  41.926  57.056  1.00  0.00     0.002 C 
HETATM   32  C19 UNL     1      21.353  41.247  55.915  1.00  0.00     0.036 C 
ENDBRANCH  24  27
ENDBRANCH  18  21
ENDBRANCH  13  15
ENDBRANCH   6  13
BRANCH   1  33
HETATM   33  C4  UNL     1      21.894  35.009  43.671  1.00  0.00     0.152 C 
HETATM   34  C3  UNL     1      22.920  33.965  43.379  1.00  0.00     0.146 C 
HETATM   35  C2  UNL     1      23.475  34.204  41.983  1.00  0.00     0.069 C 
HETATM   36  C1  UNL     1      22.401  34.805  41.094  1.00  0.00     0.217 C 
HETATM   37  C27 UNL     1      22.031  36.202  41.522  1.00  0.00     0.179 C 
HETATM   38  C26 UNL     1      22.168  36.346  43.018  1.00  0.00     0.174 C 
BRANCH  34  39
HETATM   39  O1  UNL     1      23.911  33.822  44.319  1.00  0.00    -0.393 OA
ATOM     40  H1  UNL     1      23.574  33.538  45.159  1.00  0.00     0.210 HD
ENDBRANCH  34  39
BRANCH  36  41
HETATM   41  N1  UNL     1      22.888  34.824  39.720  1.00  0.00    -0.072 N 
ATOM     42  H13 UNL     1      22.424  35.533  39.152  1.00  0.00     0.274 HD
ATOM     43  H12 UNL     1      23.838  35.186  39.648  1.00  0.00     0.274 HD
ATOM     44  H11 UNL     1      22.796  33.887  39.328  1.00  0.00     0.274 HD
ENDBRANCH  36  41
BRANCH  37  45
HETATM   45  O3  UNL     1      20.717  36.525  41.186  1.00  0.00    -0.391 OA
ATOM     46  H3  UNL     1      20.161  35.756  41.132  1.00  0.00     0.210 HD
ENDBRANCH  37  45
BRANCH  38  47
HETATM   47  O2  UNL     1      23.373  36.904  43.341  1.00  0.00    -0.391 OA
ATOM     48  H2  UNL     1      23.523  37.768  42.974  1.00  0.00     0.210 HD
ENDBRANCH  38  47
ENDBRANCH   1  33
TORSDOF 9
ENDMDL
