MODEL 1
REMARK VINA RESULT: -5.552647953      0.000      0.000
REMARK  5 active torsions:
REMARK  status: ('A' for Active; 'I' for Inactive)
REMARK    1  A    between atoms: C6_6  and  O1_7 
REMARK    2  A    between atoms: O1_7  and  C7_8 
REMARK    3  A    between atoms: C7_8  and  C8_9 
REMARK    4  A    between atoms: C8_9  and  N1_10 
REMARK    5  A    between atoms: N2_14  and  N3_16 
ROOT
HETATM    1  C1  UNL     1      13.215  55.896  21.149  1.00  0.00     0.012 C 
HETATM    2  C2  UNL     1      12.743  54.804  21.317  1.00  0.00    -0.112 C 
HETATM    3  C3  UNL     1      12.161  53.480  21.501  1.00  0.00     0.075 C 
HETATM    4  C4  UNL     1      12.986  52.353  20.963  1.00  0.00     0.005 C 
HETATM    5  C5  UNL     1      12.122  51.141  21.193  1.00  0.00     0.039 C 
HETATM    6  C6  UNL     1      10.757  51.748  20.812  1.00  0.00     0.136 C 
HETATM    7  C9  UNL     1      11.204  53.092  20.363  1.00  0.00     0.032 C 
HETATM    8  C10 UNL     1      12.485  52.797  19.580  1.00  0.00     0.014 C 
ENDROOT
BRANCH   6   9
HETATM    9  O1  UNL     1      10.139  50.975  19.806  1.00  0.00    -0.331 OA
BRANCH   9  10
HETATM   10  C7  UNL     1       9.032  51.522  19.178  1.00  0.00     0.158 C 
HETATM   11  N2  UNL     1       9.193  52.318  18.162  1.00  0.00    -0.289 N 
ATOM     12  H2  UNL     1      10.143  52.524  17.851  1.00  0.00     0.188 HD
BRANCH  10  13
HETATM   13  C8  UNL     1       7.640  51.243  19.608  1.00  0.00     0.314 C 
BRANCH  13  14
HETATM   14  N1  UNL     1       7.347  49.843  19.716  1.00  0.00    -0.072 N 
ATOM     15  H13 UNL     1       6.415  49.640  19.356  1.00  0.00     0.274 HD
ATOM     16  H12 UNL     1       7.904  49.304  19.054  1.00  0.00     0.274 HD
ATOM     17  H11 UNL     1       7.456  49.479  20.662  1.00  0.00     0.274 HD
ENDBRANCH  13  14
ENDBRANCH  10  13
BRANCH  11  18
HETATM   18  N3  UNL     1       8.142  52.899  17.487  1.00  0.00    -0.343 N 
ATOM     19  H32 UNL     1       7.711  52.359  16.737  1.00  0.00     0.176 HD
ATOM     20  H31 UNL     1       7.786  53.830  17.704  1.00  0.00     0.176 HD
ENDBRANCH  11  18
ENDBRANCH   9  10
ENDBRANCH   6   9
TORSDOF 5
ENDMDL
MODEL 2
REMARK VINA RESULT: -5.544747962      0.511      1.729
REMARK  5 active torsions:
REMARK  status: ('A' for Active; 'I' for Inactive)
REMARK    1  A    between atoms: C6_6  and  O1_7 
REMARK    2  A    between atoms: O1_7  and  C7_8 
REMARK    3  A    between atoms: C7_8  and  C8_9 
REMARK    4  A    between atoms: C8_9  and  N1_10 
REMARK    5  A    between atoms: N2_14  and  N3_16 
ROOT
HETATM    1  C1  UNL     1      13.204  55.990  21.155  1.00  0.00     0.012 C 
HETATM    2  C2  UNL     1      12.760  54.892  21.351  1.00  0.00    -0.112 C 
HETATM    3  C3  UNL     1      12.213  53.558  21.566  1.00  0.00     0.075 C 
HETATM    4  C4  UNL     1      13.136  52.436  21.204  1.00  0.00     0.005 C 
HETATM    5  C5  UNL     1      12.299  51.204  21.427  1.00  0.00     0.039 C 
HETATM    6  C6  UNL     1      10.962  51.719  20.859  1.00  0.00     0.136 C 
HETATM    7  C9  UNL     1      11.403  53.048  20.364  1.00  0.00     0.032 C 
HETATM    8  C10 UNL     1      12.773  52.761  19.746  1.00  0.00     0.014 C 
ENDROOT
BRANCH   6   9
HETATM    9  O1  UNL     1      10.489  50.852  19.852  1.00  0.00    -0.331 OA
BRANCH   9  10
HETATM   10  C7  UNL     1       9.122  50.819  19.635  1.00  0.00     0.158 C 
HETATM   11  N2  UNL     1       8.458  49.722  19.855  1.00  0.00    -0.289 N 
ATOM     12  H2  UNL     1       8.969  48.903  20.186  1.00  0.00     0.188 HD
BRANCH  10  13
HETATM   13  C8  UNL     1       8.352  51.992  19.153  1.00  0.00     0.314 C 
BRANCH  13  14
HETATM   14  N1  UNL     1       8.815  52.499  17.893  1.00  0.00    -0.072 N 
ATOM     15  H13 UNL     1       8.075  52.457  17.192  1.00  0.00     0.274 HD
ATOM     16  H12 UNL     1       8.948  53.510  17.936  1.00  0.00     0.274 HD
ATOM     17  H11 UNL     1       9.659  52.038  17.557  1.00  0.00     0.274 HD
ENDBRANCH  13  14
ENDBRANCH  10  13
BRANCH  11  18
HETATM   18  N3  UNL     1       7.098  49.613  19.663  1.00  0.00    -0.343 N 
ATOM     19  H32 UNL     1       6.637  48.784  20.036  1.00  0.00     0.176 HD
ATOM     20  H31 UNL     1       6.547  50.316  19.171  1.00  0.00     0.176 HD
ENDBRANCH  11  18
ENDBRANCH   9  10
ENDBRANCH   6   9
TORSDOF 5
ENDMDL
MODEL 3
REMARK VINA RESULT: -4.793923893      1.199      1.245
REMARK  5 active torsions:
REMARK  status: ('A' for Active; 'I' for Inactive)
REMARK    1  A    between atoms: C6_6  and  O1_7 
REMARK    2  A    between atoms: O1_7  and  C7_8 
REMARK    3  A    between atoms: C7_8  and  C8_9 
REMARK    4  A    between atoms: C8_9  and  N1_10 
REMARK    5  A    between atoms: N2_14  and  N3_16 
ROOT
HETATM    1  C1  UNL     1      13.083  55.812  21.182  1.00  0.00     0.012 C 
HETATM    2  C2  UNL     1      12.693  54.691  21.363  1.00  0.00    -0.112 C 
HETATM    3  C3  UNL     1      12.211  53.329  21.562  1.00  0.00     0.075 C 
HETATM    4  C4  UNL     1      13.126  52.260  21.050  1.00  0.00     0.005 C 
HETATM    5  C5  UNL     1      12.354  50.989  21.291  1.00  0.00     0.039 C 
HETATM    6  C6  UNL     1      10.951  51.485  20.888  1.00  0.00     0.136 C 
HETATM    7  C9  UNL     1      11.299  52.852  20.422  1.00  0.00     0.032 C 
HETATM    8  C10 UNL     1      12.607  52.643  19.656  1.00  0.00     0.014 C 
ENDROOT
BRANCH   6   9
HETATM    9  O1  UNL     1      10.404  50.652  19.888  1.00  0.00    -0.331 OA
BRANCH   9  10
HETATM   10  C7  UNL     1       9.033  50.705  19.700  1.00  0.00     0.158 C 
HETATM   11  N2  UNL     1       8.381  51.790  19.999  1.00  0.00    -0.289 N 
ATOM     12  H2  UNL     1       8.903  52.584  20.370  1.00  0.00     0.188 HD
BRANCH  10  13
HETATM   13  C8  UNL     1       8.247  49.567  19.162  1.00  0.00     0.314 C 
BRANCH  13  14
HETATM   14  N1  UNL     1       8.174  49.551  17.730  1.00  0.00    -0.072 N 
ATOM     15  H13 UNL     1       8.238  50.496  17.353  1.00  0.00     0.274 HD
ATOM     16  H12 UNL     1       9.024  49.153  17.328  1.00  0.00     0.274 HD
ATOM     17  H11 UNL     1       7.348  49.074  17.372  1.00  0.00     0.274 HD
ENDBRANCH  13  14
ENDBRANCH  10  13
BRANCH  11  18
HETATM   18  N3  UNL     1       7.018  51.918  19.838  1.00  0.00    -0.343 N 
ATOM     19  H32 UNL     1       6.448  51.086  19.991  1.00  0.00     0.176 HD
ATOM     20  H31 UNL     1       6.568  52.795  19.577  1.00  0.00     0.176 HD
ENDBRANCH  11  18
ENDBRANCH   9  10
ENDBRANCH   6   9
TORSDOF 5
ENDMDL
MODEL 4
REMARK VINA RESULT: -4.510219487      2.242      3.437
REMARK  5 active torsions:
REMARK  status: ('A' for Active; 'I' for Inactive)
REMARK    1  A    between atoms: C6_6  and  O1_7 
REMARK    2  A    between atoms: O1_7  and  C7_8 
REMARK    3  A    between atoms: C7_8  and  C8_9 
REMARK    4  A    between atoms: C8_9  and  N1_10 
REMARK    5  A    between atoms: N2_14  and  N3_16 
ROOT
HETATM    1  C1  UNL     1      13.357  49.751  22.303  1.00  0.00     0.012 C 
HETATM    2  C2  UNL     1      13.117  50.812  21.793  1.00  0.00    -0.112 C 
HETATM    3  C3  UNL     1      12.818  52.088  21.155  1.00  0.00     0.075 C 
HETATM    4  C4  UNL     1      11.437  52.607  21.411  1.00  0.00     0.005 C 
HETATM    5  C5  UNL     1      11.368  53.857  20.573  1.00  0.00     0.039 C 
HETATM    6  C6  UNL     1      12.106  53.343  19.321  1.00  0.00     0.136 C 
HETATM    7  C9  UNL     1      12.301  51.925  19.717  1.00  0.00     0.032 C 
HETATM    8  C10 UNL     1      10.976  51.558  20.388  1.00  0.00     0.014 C 
ENDROOT
BRANCH   6   9
HETATM    9  O1  UNL     1      11.306  53.520  18.172  1.00  0.00    -0.331 OA
BRANCH   9  10
HETATM   10  C7  UNL     1      10.365  54.536  18.206  1.00  0.00     0.158 C 
HETATM   11  N2  UNL     1      10.754  55.776  18.246  1.00  0.00    -0.289 N 
ATOM     12  H2  UNL     1      11.756  55.972  18.253  1.00  0.00     0.188 HD
BRANCH  10  13
HETATM   13  C8  UNL     1       8.903  54.283  18.198  1.00  0.00     0.314 C 
BRANCH  13  14
HETATM   14  N1  UNL     1       8.565  52.900  18.020  1.00  0.00    -0.072 N 
ATOM     15  H13 UNL     1       8.785  52.363  18.859  1.00  0.00     0.274 HD
ATOM     16  H12 UNL     1       7.554  52.774  17.999  1.00  0.00     0.274 HD
ATOM     17  H11 UNL     1       8.999  52.480  17.199  1.00  0.00     0.274 HD
ENDBRANCH  13  14
ENDBRANCH  10  13
BRANCH  11  18
HETATM   18  N3  UNL     1       9.878  56.839  18.281  1.00  0.00    -0.343 N 
ATOM     19  H32 UNL     1       9.451  57.124  17.400  1.00  0.00     0.176 HD
ATOM     20  H31 UNL     1       9.644  57.341  19.138  1.00  0.00     0.176 HD
ENDBRANCH  11  18
ENDBRANCH   9  10
ENDBRANCH   6   9
TORSDOF 5
ENDMDL
MODEL 5
REMARK VINA RESULT: -4.275916454      1.665      2.864
REMARK  5 active torsions:
REMARK  status: ('A' for Active; 'I' for Inactive)
REMARK    1  A    between atoms: C6_6  and  O1_7 
REMARK    2  A    between atoms: O1_7  and  C7_8 
REMARK    3  A    between atoms: C7_8  and  C8_9 
REMARK    4  A    between atoms: C8_9  and  N1_10 
REMARK    5  A    between atoms: N2_14  and  N3_16 
ROOT
HETATM    1  C1  UNL     1      13.354  49.813  22.251  1.00  0.00     0.012 C 
HETATM    2  C2  UNL     1      13.074  50.670  21.457  1.00  0.00    -0.112 C 
HETATM    3  C3  UNL     1      12.712  51.706  20.497  1.00  0.00     0.075 C 
HETATM    4  C4  UNL     1      12.472  53.058  21.095  1.00  0.00     0.005 C 
HETATM    5  C5  UNL     1      12.028  53.890  19.922  1.00  0.00     0.039 C 
HETATM    6  C6  UNL     1      11.129  52.852  19.222  1.00  0.00     0.136 C 
HETATM    7  C9  UNL     1      11.201  51.754  20.220  1.00  0.00     0.032 C 
HETATM    8  C10 UNL     1      11.124  52.487  21.561  1.00  0.00     0.014 C 
ENDROOT
BRANCH   6   9
HETATM    9  O1  UNL     1       9.834  53.376  19.028  1.00  0.00    -0.331 OA
BRANCH   9  10
HETATM   10  C7  UNL     1       8.795  52.467  18.900  1.00  0.00     0.158 C 
HETATM   11  N2  UNL     1       8.146  52.076  19.957  1.00  0.00    -0.289 N 
ATOM     12  H2  UNL     1       8.421  52.453  20.864  1.00  0.00     0.188 HD
BRANCH  10  13
HETATM   13  C8  UNL     1       8.373  51.902  17.596  1.00  0.00     0.314 C 
BRANCH  13  14
HETATM   14  N1  UNL     1       8.515  50.476  17.519  1.00  0.00    -0.072 N 
ATOM     15  H13 UNL     1       8.392  50.151  16.561  1.00  0.00     0.274 HD
ATOM     16  H12 UNL     1       9.486  50.201  17.667  1.00  0.00     0.274 HD
ATOM     17  H11 UNL     1       7.896  49.973  18.154  1.00  0.00     0.274 HD
ENDBRANCH  13  14
ENDBRANCH  10  13
BRANCH  11  18
HETATM   18  N3  UNL     1       7.103  51.177  19.909  1.00  0.00    -0.343 N 
ATOM     19  H32 UNL     1       6.396  51.316  19.187  1.00  0.00     0.176 HD
ATOM     20  H31 UNL     1       7.013  50.394  20.556  1.00  0.00     0.176 HD
ENDBRANCH  11  18
ENDBRANCH   9  10
ENDBRANCH   6   9
TORSDOF 5
ENDMDL
