MODEL 1
REMARK VINA RESULT: -6.611062209      0.000      0.000
REMARK  3 active torsions:
REMARK  status: ('A' for Active; 'I' for Inactive)
REMARK    1  A    between atoms: C2_3  and  C3_4 
REMARK    2  A    between atoms: C2_3  and  C4_7 
REMARK    3  A    between atoms: C3_4  and  O1_5 
ROOT
HETATM    1  N1  UNL     1      34.116  38.325  -6.040  1.00  0.00    -0.196 NA
HETATM    2  C1  UNL     1      34.661  39.366  -6.028  1.00  0.00     0.072 C 
HETATM    3  C2  UNL     1      35.336  40.639  -6.009  1.00  0.00     0.161 C 
ENDROOT
BRANCH   3   4
HETATM    4  C3  UNL     1      34.300  41.701  -6.395  1.00  0.00     0.189 C 
BRANCH   4   5
HETATM    5  O1  UNL     1      34.696  42.955  -5.989  1.00  0.00    -0.399 OA
ATOM      6  H1  UNL     1      34.805  43.539  -6.730  1.00  0.00     0.209 HD
ENDBRANCH   4   5
ENDBRANCH   3   4
BRANCH   3   7
HETATM    7  C4  UNL     1      35.861  40.917  -4.626  1.00  0.00     0.003 C 
HETATM    8  N2  UNL     1      35.196  41.457  -3.680  1.00  0.00    -0.386 N 
HETATM    9  C5  UNL     1      35.956  41.593  -2.477  1.00  0.00     0.030 C 
ATOM     10  H2  UNL     1      34.226  41.760  -3.772  1.00  0.00     0.160 HD
HETATM   11  C6  UNL     1      35.168  41.397  -1.226  1.00  0.00     0.031 C 
HETATM   12  C9  UNL     1      36.616  42.911  -2.299  1.00  0.00     0.031 C 
HETATM   13  C10 UNL     1      37.015  40.491  -2.650  1.00  0.00     0.036 C 
HETATM   14  C7  UNL     1      36.165  41.864  -0.158  1.00  0.00     0.002 C 
HETATM   15  C8  UNL     1      36.950  42.948  -0.822  1.00  0.00     0.002 C 
HETATM   16  C11 UNL     1      37.231  40.620  -4.138  1.00  0.00     0.056 C 
ENDBRANCH   3   7
TORSDOF 3
ENDMDL
MODEL 2
REMARK VINA RESULT: -6.064233734      2.741      4.640
REMARK  3 active torsions:
REMARK  status: ('A' for Active; 'I' for Inactive)
REMARK    1  A    between atoms: C2_3  and  C3_4 
REMARK    2  A    between atoms: C2_3  and  C4_7 
REMARK    3  A    between atoms: C3_4  and  O1_5 
ROOT
HETATM    1  N1  UNL     1      37.478  43.486  -2.579  1.00  0.00    -0.196 NA
HETATM    2  C1  UNL     1      36.820  42.612  -3.008  1.00  0.00     0.072 C 
HETATM    3  C2  UNL     1      36.015  41.536  -3.528  1.00  0.00     0.161 C 
ENDROOT
BRANCH   3   4
HETATM    4  C3  UNL     1      35.787  41.826  -5.016  1.00  0.00     0.189 C 
BRANCH   4   5
HETATM    5  O1  UNL     1      36.909  42.368  -5.598  1.00  0.00    -0.399 OA
ATOM      6  H1  UNL     1      37.607  41.727  -5.667  1.00  0.00     0.209 HD
ENDBRANCH   4   5
ENDBRANCH   3   4
BRANCH   3   7
HETATM    7  C4  UNL     1      36.747  40.230  -3.370  1.00  0.00     0.003 C 
HETATM    8  N2  UNL     1      37.945  40.006  -3.747  1.00  0.00    -0.386 N 
HETATM    9  C5  UNL     1      38.374  38.672  -3.463  1.00  0.00     0.030 C 
ATOM     10  H2  UNL     1      38.534  40.704  -4.201  1.00  0.00     0.160 HD
HETATM   11  C6  UNL     1      39.811  38.557  -3.076  1.00  0.00     0.031 C 
HETATM   12  C9  UNL     1      38.212  37.711  -4.582  1.00  0.00     0.031 C 
HETATM   13  C10 UNL     1      37.448  38.287  -2.297  1.00  0.00     0.036 C 
HETATM   14  C7  UNL     1      40.017  37.037  -3.109  1.00  0.00     0.002 C 
HETATM   15  C8  UNL     1      39.114  36.556  -4.198  1.00  0.00     0.002 C 
HETATM   16  C11 UNL     1      36.198  38.992  -2.762  1.00  0.00     0.056 C 
ENDBRANCH   3   7
TORSDOF 3
ENDMDL
MODEL 3
REMARK VINA RESULT: -6.012281986      4.634      8.001
REMARK  3 active torsions:
REMARK  status: ('A' for Active; 'I' for Inactive)
REMARK    1  A    between atoms: C2_3  and  C3_4 
REMARK    2  A    between atoms: C2_3  and  C4_7 
REMARK    3  A    between atoms: C3_4  and  O1_5 
ROOT
HETATM    1  N1  UNL     1      34.790  38.768  -8.426  1.00  0.00    -0.196 NA
HETATM    2  C1  UNL     1      34.154  39.726  -8.186  1.00  0.00     0.072 C 
HETATM    3  C2  UNL     1      33.370  40.900  -7.896  1.00  0.00     0.161 C 
ENDROOT
BRANCH   3   4
HETATM    4  C3  UNL     1      34.267  41.853  -7.098  1.00  0.00     0.189 C 
BRANCH   4   5
HETATM    5  O1  UNL     1      35.558  41.842  -7.574  1.00  0.00    -0.399 OA
ATOM      6  H1  UNL     1      36.162  42.211  -6.942  1.00  0.00     0.209 HD
ENDBRANCH   4   5
ENDBRANCH   3   4
BRANCH   3   7
HETATM    7  C4  UNL     1      32.944  41.558  -9.182  1.00  0.00     0.003 C 
HETATM    8  N2  UNL     1      33.270  42.735  -9.550  1.00  0.00    -0.386 N 
HETATM    9  C5  UNL     1      32.717  43.090 -10.820  1.00  0.00     0.030 C 
ATOM     10  H2  UNL     1      33.861  43.357  -8.998  1.00  0.00     0.160 HD
HETATM   11  C6  UNL     1      33.608  43.940 -11.663  1.00  0.00     0.031 C 
HETATM   12  C9  UNL     1      31.438  43.839 -10.759  1.00  0.00     0.031 C 
HETATM   13  C10 UNL     1      32.492  41.709 -11.460  1.00  0.00     0.036 C 
HETATM   14  C7  UNL     1      32.656  44.359 -12.790  1.00  0.00     0.002 C 
HETATM   15  C8  UNL     1      31.316  44.456 -12.137  1.00  0.00     0.002 C 
HETATM   16  C11 UNL     1      32.073  40.955 -10.222  1.00  0.00     0.056 C 
ENDBRANCH   3   7
TORSDOF 3
ENDMDL
MODEL 4
REMARK VINA RESULT: -6.000238823      1.726      1.956
REMARK  3 active torsions:
REMARK  status: ('A' for Active; 'I' for Inactive)
REMARK    1  A    between atoms: C2_3  and  C3_4 
REMARK    2  A    between atoms: C2_3  and  C4_7 
REMARK    3  A    between atoms: C3_4  and  O1_5 
ROOT
HETATM    1  N1  UNL     1      35.102  41.877  -7.591  1.00  0.00    -0.196 NA
HETATM    2  C1  UNL     1      35.011  41.069  -6.743  1.00  0.00     0.072 C 
HETATM    3  C2  UNL     1      34.898  40.082  -5.699  1.00  0.00     0.161 C 
ENDROOT
BRANCH   3   4
HETATM    4  C3  UNL     1      35.554  38.799  -6.222  1.00  0.00     0.189 C 
BRANCH   4   5
HETATM    5  O1  UNL     1      35.288  38.610  -7.559  1.00  0.00    -0.399 OA
ATOM      6  H1  UNL     1      36.067  38.343  -8.032  1.00  0.00     0.209 HD
ENDBRANCH   4   5
ENDBRANCH   3   4
BRANCH   3   7
HETATM    7  C4  UNL     1      35.622  40.559  -4.468  1.00  0.00     0.003 C 
HETATM    8  N2  UNL     1      35.134  41.337  -3.581  1.00  0.00    -0.386 N 
HETATM    9  C5  UNL     1      36.055  41.615  -2.524  1.00  0.00     0.030 C 
ATOM     10  H2  UNL     1      34.189  41.718  -3.622  1.00  0.00     0.160 HD
HETATM   11  C6  UNL     1      35.425  41.745  -1.177  1.00  0.00     0.031 C 
HETATM   12  C9  UNL     1      36.838  42.865  -2.689  1.00  0.00     0.031 C 
HETATM   13  C10 UNL     1      36.987  40.394  -2.590  1.00  0.00     0.036 C 
HETATM   14  C7  UNL     1      36.588  42.296  -0.344  1.00  0.00     0.002 C 
HETATM   15  C8  UNL     1      37.366  43.145  -1.297  1.00  0.00     0.002 C 
HETATM   16  C11 UNL     1      37.015  40.215  -4.088  1.00  0.00     0.056 C 
ENDBRANCH   3   7
TORSDOF 3
ENDMDL
MODEL 5
REMARK VINA RESULT: -5.984428655      2.706      4.250
REMARK  3 active torsions:
REMARK  status: ('A' for Active; 'I' for Inactive)
REMARK    1  A    between atoms: C2_3  and  C3_4 
REMARK    2  A    between atoms: C2_3  and  C4_7 
REMARK    3  A    between atoms: C3_4  and  O1_5 
ROOT
HETATM    1  N1  UNL     1      37.380  43.342  -2.647  1.00  0.00    -0.196 NA
HETATM    2  C1  UNL     1      36.722  42.485  -3.107  1.00  0.00     0.072 C 
HETATM    3  C2  UNL     1      35.915  41.429  -3.665  1.00  0.00     0.161 C 
ENDROOT
BRANCH   3   4
HETATM    4  C3  UNL     1      35.753  41.731  -5.160  1.00  0.00     0.189 C 
BRANCH   4   5
HETATM    5  O1  UNL     1      36.878  42.335  -5.673  1.00  0.00    -0.399 OA
ATOM      6  H1  UNL     1      37.540  42.457  -5.004  1.00  0.00     0.209 HD
ENDBRANCH   4   5
ENDBRANCH   3   4
BRANCH   3   7
HETATM    7  C4  UNL     1      36.612  40.107  -3.486  1.00  0.00     0.003 C 
HETATM    8  N2  UNL     1      37.199  39.721  -2.420  1.00  0.00    -0.386 N 
HETATM    9  C5  UNL     1      37.770  38.417  -2.544  1.00  0.00     0.030 C 
ATOM     10  H2  UNL     1      37.253  40.283  -1.570  1.00  0.00     0.160 HD
HETATM   11  C6  UNL     1      37.701  37.593  -1.302  1.00  0.00     0.031 C 
HETATM   12  C9  UNL     1      39.204  38.396  -2.925  1.00  0.00     0.031 C 
HETATM   13  C10 UNL     1      36.916  37.807  -3.668  1.00  0.00     0.036 C 
HETATM   14  C7  UNL     1      38.607  36.411  -1.665  1.00  0.00     0.002 C 
HETATM   15  C8  UNL     1      39.654  36.996  -2.556  1.00  0.00     0.002 C 
HETATM   16  C11 UNL     1      36.742  39.044  -4.514  1.00  0.00     0.056 C 
ENDBRANCH   3   7
TORSDOF 3
ENDMDL
