MODEL 1
REMARK VINA RESULT: -8.253402495      0.000      0.000
REMARK  9 active torsions:
REMARK  status: ('A' for Active; 'I' for Inactive)
REMARK    1  A    between atoms: C2_2  and  C3_3 
REMARK    2  A    between atoms: C3_3  and  C4_4 
REMARK       I    between atoms: C4_4  and  N1_6 
REMARK    3  A    between atoms: N1_6  and  C5_8 
REMARK    4  A    between atoms: N2_18  and  C12_19 
REMARK    5  A    between atoms: C12_19  and  C13_20 
REMARK    6  A    between atoms: C13_20  and  C14_21 
REMARK    7  A    between atoms: C14_21  and  C15_22 
REMARK    8  A    between atoms: C15_22  and  C16_23 
REMARK    9  A    between atoms: C16_23  and  N3_24 
ROOT
HETATM    1  C5  UNL     1      49.800  30.476  35.425  1.00  0.00     0.058 A 
HETATM    2  C6  UNL     1      50.595  29.628  34.725  1.00  0.00     0.062 A 
HETATM    3  C7  UNL     1      51.528  28.772  35.343  1.00  0.00     0.057 A 
HETATM    4  C8  UNL     1      51.567  28.862  36.683  1.00  0.00     0.038 A 
HETATM    5  C9  UNL     1      50.775  29.711  37.431  1.00  0.00     0.047 A 
HETATM    6  C10 UNL     1      49.865  30.545  36.819  1.00  0.00     0.062 A 
HETATM    7 CL1  UNL     1      48.842  31.633  37.694  1.00  0.00    -0.082 Cl
HETATM    8  S1  UNL     1      52.772  27.719  37.112  1.00  0.00    -0.027 SA
HETATM    9  C11 UNL     1      53.143  27.200  35.501  1.00  0.00     0.291 A 
HETATM   10  O2  UNL     1      54.015  26.315  35.271  1.00  0.00    -0.259 OA
HETATM   11  N2  UNL     1      52.343  27.914  34.739  1.00  0.00    -0.307 N 
ENDROOT
BRANCH  11  12
HETATM   12  C12 UNL     1      52.360  27.692  33.277  1.00  0.00     0.133 C 
BRANCH  12  13
HETATM   13  C13 UNL     1      51.633  26.502  32.821  1.00  0.00     0.021 C 
BRANCH  13  14
HETATM   14  C14 UNL     1      50.726  26.526  31.669  1.00  0.00     0.007 C 
BRANCH  14  15
HETATM   15  C15 UNL     1      49.425  25.808  31.789  1.00  0.00     0.044 C 
BRANCH  15  16
HETATM   16  C16 UNL     1      48.589  25.853  30.564  1.00  0.00     0.063 C 
BRANCH  16  17
HETATM   17  N3  UNL     1      47.387  25.142  30.521  1.00  0.00    -0.373 N 
HETATM   18  C17 UNL     1      46.843  24.577  31.687  1.00  0.00     0.063 C 
HETATM   19  C18 UNL     1      45.614  25.219  32.220  1.00  0.00     0.045 C 
HETATM   20  C19 UNL     1      45.359  26.598  31.680  1.00  0.00     0.011 C 
HETATM   21  C20 UNL     1      45.498  26.685  30.188  1.00  0.00     0.000 C 
HETATM   22  C21 UNL     1      44.129  26.618  29.541  1.00  0.00     0.011 C 
HETATM   23  C22 UNL     1      46.413  25.652  29.605  1.00  0.00     0.131 C 
ENDBRANCH  16  17
ENDBRANCH  15  16
ENDBRANCH  14  15
ENDBRANCH  13  14
ENDBRANCH  12  13
ENDBRANCH  11  12
BRANCH   1  24
HETATM   24  N1  UNL     1      48.860  31.338  34.810  1.00  0.00    -0.326 N 
HETATM   25  C4  UNL     1      47.832  31.063  33.914  1.00  0.00     0.222 C 
HETATM   26  O1  UNL     1      47.583  29.922  33.497  1.00  0.00    -0.273 OA
ATOM     27  H1  UNL     1      48.952  32.321  35.066  1.00  0.00     0.169 HD
BRANCH  25  28
HETATM   28  C3  UNL     1      46.933  32.143  33.373  1.00  0.00     0.103 C 
BRANCH  28  29
HETATM   29  C2  UNL     1      46.395  31.803  32.028  1.00  0.00     0.005 C 
HETATM   30  C1  UNL     1      46.807  32.889  31.056  1.00  0.00     0.005 C 
ENDBRANCH  28  29
ENDBRANCH  25  28
ENDBRANCH   1  24
TORSDOF 9
ENDMDL
MODEL 2
REMARK VINA RESULT: -7.934304159      1.128      1.558
REMARK  9 active torsions:
REMARK  status: ('A' for Active; 'I' for Inactive)
REMARK    1  A    between atoms: C2_2  and  C3_3 
REMARK    2  A    between atoms: C3_3  and  C4_4 
REMARK       I    between atoms: C4_4  and  N1_6 
REMARK    3  A    between atoms: N1_6  and  C5_8 
REMARK    4  A    between atoms: N2_18  and  C12_19 
REMARK    5  A    between atoms: C12_19  and  C13_20 
REMARK    6  A    between atoms: C13_20  and  C14_21 
REMARK    7  A    between atoms: C14_21  and  C15_22 
REMARK    8  A    between atoms: C15_22  and  C16_23 
REMARK    9  A    between atoms: C16_23  and  N3_24 
ROOT
HETATM    1  C5  UNL     1      49.950  30.568  35.584  1.00  0.00     0.058 A 
HETATM    2  C6  UNL     1      50.888  29.756  35.034  1.00  0.00     0.062 A 
HETATM    3  C7  UNL     1      51.735  28.937  35.805  1.00  0.00     0.057 A 
HETATM    4  C8  UNL     1      51.541  29.025  37.132  1.00  0.00     0.038 A 
HETATM    5  C9  UNL     1      50.599  29.839  37.730  1.00  0.00     0.047 A 
HETATM    6  C10 UNL     1      49.774  30.637  36.969  1.00  0.00     0.062 A 
HETATM    7 CL1  UNL     1      48.574  31.680  37.651  1.00  0.00    -0.082 Cl
HETATM    8  S1  UNL     1      52.701  27.931  37.766  1.00  0.00    -0.027 SA
HETATM    9  C11 UNL     1      53.362  27.432  36.244  1.00  0.00     0.291 A 
HETATM   10  O2  UNL     1      54.297  26.584  36.170  1.00  0.00    -0.259 OA
HETATM   11  N2  UNL     1      52.676  28.115  35.354  1.00  0.00    -0.307 N 
ENDROOT
BRANCH  11  12
HETATM   12  C12 UNL     1      52.951  27.897  33.917  1.00  0.00     0.133 C 
BRANCH  12  13
HETATM   13  C13 UNL     1      52.330  26.699  33.339  1.00  0.00     0.021 C 
BRANCH  13  14
HETATM   14  C14 UNL     1      51.597  26.726  32.070  1.00  0.00     0.007 C 
BRANCH  14  15
HETATM   15  C15 UNL     1      50.313  25.974  31.987  1.00  0.00     0.044 C 
BRANCH  15  16
HETATM   16  C16 UNL     1      49.127  26.738  32.449  1.00  0.00     0.063 C 
BRANCH  16  17
HETATM   17  N3  UNL     1      47.951  26.709  31.697  1.00  0.00    -0.373 N 
HETATM   18  C17 UNL     1      47.953  26.230  30.375  1.00  0.00     0.063 C 
HETATM   19  C18 UNL     1      47.284  24.923  30.145  1.00  0.00     0.045 C 
HETATM   20  C19 UNL     1      47.058  24.122  31.396  1.00  0.00     0.011 C 
HETATM   21  C20 UNL     1      46.462  24.927  32.516  1.00  0.00     0.000 C 
HETATM   22  C21 UNL     1      44.967  24.690  32.577  1.00  0.00     0.011 C 
HETATM   23  C22 UNL     1      46.767  26.391  32.435  1.00  0.00     0.131 C 
ENDBRANCH  16  17
ENDBRANCH  15  16
ENDBRANCH  14  15
ENDBRANCH  13  14
ENDBRANCH  12  13
ENDBRANCH  11  12
BRANCH   1  24
HETATM   24  N1  UNL     1      49.095  31.393  34.814  1.00  0.00    -0.326 N 
HETATM   25  C4  UNL     1      48.066  31.060  33.938  1.00  0.00     0.222 C 
HETATM   26  O1  UNL     1      47.735  29.891  33.695  1.00  0.00    -0.273 OA
ATOM     27  H1  UNL     1      49.260  32.394  34.918  1.00  0.00     0.169 HD
BRANCH  25  28
HETATM   28  C3  UNL     1      47.268  32.108  33.210  1.00  0.00     0.103 C 
BRANCH  28  29
HETATM   29  C2  UNL     1      46.371  31.514  32.180  1.00  0.00     0.005 C 
HETATM   30  C1  UNL     1      46.315  32.452  30.993  1.00  0.00     0.005 C 
ENDBRANCH  28  29
ENDBRANCH  25  28
ENDBRANCH   1  24
TORSDOF 9
ENDMDL
MODEL 3
REMARK VINA RESULT: -7.933947880      2.322      4.977
REMARK  9 active torsions:
REMARK  status: ('A' for Active; 'I' for Inactive)
REMARK    1  A    between atoms: C2_2  and  C3_3 
REMARK    2  A    between atoms: C3_3  and  C4_4 
REMARK       I    between atoms: C4_4  and  N1_6 
REMARK    3  A    between atoms: N1_6  and  C5_8 
REMARK    4  A    between atoms: N2_18  and  C12_19 
REMARK    5  A    between atoms: C12_19  and  C13_20 
REMARK    6  A    between atoms: C13_20  and  C14_21 
REMARK    7  A    between atoms: C14_21  and  C15_22 
REMARK    8  A    between atoms: C15_22  and  C16_23 
REMARK    9  A    between atoms: C16_23  and  N3_24 
ROOT
HETATM    1  C5  UNL     1      51.433  28.852  35.712  1.00  0.00     0.058 A 
HETATM    2  C6  UNL     1      50.490  29.801  35.485  1.00  0.00     0.062 A 
HETATM    3  C7  UNL     1      49.859  30.513  36.523  1.00  0.00     0.057 A 
HETATM    4  C8  UNL     1      50.265  30.177  37.759  1.00  0.00     0.038 A 
HETATM    5  C9  UNL     1      51.220  29.217  38.032  1.00  0.00     0.047 A 
HETATM    6  C10 UNL     1      51.833  28.525  37.011  1.00  0.00     0.062 A 
HETATM    7 CL1  UNL     1      53.036  27.310  37.279  1.00  0.00    -0.082 Cl
HETATM    8  S1  UNL     1      49.328  31.201  38.766  1.00  0.00    -0.027 SA
HETATM    9  C11 UNL     1      48.466  32.003  37.496  1.00  0.00     0.291 A 
HETATM   10  O2  UNL     1      47.610  32.901  37.735  1.00  0.00    -0.259 OA
HETATM   11  N2  UNL     1      48.931  31.455  36.394  1.00  0.00    -0.307 N 
ENDROOT
BRANCH  11  12
HETATM   12  C12 UNL     1      48.438  31.943  35.088  1.00  0.00     0.133 C 
BRANCH  12  13
HETATM   13  C13 UNL     1      47.194  31.320  34.620  1.00  0.00     0.021 C 
BRANCH  13  14
HETATM   14  C14 UNL     1      47.109  30.584  33.355  1.00  0.00     0.007 C 
BRANCH  14  15
HETATM   15  C15 UNL     1      46.960  29.102  33.416  1.00  0.00     0.044 C 
BRANCH  15  16
HETATM   16  C16 UNL     1      46.043  28.539  32.394  1.00  0.00     0.063 C 
BRANCH  16  17
HETATM   17  N3  UNL     1      45.895  27.154  32.287  1.00  0.00    -0.373 N 
HETATM   18  C17 UNL     1      44.881  26.598  31.487  1.00  0.00     0.063 C 
HETATM   19  C18 UNL     1      45.320  25.928  30.236  1.00  0.00     0.045 C 
HETATM   20  C19 UNL     1      46.716  26.281  29.809  1.00  0.00     0.011 C 
HETATM   21  C20 UNL     1      47.715  26.206  30.927  1.00  0.00     0.000 C 
HETATM   22  C21 UNL     1      48.461  24.889  30.860  1.00  0.00     0.011 C 
HETATM   23  C22 UNL     1      47.117  26.412  32.285  1.00  0.00     0.131 C 
ENDBRANCH  16  17
ENDBRANCH  15  16
ENDBRANCH  14  15
ENDBRANCH  13  14
ENDBRANCH  12  13
ENDBRANCH  11  12
BRANCH   1  24
HETATM   24  N1  UNL     1      52.071  28.133  34.673  1.00  0.00    -0.326 N 
HETATM   25  C4  UNL     1      51.535  27.415  33.608  1.00  0.00     0.222 C 
HETATM   26  O1  UNL     1      50.316  27.300  33.414  1.00  0.00    -0.273 OA
ATOM     27  H1  UNL     1      53.090  28.142  34.711  1.00  0.00     0.169 HD
BRANCH  25  28
HETATM   28  C3  UNL     1      52.405  26.713  32.599  1.00  0.00     0.103 C 
BRANCH  28  29
HETATM   29  C2  UNL     1      52.229  27.265  31.228  1.00  0.00     0.005 C 
HETATM   30  C1  UNL     1      53.486  28.018  30.847  1.00  0.00     0.005 C 
ENDBRANCH  28  29
ENDBRANCH  25  28
ENDBRANCH   1  24
TORSDOF 9
ENDMDL
MODEL 4
REMARK VINA RESULT: -7.925378027      3.527      8.255
REMARK  9 active torsions:
REMARK  status: ('A' for Active; 'I' for Inactive)
REMARK    1  A    between atoms: C2_2  and  C3_3 
REMARK    2  A    between atoms: C3_3  and  C4_4 
REMARK       I    between atoms: C4_4  and  N1_6 
REMARK    3  A    between atoms: N1_6  and  C5_8 
REMARK    4  A    between atoms: N2_18  and  C12_19 
REMARK    5  A    between atoms: C12_19  and  C13_20 
REMARK    6  A    between atoms: C13_20  and  C14_21 
REMARK    7  A    between atoms: C14_21  and  C15_22 
REMARK    8  A    between atoms: C15_22  and  C16_23 
REMARK    9  A    between atoms: C16_23  and  N3_24 
ROOT
HETATM    1  C5  UNL     1      46.094  26.339  29.753  1.00  0.00     0.058 A 
HETATM    2  C6  UNL     1      46.338  26.993  30.917  1.00  0.00     0.062 A 
HETATM    3  C7  UNL     1      47.585  26.948  31.570  1.00  0.00     0.057 A 
HETATM    4  C8  UNL     1      48.515  26.204  30.948  1.00  0.00     0.038 A 
HETATM    5  C9  UNL     1      48.307  25.523  29.764  1.00  0.00     0.047 A 
HETATM    6  C10 UNL     1      47.084  25.572  29.132  1.00  0.00     0.062 A 
HETATM    7 CL1  UNL     1      46.753  24.745  27.649  1.00  0.00    -0.082 Cl
HETATM    8  S1  UNL     1      49.881  26.355  31.975  1.00  0.00    -0.027 SA
HETATM    9  C11 UNL     1      49.138  27.386  33.152  1.00  0.00     0.291 A 
HETATM   10  O2  UNL     1      49.768  27.806  34.164  1.00  0.00    -0.259 OA
HETATM   11  N2  UNL     1      47.912  27.554  32.706  1.00  0.00    -0.307 N 
ENDROOT
BRANCH  11  12
HETATM   12  C12 UNL     1      46.991  28.435  33.457  1.00  0.00     0.133 C 
BRANCH  12  13
HETATM   13  C13 UNL     1      46.942  29.826  32.990  1.00  0.00     0.021 C 
BRANCH  13  14
HETATM   14  C14 UNL     1      47.173  30.965  33.883  1.00  0.00     0.007 C 
BRANCH  14  15
HETATM   15  C15 UNL     1      48.499  31.069  34.556  1.00  0.00     0.044 C 
BRANCH  15  16
HETATM   16  C16 UNL     1      48.423  31.310  36.018  1.00  0.00     0.063 C 
BRANCH  16  17
HETATM   17  N3  UNL     1      49.585  31.624  36.728  1.00  0.00    -0.373 N 
HETATM   18  C17 UNL     1      49.584  32.641  37.698  1.00  0.00     0.063 C 
HETATM   19  C18 UNL     1      49.695  32.204  39.113  1.00  0.00     0.045 C 
HETATM   20  C19 UNL     1      49.395  30.749  39.331  1.00  0.00     0.011 C 
HETATM   21  C20 UNL     1      50.093  29.846  38.354  1.00  0.00     0.000 C 
HETATM   22  C21 UNL     1      51.340  29.269  38.992  1.00  0.00     0.011 C 
HETATM   23  C22 UNL     1      50.419  30.507  37.049  1.00  0.00     0.131 C 
ENDBRANCH  16  17
ENDBRANCH  15  16
ENDBRANCH  14  15
ENDBRANCH  13  14
ENDBRANCH  12  13
ENDBRANCH  11  12
BRANCH   1  24
HETATM   24  N1  UNL     1      44.844  26.380  29.091  1.00  0.00    -0.326 N 
HETATM   25  C4  UNL     1      44.392  27.201  28.062  1.00  0.00     0.222 C 
HETATM   26  O1  UNL     1      45.090  28.086  27.545  1.00  0.00    -0.273 OA
ATOM     27  H1  UNL     1      44.162  25.697  29.422  1.00  0.00     0.169 HD
BRANCH  25  28
HETATM   28  C3  UNL     1      43.004  27.078  27.493  1.00  0.00     0.103 C 
BRANCH  28  29
HETATM   29  C2  UNL     1      42.718  25.700  27.007  1.00  0.00     0.005 C 
HETATM   30  C1  UNL     1      43.512  25.463  25.740  1.00  0.00     0.005 C 
ENDBRANCH  28  29
ENDBRANCH  25  28
ENDBRANCH   1  24
TORSDOF 9
ENDMDL
MODEL 5
REMARK VINA RESULT: -7.893676922      2.319      4.843
REMARK  9 active torsions:
REMARK  status: ('A' for Active; 'I' for Inactive)
REMARK    1  A    between atoms: C2_2  and  C3_3 
REMARK    2  A    between atoms: C3_3  and  C4_4 
REMARK       I    between atoms: C4_4  and  N1_6 
REMARK    3  A    between atoms: N1_6  and  C5_8 
REMARK    4  A    between atoms: N2_18  and  C12_19 
REMARK    5  A    between atoms: C12_19  and  C13_20 
REMARK    6  A    between atoms: C13_20  and  C14_21 
REMARK    7  A    between atoms: C14_21  and  C15_22 
REMARK    8  A    between atoms: C15_22  and  C16_23 
REMARK    9  A    between atoms: C16_23  and  N3_24 
ROOT
HETATM    1  C5  UNL     1      51.467  28.977  35.695  1.00  0.00     0.058 A 
HETATM    2  C6  UNL     1      50.483  29.873  35.431  1.00  0.00     0.062 A 
HETATM    3  C7  UNL     1      49.803  30.579  36.443  1.00  0.00     0.057 A 
HETATM    4  C8  UNL     1      50.207  30.293  37.692  1.00  0.00     0.038 A 
HETATM    5  C9  UNL     1      51.204  29.388  38.002  1.00  0.00     0.047 A 
HETATM    6  C10 UNL     1      51.864  28.702  37.007  1.00  0.00     0.062 A 
HETATM    7 CL1  UNL     1      53.121  27.555  37.322  1.00  0.00    -0.082 Cl
HETATM    8  S1  UNL     1      49.206  31.295  38.661  1.00  0.00    -0.027 SA
HETATM    9  C11 UNL     1      48.325  32.022  37.359  1.00  0.00     0.291 A 
HETATM   10  O2  UNL     1      47.423  32.883  37.564  1.00  0.00    -0.259 OA
HETATM   11  N2  UNL     1      48.832  31.470  36.278  1.00  0.00    -0.307 N 
ENDROOT
BRANCH  11  12
HETATM   12  C12 UNL     1      48.335  31.902  34.953  1.00  0.00     0.133 C 
BRANCH  12  13
HETATM   13  C13 UNL     1      47.147  31.187  34.472  1.00  0.00     0.021 C 
BRANCH  13  14
HETATM   14  C14 UNL     1      47.142  30.417  33.225  1.00  0.00     0.007 C 
BRANCH  14  15
HETATM   15  C15 UNL     1      46.255  29.222  33.143  1.00  0.00     0.044 C 
BRANCH  15  16
HETATM   16  C16 UNL     1      46.962  27.925  33.293  1.00  0.00     0.063 C 
BRANCH  16  17
HETATM   17  N3  UNL     1      47.175  27.121  32.171  1.00  0.00    -0.373 N 
HETATM   18  C17 UNL     1      47.645  25.803  32.309  1.00  0.00     0.063 C 
HETATM   19  C18 UNL     1      46.673  24.721  32.012  1.00  0.00     0.045 C 
HETATM   20  C19 UNL     1      45.240  25.171  31.996  1.00  0.00     0.011 C 
HETATM   21  C20 UNL     1      45.022  26.427  31.202  1.00  0.00     0.000 C 
HETATM   22  C21 UNL     1      44.504  26.076  29.822  1.00  0.00     0.011 C 
HETATM   23  C22 UNL     1      46.235  27.301  31.109  1.00  0.00     0.131 C 
ENDBRANCH  16  17
ENDBRANCH  15  16
ENDBRANCH  14  15
ENDBRANCH  13  14
ENDBRANCH  12  13
ENDBRANCH  11  12
BRANCH   1  24
HETATM   24  N1  UNL     1      52.155  28.265  34.683  1.00  0.00    -0.326 N 
HETATM   25  C4  UNL     1      51.670  27.505  33.623  1.00  0.00     0.222 C 
HETATM   26  O1  UNL     1      50.460  27.336  33.408  1.00  0.00    -0.273 OA
ATOM     27  H1  UNL     1      53.172  28.317  34.740  1.00  0.00     0.169 HD
BRANCH  25  28
HETATM   28  C3  UNL     1      52.587  26.820  32.646  1.00  0.00     0.103 C 
BRANCH  28  29
HETATM   29  C2  UNL     1      52.437  27.357  31.265  1.00  0.00     0.005 C 
HETATM   30  C1  UNL     1      53.745  27.998  30.853  1.00  0.00     0.005 C 
ENDBRANCH  28  29
ENDBRANCH  25  28
ENDBRANCH   1  24
TORSDOF 9
ENDMDL
