MODEL 1
REMARK VINA RESULT: -6.746750473      0.000      0.000
REMARK  4 active torsions:
REMARK  status: ('A' for Active; 'I' for Inactive)
REMARK    1  A    between atoms: C8_10  and  C10_12 
REMARK    2  A    between atoms: C10_12  and  C11_14 
REMARK    3  A    between atoms: C11_14  and  O4_15 
REMARK    4  A    between atoms: C15_20  and  O5_21 
ROOT
HETATM    1  C1  UNL     1      -2.285   4.495   9.779  1.00  0.00     0.014 C 
HETATM    2  C2  UNL     1      -1.873   4.687  11.228  1.00  0.00     0.028 C 
HETATM    3  C3  UNL     1      -1.606   6.187  11.400  1.00  0.00     0.118 C 
HETATM    4  C4  UNL     1      -1.332   6.497  12.813  1.00  0.00     0.259 C 
HETATM    5  O1  UNL     1      -0.508   7.381  13.106  1.00  0.00    -0.265 OA
HETATM    6  O2  UNL     1      -1.989   5.812  13.808  1.00  0.00    -0.312 OA
HETATM    7  C5  UNL     1      -2.544   4.553  13.563  1.00  0.00     0.171 C 
HETATM    8  C6  UNL     1      -3.635   4.277  14.583  1.00  0.00     0.030 C 
HETATM    9  C7  UNL     1      -4.607   5.422  14.590  1.00  0.00     0.014 C 
HETATM   10  C8  UNL     1      -4.282   2.939  14.379  1.00  0.00     0.028 C 
HETATM   11  C9  UNL     1      -5.753   3.145  14.106  1.00  0.00     0.024 C 
HETATM   12  C12 UNL     1      -3.616   2.181  13.257  1.00  0.00     0.000 C 
HETATM   13  C13 UNL     1      -4.298   0.877  12.993  1.00  0.00     0.011 C 
HETATM   14  C14 UNL     1      -3.512   2.949  11.985  1.00  0.00     0.046 C 
HETATM   15  C15 UNL     1      -3.039   4.365  12.162  1.00  0.00     0.089 C 
ENDROOT
BRANCH  10  16
HETATM   16  C10 UNL     1      -4.179   2.068  15.592  1.00  0.00     0.159 C 
HETATM   17  O3  UNL     1      -3.080   1.809  16.048  1.00  0.00    -0.295 OA
BRANCH  16  18
HETATM   18  C11 UNL     1      -5.362   1.497  16.274  1.00  0.00     0.243 C 
BRANCH  18  19
HETATM   19  O4  UNL     1      -5.346   0.129  16.146  1.00  0.00    -0.394 OA
ATOM     20  H4  UNL     1      -6.234  -0.187  16.027  1.00  0.00     0.209 HD
ENDBRANCH  18  19
ENDBRANCH  16  18
ENDBRANCH  10  16
BRANCH  15  21
HETATM   21  O5  UNL     1      -4.020   5.306  11.867  1.00  0.00    -0.387 OA
ATOM     22  H5  UNL     1      -4.828   4.947  12.214  1.00  0.00     0.210 HD
ENDBRANCH  15  21
TORSDOF 4
ENDMDL
MODEL 2
REMARK VINA RESULT: -6.439743919      2.007      5.447
REMARK  4 active torsions:
REMARK  status: ('A' for Active; 'I' for Inactive)
REMARK    1  A    between atoms: C8_10  and  C10_12 
REMARK    2  A    between atoms: C10_12  and  C11_14 
REMARK    3  A    between atoms: C11_14  and  O4_15 
REMARK    4  A    between atoms: C15_20  and  O5_21 
ROOT
HETATM    1  C1  UNL     1      -6.430   4.722  15.586  1.00  0.00     0.014 C 
HETATM    2  C2  UNL     1      -5.415   3.599  15.470  1.00  0.00     0.028 C 
HETATM    3  C3  UNL     1      -6.137   2.324  15.916  1.00  0.00     0.118 C 
HETATM    4  C4  UNL     1      -5.274   1.149  15.708  1.00  0.00     0.259 C 
HETATM    5  O1  UNL     1      -5.312   0.200  16.512  1.00  0.00    -0.265 OA
HETATM    6  O2  UNL     1      -4.428   1.100  14.625  1.00  0.00    -0.312 OA
HETATM    7  C5  UNL     1      -4.017   2.272  13.985  1.00  0.00     0.171 C 
HETATM    8  C6  UNL     1      -3.580   1.945  12.567  1.00  0.00     0.030 C 
HETATM    9  C7  UNL     1      -4.673   1.179  11.877  1.00  0.00     0.014 C 
HETATM   10  C8  UNL     1      -3.128   3.160  11.814  1.00  0.00     0.028 C 
HETATM   11  C9  UNL     1      -4.014   3.341  10.604  1.00  0.00     0.024 C 
HETATM   12  C12 UNL     1      -3.149   4.383  12.697  1.00  0.00     0.000 C 
HETATM   13  C13 UNL     1      -2.773   5.616  11.939  1.00  0.00     0.011 C 
HETATM   14  C14 UNL     1      -4.449   4.608  13.389  1.00  0.00     0.046 C 
HETATM   15  C15 UNL     1      -5.036   3.370  14.007  1.00  0.00     0.089 C 
ENDROOT
BRANCH  10  16
HETATM   16  C10 UNL     1      -1.723   3.028  11.313  1.00  0.00     0.159 C 
HETATM   17  O3  UNL     1      -0.798   3.193  12.089  1.00  0.00    -0.295 OA
BRANCH  16  18
HETATM   18  C11 UNL     1      -1.398   2.705   9.907  1.00  0.00     0.243 C 
BRANCH  18  19
HETATM   19  O4  UNL     1      -1.445   1.343   9.729  1.00  0.00    -0.394 OA
ATOM     20  H4  UNL     1      -1.645   0.924  10.557  1.00  0.00     0.209 HD
ENDBRANCH  18  19
ENDBRANCH  16  18
ENDBRANCH  10  16
BRANCH  15  21
HETATM   21  O5  UNL     1      -6.207   2.955  13.383  1.00  0.00    -0.387 OA
ATOM     22  H5  UNL     1      -6.294   2.032  13.595  1.00  0.00     0.210 HD
ENDBRANCH  15  21
TORSDOF 4
ENDMDL
MODEL 3
REMARK VINA RESULT: -6.323092143      1.985      5.395
REMARK  4 active torsions:
REMARK  status: ('A' for Active; 'I' for Inactive)
REMARK    1  A    between atoms: C8_10  and  C10_12 
REMARK    2  A    between atoms: C10_12  and  C11_14 
REMARK    3  A    between atoms: C11_14  and  O4_15 
REMARK    4  A    between atoms: C15_20  and  O5_21 
ROOT
HETATM    1  C1  UNL     1      -6.350   4.580  15.312  1.00  0.00     0.014 C 
HETATM    2  C2  UNL     1      -5.124   3.706  15.115  1.00  0.00     0.028 C 
HETATM    3  C3  UNL     1      -5.492   2.324  15.667  1.00  0.00     0.118 C 
HETATM    4  C4  UNL     1      -4.411   1.362  15.395  1.00  0.00     0.259 C 
HETATM    5  O1  UNL     1      -4.154   0.468  16.221  1.00  0.00    -0.265 OA
HETATM    6  O2  UNL     1      -3.687   1.452  14.229  1.00  0.00    -0.312 OA
HETATM    7  C5  UNL     1      -3.617   2.655  13.521  1.00  0.00     0.171 C 
HETATM    8  C6  UNL     1      -3.259   2.366  12.073  1.00  0.00     0.030 C 
HETATM    9  C7  UNL     1      -4.214   1.344  11.522  1.00  0.00     0.014 C 
HETATM   10  C8  UNL     1      -3.170   3.614  11.248  1.00  0.00     0.028 C 
HETATM   11  C9  UNL     1      -4.188   3.536  10.135  1.00  0.00     0.024 C 
HETATM   12  C12 UNL     1      -3.380   4.842  12.098  1.00  0.00     0.000 C 
HETATM   13  C13 UNL     1      -3.368   6.091  11.276  1.00  0.00     0.011 C 
HETATM   14  C14 UNL     1      -4.622   4.805  12.920  1.00  0.00     0.046 C 
HETATM   15  C15 UNL     1      -4.849   3.498  13.627  1.00  0.00     0.089 C 
ENDROOT
BRANCH  10  16
HETATM   16  C10 UNL     1      -1.828   3.774  10.603  1.00  0.00     0.159 C 
HETATM   17  O3  UNL     1      -1.705   3.526   9.417  1.00  0.00    -0.295 OA
BRANCH  16  18
HETATM   18  C11 UNL     1      -0.630   4.224  11.344  1.00  0.00     0.243 C 
BRANCH  18  19
HETATM   19  O4  UNL     1      -0.042   3.145  11.961  1.00  0.00    -0.394 OA
ATOM     20  H4  UNL     1      -0.361   3.080  12.853  1.00  0.00     0.209 HD
ENDBRANCH  18  19
ENDBRANCH  16  18
ENDBRANCH  10  16
BRANCH  15  21
HETATM   21  O5  UNL     1      -5.953   2.804  13.140  1.00  0.00    -0.387 OA
ATOM     22  H5  UNL     1      -5.994   3.012  12.214  1.00  0.00     0.210 HD
ENDBRANCH  15  21
TORSDOF 4
ENDMDL
MODEL 4
REMARK VINA RESULT: -6.240580178      2.021      3.245
REMARK  4 active torsions:
REMARK  status: ('A' for Active; 'I' for Inactive)
REMARK    1  A    between atoms: C8_10  and  C10_12 
REMARK    2  A    between atoms: C10_12  and  C11_14 
REMARK    3  A    between atoms: C11_14  and  O4_15 
REMARK    4  A    between atoms: C15_20  and  O5_21 
ROOT
HETATM    1  C1  UNL     1      -6.328   7.551  12.190  1.00  0.00     0.014 C 
HETATM    2  C2  UNL     1      -5.747   6.317  11.524  1.00  0.00     0.028 C 
HETATM    3  C3  UNL     1      -4.749   6.825  10.477  1.00  0.00     0.118 C 
HETATM    4  C4  UNL     1      -4.027   5.695   9.869  1.00  0.00     0.259 C 
HETATM    5  O1  UNL     1      -3.709   5.736   8.667  1.00  0.00    -0.265 OA
HETATM    6  O2  UNL     1      -3.704   4.596  10.629  1.00  0.00    -0.312 OA
HETATM    7  C5  UNL     1      -4.410   4.302  11.799  1.00  0.00     0.171 C 
HETATM    8  C6  UNL     1      -3.552   3.429  12.699  1.00  0.00     0.030 C 
HETATM    9  C7  UNL     1      -2.217   4.088  12.898  1.00  0.00     0.014 C 
HETATM   10  C8  UNL     1      -4.246   3.076  13.980  1.00  0.00     0.028 C 
HETATM   11  C9  UNL     1      -3.437   3.611  15.137  1.00  0.00     0.024 C 
HETATM   12  C12 UNL     1      -5.655   3.615  14.000  1.00  0.00     0.000 C 
HETATM   13  C13 UNL     1      -6.334   3.334  15.302  1.00  0.00     0.011 C 
HETATM   14  C14 UNL     1      -5.751   5.070  13.698  1.00  0.00     0.046 C 
HETATM   15  C15 UNL     1      -4.921   5.508  12.524  1.00  0.00     0.089 C 
ENDROOT
BRANCH  10  16
HETATM   16  C10 UNL     1      -4.361   1.595  14.174  1.00  0.00     0.159 C 
HETATM   17  O3  UNL     1      -4.623   0.889  13.216  1.00  0.00    -0.295 OA
BRANCH  16  18
HETATM   18  C11 UNL     1      -4.171   0.940  15.486  1.00  0.00     0.243 C 
BRANCH  18  19
HETATM   19  O4  UNL     1      -4.918  -0.214  15.532  1.00  0.00    -0.394 OA
ATOM     20  H4  UNL     1      -4.547  -0.853  14.936  1.00  0.00     0.209 HD
ENDBRANCH  18  19
ENDBRANCH  16  18
ENDBRANCH  10  16
BRANCH  15  21
HETATM   21  O5  UNL     1      -3.864   6.338  12.886  1.00  0.00    -0.387 OA
ATOM     22  H5  UNL     1      -3.451   5.911  13.628  1.00  0.00     0.210 HD
ENDBRANCH  15  21
TORSDOF 4
ENDMDL
MODEL 5
REMARK VINA RESULT: -6.220212827      1.778      5.526
REMARK  4 active torsions:
REMARK  status: ('A' for Active; 'I' for Inactive)
REMARK    1  A    between atoms: C8_10  and  C10_12 
REMARK    2  A    between atoms: C10_12  and  C11_14 
REMARK    3  A    between atoms: C11_14  and  O4_15 
REMARK    4  A    between atoms: C15_20  and  O5_21 
ROOT
HETATM    1  C1  UNL     1      -6.600   3.825  16.399  1.00  0.00     0.014 C 
HETATM    2  C2  UNL     1      -5.394   3.083  15.852  1.00  0.00     0.028 C 
HETATM    3  C3  UNL     1      -5.808   1.611  15.750  1.00  0.00     0.118 C 
HETATM    4  C4  UNL     1      -4.746   0.826  15.097  1.00  0.00     0.259 C 
HETATM    5  O1  UNL     1      -4.528  -0.344  15.457  1.00  0.00    -0.265 OA
HETATM    6  O2  UNL     1      -3.998   1.387  14.088  1.00  0.00    -0.312 OA
HETATM    7  C5  UNL     1      -3.883   2.775  13.969  1.00  0.00     0.171 C 
HETATM    8  C6  UNL     1      -3.505   3.127  12.540  1.00  0.00     0.030 C 
HETATM    9  C7  UNL     1      -4.475   2.474  11.597  1.00  0.00     0.014 C 
HETATM   10  C8  UNL     1      -3.368   4.606  12.335  1.00  0.00     0.028 C 
HETATM   11  C9  UNL     1      -4.366   5.048  11.292  1.00  0.00     0.024 C 
HETATM   12  C12 UNL     1      -3.562   5.353  13.632  1.00  0.00     0.000 C 
HETATM   13  C13 UNL     1      -3.503   6.833  13.428  1.00  0.00     0.011 C 
HETATM   14  C14 UNL     1      -4.820   5.005  14.349  1.00  0.00     0.046 C 
HETATM   15  C15 UNL     1      -5.095   3.529  14.421  1.00  0.00     0.089 C 
ENDROOT
BRANCH  10  16
HETATM   16  C10 UNL     1      -2.010   4.986  11.832  1.00  0.00     0.159 C 
HETATM   17  O3  UNL     1      -1.909   5.528  10.745  1.00  0.00    -0.295 OA
BRANCH  16  18
HETATM   18  C11 UNL     1      -0.770   4.733  12.597  1.00  0.00     0.243 C 
BRANCH  18  19
HETATM   19  O4  UNL     1      -0.208   3.550  12.177  1.00  0.00    -0.394 OA
ATOM     20  H4  UNL     1       0.738   3.635  12.172  1.00  0.00     0.209 HD
ENDBRANCH  18  19
ENDBRANCH  16  18
ENDBRANCH  10  16
BRANCH  15  21
HETATM   21  O5  UNL     1      -6.207   3.147  13.676  1.00  0.00    -0.387 OA
ATOM     22  H5  UNL     1      -6.463   2.299  14.020  1.00  0.00     0.210 HD
ENDBRANCH  15  21
TORSDOF 4
ENDMDL
