MODEL 1
REMARK VINA RESULT: -5.947924701      0.000      0.000
REMARK  4 active torsions:
REMARK  status: ('A' for Active; 'I' for Inactive)
REMARK    1  A    between atoms: C5_8  and  O1_9 
REMARK    2  A    between atoms: O1_9  and  C6_10 
REMARK    3  A    between atoms: C6_10  and  N2_12 
REMARK    4  A    between atoms: N2_12  and  C7_14 
ROOT
HETATM    1  O1  UNL     1      -4.405   0.361  13.402  1.00  0.00    -0.294 OA
ENDROOT
BRANCH   1   2
HETATM    2  C5  UNL     1      -4.406   1.456  14.325  1.00  0.00     0.294 C 
HETATM    3  C4  UNL     1      -4.841   0.975  15.648  1.00  0.00     0.293 C 
HETATM    4  N1  UNL     1      -5.057   2.134  16.519  1.00  0.00    -0.068 N 
HETATM    5  C3  UNL     1      -6.171   2.848  15.901  1.00  0.00     0.264 C 
ATOM      6  H12 UNL     1      -4.225   2.705  16.665  1.00  0.00     0.277 HD
ATOM      7  H11 UNL     1      -5.206   1.897  17.500  1.00  0.00     0.277 HD
HETATM    8  C2  UNL     1      -5.736   3.358  14.569  1.00  0.00     0.146 C 
HETATM    9  C1  UNL     1      -4.865   4.585  14.751  1.00  0.00     0.041 C 
HETATM   10  O2  UNL     1      -5.094   2.476  13.764  1.00  0.00    -0.353 OA
ENDBRANCH   1   2
BRANCH   1  11
HETATM   11  C6  UNL     1      -3.838   0.550  12.149  1.00  0.00     0.212 C 
HETATM   12  S1  UNL     1      -4.411  -0.233  10.841  1.00  0.00    -0.033 SA
BRANCH  11  13
HETATM   13  N2  UNL     1      -2.741   1.432  11.963  1.00  0.00    -0.357 N 
ATOM     14  H2  UNL     1      -2.074   1.554  12.725  1.00  0.00     0.162 HD
BRANCH  13  15
HETATM   15  C7  UNL     1      -2.534   2.166  10.730  1.00  0.00     0.085 C 
HETATM   16  C8  UNL     1      -3.093   3.539  10.860  1.00  0.00     0.035 C 
HETATM   17  C9  UNL     1      -2.471   4.336  11.982  1.00  0.00     0.076 C 
HETATM   18  S2  UNL     1      -0.669   4.382  11.630  1.00  0.00    -0.169 SA
HETATM   19  C10 UNL     1      -0.481   3.452  10.060  1.00  0.00     0.076 C 
HETATM   20  C11 UNL     1      -1.113   2.117  10.263  1.00  0.00     0.035 C 
ENDBRANCH  13  15
ENDBRANCH  11  13
ENDBRANCH   1  11
TORSDOF 4
ENDMDL
MODEL 2
REMARK VINA RESULT: -5.858759055      1.881      3.492
REMARK  4 active torsions:
REMARK  status: ('A' for Active; 'I' for Inactive)
REMARK    1  A    between atoms: C5_8  and  O1_9 
REMARK    2  A    between atoms: O1_9  and  C6_10 
REMARK    3  A    between atoms: C6_10  and  N2_12 
REMARK    4  A    between atoms: N2_12  and  C7_14 
ROOT
HETATM    1  O1  UNL     1      -5.117   2.974  14.394  1.00  0.00    -0.294 OA
ENDROOT
BRANCH   1   2
HETATM    2  C5  UNL     1      -5.114   2.380  15.697  1.00  0.00     0.294 C 
HETATM    3  C4  UNL     1      -4.850   0.936  15.571  1.00  0.00     0.293 C 
HETATM    4  N1  UNL     1      -5.075   0.304  16.874  1.00  0.00    -0.068 N 
HETATM    5  C3  UNL     1      -6.502   0.488  17.124  1.00  0.00     0.264 C 
ATOM      6  H12 UNL     1      -4.473   0.656  17.618  1.00  0.00     0.277 HD
ATOM      7  H11 UNL     1      -4.764  -0.666  16.927  1.00  0.00     0.277 HD
HETATM    8  C2  UNL     1      -6.780   1.945  17.273  1.00  0.00     0.146 C 
HETATM    9  C1  UNL     1      -6.335   2.411  18.646  1.00  0.00     0.041 C 
HETATM   10  O2  UNL     1      -6.245   2.763  16.334  1.00  0.00    -0.353 OA
ENDBRANCH   1   2
BRANCH   1  11
HETATM   11  C6  UNL     1      -3.898   3.275  13.801  1.00  0.00     0.212 C 
HETATM   12  S1  UNL     1      -3.128   4.673  14.125  1.00  0.00    -0.033 SA
BRANCH  11  13
HETATM   13  N2  UNL     1      -3.280   2.377  12.891  1.00  0.00    -0.357 N 
ATOM     14  H2  UNL     1      -2.474   1.836  13.205  1.00  0.00     0.162 HD
BRANCH  13  15
HETATM   15  C7  UNL     1      -3.753   2.199  11.532  1.00  0.00     0.085 C 
HETATM   16  C8  UNL     1      -2.601   1.937  10.626  1.00  0.00     0.035 C 
HETATM   17  C9  UNL     1      -1.809   0.707  11.005  1.00  0.00     0.076 C 
HETATM   18  S2  UNL     1      -3.004  -0.688  10.983  1.00  0.00    -0.169 SA
HETATM   19  C10 UNL     1      -4.596   0.074  10.487  1.00  0.00     0.076 C 
HETATM   20  C11 UNL     1      -4.860   1.197  11.434  1.00  0.00     0.035 C 
ENDBRANCH  13  15
ENDBRANCH  11  13
ENDBRANCH   1  11
TORSDOF 4
ENDMDL
MODEL 3
REMARK VINA RESULT: -5.696077913      2.463      4.996
REMARK  4 active torsions:
REMARK  status: ('A' for Active; 'I' for Inactive)
REMARK    1  A    between atoms: C5_8  and  O1_9 
REMARK    2  A    between atoms: O1_9  and  C6_10 
REMARK    3  A    between atoms: C6_10  and  N2_12 
REMARK    4  A    between atoms: N2_12  and  C7_14 
ROOT
HETATM    1  O1  UNL     1      -4.502   0.887  13.620  1.00  0.00    -0.294 OA
ENDROOT
BRANCH   1   2
HETATM    2  C5  UNL     1      -4.029   1.019  12.274  1.00  0.00     0.294 C 
HETATM    3  C4  UNL     1      -4.155  -0.279  11.588  1.00  0.00     0.293 C 
HETATM    4  N1  UNL     1      -3.464  -0.194  10.298  1.00  0.00    -0.068 N 
HETATM    5  C3  UNL     1      -2.061   0.004  10.651  1.00  0.00     0.264 C 
ATOM      6  H12 UNL     1      -3.840   0.516   9.670  1.00  0.00     0.277 HD
ATOM      7  H11 UNL     1      -3.631  -0.989   9.681  1.00  0.00     0.277 HD
HETATM    8  C2  UNL     1      -1.917   1.324  11.330  1.00  0.00     0.146 C 
HETATM    9  C1  UNL     1      -1.961   2.435  10.299  1.00  0.00     0.041 C 
HETATM   10  O2  UNL     1      -2.808   1.598  12.314  1.00  0.00    -0.353 OA
ENDBRANCH   1   2
BRANCH   1  11
HETATM   11  C6  UNL     1      -4.437   1.994  14.456  1.00  0.00     0.212 C 
HETATM   12  S1  UNL     1      -4.447   1.825  16.075  1.00  0.00    -0.033 SA
BRANCH  11  13
HETATM   13  N2  UNL     1      -4.362   3.311  13.929  1.00  0.00    -0.357 N 
ATOM     14  H2  UNL     1      -3.850   3.464  13.061  1.00  0.00     0.162 HD
BRANCH  13  15
HETATM   15  C7  UNL     1      -4.986   4.446  14.581  1.00  0.00     0.085 C 
HETATM   16  C8  UNL     1      -4.079   5.625  14.520  1.00  0.00     0.035 C 
HETATM   17  C9  UNL     1      -3.726   6.037  13.110  1.00  0.00     0.076 C 
HETATM   18  S2  UNL     1      -5.323   6.382  12.271  1.00  0.00    -0.169 SA
HETATM   19  C10 UNL     1      -6.596   6.083  13.558  1.00  0.00     0.076 C 
HETATM   20  C11 UNL     1      -6.373   4.704  14.083  1.00  0.00     0.035 C 
ENDBRANCH  13  15
ENDBRANCH  11  13
ENDBRANCH   1  11
TORSDOF 4
ENDMDL
MODEL 4
REMARK VINA RESULT: -5.667822142      2.645      5.681
REMARK  4 active torsions:
REMARK  status: ('A' for Active; 'I' for Inactive)
REMARK    1  A    between atoms: C5_8  and  O1_9 
REMARK    2  A    between atoms: O1_9  and  C6_10 
REMARK    3  A    between atoms: C6_10  and  N2_12 
REMARK    4  A    between atoms: N2_12  and  C7_14 
ROOT
HETATM    1  O1  UNL     1      -2.094   3.953  13.073  1.00  0.00    -0.294 OA
ENDROOT
BRANCH   1   2
HETATM    2  C5  UNL     1      -2.527   3.198  11.936  1.00  0.00     0.294 C 
HETATM    3  C4  UNL     1      -3.767   3.791  11.405  1.00  0.00     0.293 C 
HETATM    4  N1  UNL     1      -4.321   2.886  10.393  1.00  0.00    -0.068 N 
HETATM    5  C3  UNL     1      -4.672   1.680  11.139  1.00  0.00     0.264 C 
ATOM      6  H12 UNL     1      -3.702   2.719   9.599  1.00  0.00     0.277 HD
ATOM      7  H11 UNL     1      -5.091   3.282   9.855  1.00  0.00     0.277 HD
HETATM    8  C2  UNL     1      -3.422   1.060  11.666  1.00  0.00     0.146 C 
HETATM    9  C1  UNL     1      -2.705   0.330  10.548  1.00  0.00     0.041 C 
HETATM   10  O2  UNL     1      -2.548   1.891  12.284  1.00  0.00    -0.353 OA
ENDBRANCH   1   2
BRANCH   1  11
HETATM   11  C6  UNL     1      -3.038   4.322  14.023  1.00  0.00     0.212 C 
HETATM   12  S1  UNL     1      -3.522   5.870  14.168  1.00  0.00    -0.033 SA
BRANCH  11  13
HETATM   13  N2  UNL     1      -3.614   3.364  14.898  1.00  0.00    -0.357 N 
ATOM     14  H2  UNL     1      -3.091   3.077  15.725  1.00  0.00     0.162 HD
BRANCH  13  15
HETATM   15  C7  UNL     1      -4.920   2.780  14.660  1.00  0.00     0.085 C 
HETATM   16  C8  UNL     1      -4.860   1.308  14.874  1.00  0.00     0.035 C 
HETATM   17  C9  UNL     1      -4.428   0.922  16.269  1.00  0.00     0.076 C 
HETATM   18  S2  UNL     1      -5.634   1.711  17.408  1.00  0.00    -0.169 SA
HETATM   19  C10 UNL     1      -6.812   2.580  16.303  1.00  0.00     0.076 C 
HETATM   20  C11 UNL     1      -6.008   3.473  15.419  1.00  0.00     0.035 C 
ENDBRANCH  13  15
ENDBRANCH  11  13
ENDBRANCH   1  11
TORSDOF 4
ENDMDL
MODEL 5
REMARK VINA RESULT: -5.659517568      2.322      4.865
REMARK  4 active torsions:
REMARK  status: ('A' for Active; 'I' for Inactive)
REMARK    1  A    between atoms: C5_8  and  O1_9 
REMARK    2  A    between atoms: O1_9  and  C6_10 
REMARK    3  A    between atoms: C6_10  and  N2_12 
REMARK    4  A    between atoms: N2_12  and  C7_14 
ROOT
HETATM    1  O1  UNL     1      -4.771   1.359  13.387  1.00  0.00    -0.294 OA
ENDROOT
BRANCH   1   2
HETATM    2  C5  UNL     1      -3.841   0.563  12.644  1.00  0.00     0.294 C 
HETATM    3  C4  UNL     1      -3.263   1.377  11.561  1.00  0.00     0.293 C 
HETATM    4  N1  UNL     1      -2.494   0.497  10.675  1.00  0.00    -0.068 N 
HETATM    5  C3  UNL     1      -3.493  -0.395  10.095  1.00  0.00     0.264 C 
ATOM      6  H12 UNL     1      -1.721   0.016  11.135  1.00  0.00     0.277 HD
ATOM      7  H11 UNL     1      -1.926   0.991   9.987  1.00  0.00     0.277 HD
HETATM    8  C2  UNL     1      -4.072  -1.239  11.180  1.00  0.00     0.146 C 
HETATM    9  C1  UNL     1      -3.096  -2.340  11.546  1.00  0.00     0.041 C 
HETATM   10  O2  UNL     1      -4.455  -0.594  12.308  1.00  0.00    -0.353 OA
ENDBRANCH   1   2
BRANCH   1  11
HETATM   11  C6  UNL     1      -4.376   1.865  14.619  1.00  0.00     0.212 C 
HETATM   12  S1  UNL     1      -4.980   1.264  16.006  1.00  0.00    -0.033 SA
BRANCH  11  13
HETATM   13  N2  UNL     1      -3.432   2.922  14.712  1.00  0.00    -0.357 N 
ATOM     14  H2  UNL     1      -2.438   2.694  14.723  1.00  0.00     0.162 HD
BRANCH  13  15
HETATM   15  C7  UNL     1      -3.830   4.314  14.791  1.00  0.00     0.085 C 
HETATM   16  C8  UNL     1      -2.797   5.171  14.146  1.00  0.00     0.035 C 
HETATM   17  C9  UNL     1      -2.565   4.838  12.691  1.00  0.00     0.076 C 
HETATM   18  S2  UNL     1      -4.194   5.024  11.865  1.00  0.00    -0.169 SA
HETATM   19  C10 UNL     1      -5.333   5.552  13.202  1.00  0.00     0.076 C 
HETATM   20  C11 UNL     1      -5.223   4.544  14.296  1.00  0.00     0.035 C 
ENDBRANCH  13  15
ENDBRANCH  11  13
ENDBRANCH   1  11
TORSDOF 4
ENDMDL
