MODEL 1
REMARK VINA RESULT: -5.971297766      0.000      0.000
REMARK  1 active torsions:
REMARK  status: ('A' for Active; 'I' for Inactive)
REMARK    1  A    between atoms: C4_4  and  C5_5 
ROOT
HETATM    1  C1  UNL     1      16.647  -6.144  11.400  1.00  0.00     0.029 C 
HETATM    2  C2  UNL     1      15.805  -7.370  11.286  1.00  0.00     0.092 C 
HETATM    3  C3  UNL     1      16.652  -8.651  11.228  1.00  0.00     0.045 C 
HETATM    4  C4  UNL     1      15.560  -9.600  10.757  1.00  0.00     0.100 C 
HETATM    5  N1  UNL     1      14.942  -8.816   9.737  1.00  0.00    -0.143 NA
HETATM    6  N2  UNL     1      15.070  -7.476  10.064  1.00  0.00    -0.143 NA
ENDROOT
BRANCH   4   7
HETATM    7  C5  UNL     1      16.206 -10.856  10.285  1.00  0.00    -0.002 C 
HETATM    8  C6  UNL     1      17.537 -11.116  10.928  1.00  0.00     0.011 C 
HETATM    9  C7  UNL     1      16.426 -10.714   8.774  1.00  0.00     0.011 C 
ENDBRANCH   4   7
TORSDOF 1
ENDMDL
MODEL 2
REMARK VINA RESULT: -5.606568948      0.765      1.288
REMARK  1 active torsions:
REMARK  status: ('A' for Active; 'I' for Inactive)
REMARK    1  A    between atoms: C4_4  and  C5_5 
ROOT
HETATM    1  C1  UNL     1      17.046  -6.118  11.908  1.00  0.00     0.029 C 
HETATM    2  C2  UNL     1      16.089  -7.203  11.544  1.00  0.00     0.092 C 
HETATM    3  C3  UNL     1      16.810  -8.488  11.108  1.00  0.00     0.045 C 
HETATM    4  C4  UNL     1      15.615  -9.194  10.485  1.00  0.00     0.100 C 
HETATM    5  N1  UNL     1      15.028  -8.128   9.740  1.00  0.00    -0.143 NA
HETATM    6  N2  UNL     1      15.295  -6.932  10.386  1.00  0.00    -0.143 NA
ENDROOT
BRANCH   4   7
HETATM    7  C5  UNL     1      16.119 -10.333   9.669  1.00  0.00    -0.002 C 
HETATM    8  C6  UNL     1      15.055 -11.334   9.326  1.00  0.00     0.011 C 
HETATM    9  C7  UNL     1      17.194 -11.046  10.498  1.00  0.00     0.011 C 
ENDBRANCH   4   7
TORSDOF 1
ENDMDL
MODEL 3
REMARK VINA RESULT: -5.570480089      1.405      3.454
REMARK  1 active torsions:
REMARK  status: ('A' for Active; 'I' for Inactive)
REMARK    1  A    between atoms: C4_4  and  C5_5 
ROOT
HETATM    1  C1  UNL     1      15.274 -11.138   9.468  1.00  0.00     0.029 C 
HETATM    2  C2  UNL     1      15.586  -9.697   9.698  1.00  0.00     0.092 C 
HETATM    3  C3  UNL     1      16.903  -9.506  10.467  1.00  0.00     0.045 C 
HETATM    4  C4  UNL     1      16.716  -8.041  10.834  1.00  0.00     0.100 C 
HETATM    5  N1  UNL     1      15.353  -8.039  11.258  1.00  0.00    -0.143 NA
HETATM    6  N2  UNL     1      14.668  -9.020  10.561  1.00  0.00    -0.143 NA
ENDROOT
BRANCH   4   7
HETATM    7  C5  UNL     1      17.707  -7.695  11.890  1.00  0.00    -0.002 C 
HETATM    8  C6  UNL     1      18.323  -6.338  11.704  1.00  0.00     0.011 C 
HETATM    9  C7  UNL     1      18.828  -8.739  11.822  1.00  0.00     0.011 C 
ENDBRANCH   4   7
TORSDOF 1
ENDMDL
MODEL 4
REMARK VINA RESULT: -5.569233660      1.869      3.803
REMARK  1 active torsions:
REMARK  status: ('A' for Active; 'I' for Inactive)
REMARK    1  A    between atoms: C4_4  and  C5_5 
ROOT
HETATM    1  C1  UNL     1      14.856  -9.342  10.307  1.00  0.00     0.029 C 
HETATM    2  C2  UNL     1      15.828  -8.213  10.226  1.00  0.00     0.092 C 
HETATM    3  C3  UNL     1      16.997  -8.385  11.207  1.00  0.00     0.045 C 
HETATM    4  C4  UNL     1      17.542  -6.966  11.131  1.00  0.00     0.100 C 
HETATM    5  N1  UNL     1      16.334  -6.209  11.207  1.00  0.00    -0.143 NA
HETATM    6  N2  UNL     1      15.308  -6.948  10.644  1.00  0.00    -0.143 NA
ENDROOT
BRANCH   4   7
HETATM    7  C5  UNL     1      18.485  -6.767  12.266  1.00  0.00    -0.002 C 
HETATM    8  C6  UNL     1      19.287  -5.503  12.155  1.00  0.00     0.011 C 
HETATM    9  C7  UNL     1      19.460  -7.950  12.260  1.00  0.00     0.011 C 
ENDBRANCH   4   7
TORSDOF 1
ENDMDL
MODEL 5
REMARK VINA RESULT: -5.418469611      1.197      1.734
REMARK  1 active torsions:
REMARK  status: ('A' for Active; 'I' for Inactive)
REMARK    1  A    between atoms: C4_4  and  C5_5 
ROOT
HETATM    1  C1  UNL     1      18.411  -6.235  12.270  1.00  0.00     0.029 C 
HETATM    2  C2  UNL     1      17.247  -7.099  11.917  1.00  0.00     0.092 C 
HETATM    3  C3  UNL     1      17.683  -8.503  11.472  1.00  0.00     0.045 C 
HETATM    4  C4  UNL     1      16.361  -8.947  10.864  1.00  0.00     0.100 C 
HETATM    5  N1  UNL     1      15.998  -7.781  10.126  1.00  0.00    -0.143 NA
HETATM    6  N2  UNL     1      16.512  -6.668  10.769  1.00  0.00    -0.143 NA
ENDROOT
BRANCH   4   7
HETATM    7  C5  UNL     1      16.611 -10.163  10.041  1.00  0.00    -0.002 C 
HETATM    8  C6  UNL     1      15.354 -10.886   9.653  1.00  0.00     0.011 C 
HETATM    9  C7  UNL     1      17.466 -11.116  10.886  1.00  0.00     0.011 C 
ENDBRANCH   4   7
TORSDOF 1
ENDMDL
