MODEL 1
REMARK VINA RESULT: -5.225068466      0.000      0.000
REMARK  1 active torsions:
REMARK  status: ('A' for Active; 'I' for Inactive)
REMARK    1  A    between atoms: C2_2  and  C3_3 
ROOT
HETATM    1  C3  UNL     1      15.954  -8.585  11.125  1.00  0.00     0.203 C 
HETATM    2  C4  UNL     1      15.705  -7.125  10.946  1.00  0.00     0.146 C 
HETATM    3  N1  UNL     1      16.703  -6.255  11.435  1.00  0.00    -0.417 N 
ATOM      4  H1  UNL     1      16.483  -5.366  11.884  1.00  0.00     0.153 HD
HETATM    5  C5  UNL     1      18.060  -6.717  11.253  1.00  0.00     0.146 C 
HETATM    6  C6  UNL     1      18.115  -8.110  11.894  1.00  0.00     0.199 C 
HETATM    7  C7  UNL     1      19.554  -8.531  12.004  1.00  0.00     0.041 C 
HETATM    8  N2  UNL     1      17.344  -8.962  11.016  1.00  0.00    -0.064 N 
ATOM      9  H21 UNL     1      17.682  -8.943  10.053  1.00  0.00     0.278 HD
ATOM     10  H22 UNL     1      17.498  -9.954  11.196  1.00  0.00     0.278 HD
ENDROOT
BRANCH   1  11
HETATM   11  C2  UNL     1      15.144  -9.317  10.071  1.00  0.00     0.030 C 
HETATM   12  C1  UNL     1      15.900 -10.470   9.472  1.00  0.00     0.007 C 
ENDBRANCH   1  11
TORSDOF 1
ENDMDL
MODEL 2
REMARK VINA RESULT: -5.152135603      1.266      1.537
REMARK  1 active torsions:
REMARK  status: ('A' for Active; 'I' for Inactive)
REMARK    1  A    between atoms: C2_2  and  C3_3 
ROOT
HETATM    1  C3  UNL     1      16.365  -9.445  10.996  1.00  0.00     0.203 C 
HETATM    2  C4  UNL     1      15.345  -8.660  10.241  1.00  0.00     0.146 C 
HETATM    3  N1  UNL     1      15.288  -7.276  10.518  1.00  0.00    -0.417 N 
ATOM      4  H1  UNL     1      14.408  -6.761  10.557  1.00  0.00     0.153 HD
HETATM    5  C5  UNL     1      16.568  -6.645  10.743  1.00  0.00     0.146 C 
HETATM    6  C6  UNL     1      17.240  -7.451  11.863  1.00  0.00     0.199 C 
HETATM    7  C7  UNL     1      18.439  -6.688  12.351  1.00  0.00     0.041 C 
HETATM    8  N2  UNL     1      17.586  -8.720  11.260  1.00  0.00    -0.064 N 
ATOM      9  H21 UNL     1      18.169  -8.614  10.429  1.00  0.00     0.278 HD
ATOM     10  H22 UNL     1      18.246  -9.255  11.824  1.00  0.00     0.278 HD
ENDROOT
BRANCH   1  11
HETATM   11  C2  UNL     1      16.676 -10.687  10.181  1.00  0.00     0.030 C 
HETATM   12  C1  UNL     1      15.508 -11.122   9.341  1.00  0.00     0.007 C 
ENDBRANCH   1  11
TORSDOF 1
ENDMDL
MODEL 3
REMARK VINA RESULT: -5.117107059      1.284      3.353
REMARK  1 active torsions:
REMARK  status: ('A' for Active; 'I' for Inactive)
REMARK    1  A    between atoms: C2_2  and  C3_3 
ROOT
HETATM    1  C3  UNL     1      17.305  -7.517  11.005  1.00  0.00     0.203 C 
HETATM    2  C4  UNL     1      15.968  -6.897  10.777  1.00  0.00     0.146 C 
HETATM    3  N1  UNL     1      14.996  -7.714  10.157  1.00  0.00    -0.417 N 
ATOM      4  H1  UNL     1      14.329  -7.351   9.476  1.00  0.00     0.153 HD
HETATM    5  C5  UNL     1      15.017  -9.101  10.561  1.00  0.00     0.146 C 
HETATM    6  C6  UNL     1      16.452  -9.586  10.312  1.00  0.00     0.199 C 
HETATM    7  C7  UNL     1      16.479 -11.085  10.430  1.00  0.00     0.041 C 
HETATM    8  N2  UNL     1      17.254  -8.926  11.319  1.00  0.00    -0.064 N 
ATOM      9  H21 UNL     1      16.922  -9.107  12.266  1.00  0.00     0.278 HD
ATOM     10  H22 UNL     1      18.180  -9.341  11.416  1.00  0.00     0.278 HD
ENDROOT
BRANCH   1  11
HETATM   11  C2  UNL     1      17.965  -6.766  12.147  1.00  0.00     0.030 C 
HETATM   12  C1  UNL     1      19.381  -7.213  12.378  1.00  0.00     0.007 C 
ENDBRANCH   1  11
TORSDOF 1
ENDMDL
MODEL 4
REMARK VINA RESULT: -4.994989251      1.632      3.538
REMARK  1 active torsions:
REMARK  status: ('A' for Active; 'I' for Inactive)
REMARK    1  A    between atoms: C2_2  and  C3_3 
ROOT
HETATM    1  C3  UNL     1      17.244 -10.486  11.148  1.00  0.00     0.203 C 
HETATM    2  C4  UNL     1      16.621 -10.899   9.857  1.00  0.00     0.146 C 
HETATM    3  N1  UNL     1      15.531 -10.121   9.411  1.00  0.00    -0.417 N 
ATOM      4  H1  UNL     1      14.719 -10.530   8.948  1.00  0.00     0.153 HD
HETATM    5  C5  UNL     1      15.649  -8.703   9.659  1.00  0.00     0.146 C 
HETATM    6  C6  UNL     1      15.906  -8.563  11.166  1.00  0.00     0.199 C 
HETATM    7  C7  UNL     1      15.750  -7.117  11.547  1.00  0.00     0.041 C 
HETATM    8  N2  UNL     1      17.249  -9.059  11.368  1.00  0.00    -0.064 N 
ATOM      9  H21 UNL     1      17.938  -8.574  10.792  1.00  0.00     0.278 HD
ATOM     10  H22 UNL     1      17.629  -8.803  12.280  1.00  0.00     0.278 HD
ENDROOT
BRANCH   1  11
HETATM   11  C2  UNL     1      18.670 -11.007  11.152  1.00  0.00     0.030 C 
HETATM   12  C1  UNL     1      19.624 -10.045  11.802  1.00  0.00     0.007 C 
ENDBRANCH   1  11
TORSDOF 1
ENDMDL
MODEL 5
REMARK VINA RESULT: -4.948037407      0.785      3.262
REMARK  1 active torsions:
REMARK  status: ('A' for Active; 'I' for Inactive)
REMARK    1  A    between atoms: C2_2  and  C3_3 
ROOT
HETATM    1  C3  UNL     1      18.393  -7.906  11.334  1.00  0.00     0.203 C 
HETATM    2  C4  UNL     1      17.987  -6.523  11.716  1.00  0.00     0.146 C 
HETATM    3  N1  UNL     1      16.650  -6.163  11.439  1.00  0.00    -0.417 N 
ATOM      4  H1  UNL     1      16.388  -5.231  11.116  1.00  0.00     0.153 HD
HETATM    5  C5  UNL     1      15.679  -7.213  11.645  1.00  0.00     0.146 C 
HETATM    6  C6  UNL     1      16.165  -8.401  10.804  1.00  0.00     0.199 C 
HETATM    7  C7  UNL     1      15.064  -9.423  10.734  1.00  0.00     0.041 C 
HETATM    8  N2  UNL     1      17.345  -8.889  11.483  1.00  0.00    -0.064 N 
ATOM      9  H21 UNL     1      17.166  -9.127  12.459  1.00  0.00     0.278 HD
ATOM     10  H22 UNL     1      17.627  -9.816  11.165  1.00  0.00     0.278 HD
ENDROOT
BRANCH   1  11
HETATM   11  C2  UNL     1      19.577  -8.288  12.203  1.00  0.00     0.030 C 
HETATM   12  C1  UNL     1      20.066  -9.681  11.918  1.00  0.00     0.007 C 
ENDBRANCH   1  11
TORSDOF 1
ENDMDL
