MODEL 1
REMARK VINA RESULT: -5.769167986      0.000      0.000
REMARK  5 active torsions:
REMARK  status: ('A' for Active; 'I' for Inactive)
REMARK    1  A    between atoms: N1_1  and  C1_4 
REMARK    2  A    between atoms: C2_9  and  C3_10 
REMARK    3  A    between atoms: C3_10  and  C4_11 
REMARK    4  A    between atoms: C4_11  and  C5_12 
REMARK    5  A    between atoms: C5_12  and  N4_13 
ROOT
HETATM    1  C1  UNL     1     -29.269   5.090 -25.620  1.00  0.00     0.691 A 
HETATM    2  N2  UNL     1     -28.432   6.069 -25.233  1.00  0.00    -0.132 N 
ATOM      3  H2  UNL     1     -27.533   5.820 -24.820  1.00  0.00     0.205 HD
HETATM    4  N3  UNL     1     -28.744   7.346 -25.375  1.00  0.00    -0.287 N 
ATOM      5  H3  UNL     1     -28.081   8.057 -25.066  1.00  0.00     0.187 HD
HETATM    6  C2  UNL     1     -29.908   7.731 -25.912  1.00  0.00     0.068 A 
HETATM    7  C6  UNL     1     -30.814   6.763 -26.331  1.00  0.00     0.155 A 
HETATM    8  N5  UNL     1     -32.055   7.102 -26.909  1.00  0.00    -0.080 NA
HETATM    9  N6  UNL     1     -30.437   5.477 -26.158  1.00  0.00    -0.176 N 
ATOM     10  H6  UNL     1     -31.086   4.748 -26.458  1.00  0.00     0.185 HD
ENDROOT
BRANCH   6  11
HETATM   11  C3  UNL     1     -30.219   9.171 -26.048  1.00  0.00     0.064 C 
BRANCH  11  12
HETATM   12  C4  UNL     1     -29.310   9.988 -25.174  1.00  0.00     0.033 C 
BRANCH  12  13
HETATM   13  C5  UNL     1     -28.620  11.085 -25.967  1.00  0.00     0.230 C 
BRANCH  13  14
HETATM   14  N4  UNL     1     -27.352  10.608 -26.481  1.00  0.00    -0.079 N 
ATOM     15  H43 UNL     1     -27.459  10.128 -27.374  1.00  0.00     0.274 HD
ATOM     16  H42 UNL     1     -26.754  11.374 -26.793  1.00  0.00     0.274 HD
ATOM     17  H41 UNL     1     -26.888  10.022 -25.786  1.00  0.00     0.274 HD
ENDBRANCH  13  14
ENDBRANCH  12  13
ENDBRANCH  11  12
ENDBRANCH   6  11
BRANCH   1  18
HETATM   18  N1  UNL     1     -28.976   3.818 -25.486  1.00  0.00    -0.233 N 
ATOM     19  H12 UNL     1     -28.297   3.507 -24.790  1.00  0.00     0.174 HD
ATOM     20  H11 UNL     1     -29.406   3.093 -26.061  1.00  0.00     0.174 HD
ENDBRANCH   1  18
TORSDOF 5
ENDMDL
MODEL 2
REMARK VINA RESULT: -5.587243724      1.701      1.810
REMARK  5 active torsions:
REMARK  status: ('A' for Active; 'I' for Inactive)
REMARK    1  A    between atoms: N1_1  and  C1_4 
REMARK    2  A    between atoms: C2_9  and  C3_10 
REMARK    3  A    between atoms: C3_10  and  C4_11 
REMARK    4  A    between atoms: C4_11  and  C5_12 
REMARK    5  A    between atoms: C5_12  and  N4_13 
ROOT
HETATM    1  C1  UNL     1     -29.357   4.474 -25.443  1.00  0.00     0.691 A 
HETATM    2  N2  UNL     1     -28.499   5.207 -24.710  1.00  0.00    -0.132 N 
ATOM      3  H2  UNL     1     -27.898   4.738 -24.033  1.00  0.00     0.205 HD
HETATM    4  N3  UNL     1     -28.417   6.520 -24.845  1.00  0.00    -0.287 N 
ATOM      5  H3  UNL     1     -27.754   7.038 -24.268  1.00  0.00     0.187 HD
HETATM    6  C2  UNL     1     -29.180   7.187 -25.719  1.00  0.00     0.068 A 
HETATM    7  C6  UNL     1     -30.085   6.482 -26.505  1.00  0.00     0.155 A 
HETATM    8  N5  UNL     1     -30.915   7.125 -27.448  1.00  0.00    -0.080 NA
HETATM    9  N6  UNL     1     -30.123   5.144 -26.320  1.00  0.00    -0.176 N 
ATOM     10  H6  UNL     1     -30.779   4.605 -26.884  1.00  0.00     0.185 HD
ENDROOT
BRANCH   6  11
HETATM   11  C3  UNL     1     -29.058   8.657 -25.835  1.00  0.00     0.064 C 
BRANCH  11  12
HETATM   12  C4  UNL     1     -30.092   9.337 -24.983  1.00  0.00     0.033 C 
BRANCH  12  13
HETATM   13  C5  UNL     1     -29.458  10.017 -23.782  1.00  0.00     0.230 C 
BRANCH  13  14
HETATM   14  N4  UNL     1     -30.466  10.316 -22.785  1.00  0.00    -0.079 N 
ATOM     15  H43 UNL     1     -30.573   9.557 -22.113  1.00  0.00     0.274 HD
ATOM     16  H42 UNL     1     -30.160  11.046 -22.140  1.00  0.00     0.274 HD
ATOM     17  H41 UNL     1     -31.350  10.553 -23.237  1.00  0.00     0.274 HD
ENDBRANCH  13  14
ENDBRANCH  12  13
ENDBRANCH  11  12
ENDBRANCH   6  11
BRANCH   1  18
HETATM   18  N1  UNL     1     -29.452   3.171 -25.321  1.00  0.00    -0.233 N 
ATOM     19  H12 UNL     1     -28.651   2.567 -25.505  1.00  0.00     0.174 HD
ATOM     20  H11 UNL     1     -30.318   2.709 -25.041  1.00  0.00     0.174 HD
ENDBRANCH   1  18
TORSDOF 5
ENDMDL
MODEL 3
REMARK VINA RESULT: -5.329735754      1.978      2.811
REMARK  5 active torsions:
REMARK  status: ('A' for Active; 'I' for Inactive)
REMARK    1  A    between atoms: N1_1  and  C1_4 
REMARK    2  A    between atoms: C2_9  and  C3_10 
REMARK    3  A    between atoms: C3_10  and  C4_11 
REMARK    4  A    between atoms: C4_11  and  C5_12 
REMARK    5  A    between atoms: C5_12  and  N4_13 
ROOT
HETATM    1  C1  UNL     1     -29.361   4.541 -25.439  1.00  0.00     0.691 A 
HETATM    2  N2  UNL     1     -29.890   5.361 -26.364  1.00  0.00    -0.132 N 
ATOM      3  H2  UNL     1     -30.467   4.967 -27.106  1.00  0.00     0.205 HD
HETATM    4  N3  UNL     1     -29.682   6.667 -26.334  1.00  0.00    -0.287 N 
ATOM      5  H3  UNL     1     -30.101   7.253 -27.056  1.00  0.00     0.187 HD
HETATM    6  C2  UNL     1     -28.936   7.240 -25.382  1.00  0.00     0.068 A 
HETATM    7  C6  UNL     1     -28.363   6.442 -24.398  1.00  0.00     0.155 A 
HETATM    8  N5  UNL     1     -27.570   6.983 -23.365  1.00  0.00    -0.080 NA
HETATM    9  N6  UNL     1     -28.612   5.116 -24.483  1.00  0.00    -0.176 N 
ATOM     10  H6  UNL     1     -28.202   4.509 -23.773  1.00  0.00     0.185 HD
ENDROOT
BRANCH   6  11
HETATM   11  C3  UNL     1     -28.725   8.704 -25.389  1.00  0.00     0.064 C 
BRANCH  11  12
HETATM   12  C4  UNL     1     -29.896   9.406 -24.761  1.00  0.00     0.033 C 
BRANCH  12  13
HETATM   13  C5  UNL     1     -29.498  10.098 -23.469  1.00  0.00     0.230 C 
BRANCH  13  14
HETATM   14  N4  UNL     1     -30.672  10.368 -22.663  1.00  0.00    -0.079 N 
ATOM     15  H43 UNL     1     -31.525  10.034 -23.111  1.00  0.00     0.274 HD
ATOM     16  H42 UNL     1     -30.702   9.784 -21.827  1.00  0.00     0.274 HD
ATOM     17  H41 UNL     1     -30.723  11.361 -22.436  1.00  0.00     0.274 HD
ENDBRANCH  13  14
ENDBRANCH  12  13
ENDBRANCH  11  12
ENDBRANCH   6  11
BRANCH   1  18
HETATM   18  N1  UNL     1     -29.557   3.243 -25.453  1.00  0.00    -0.233 N 
ATOM     19  H12 UNL     1     -29.103   2.652 -26.150  1.00  0.00     0.174 HD
ATOM     20  H11 UNL     1     -30.161   2.774 -24.779  1.00  0.00     0.174 HD
ENDBRANCH   1  18
TORSDOF 5
ENDMDL
MODEL 4
REMARK VINA RESULT: -5.088304796      2.012      4.549
REMARK  5 active torsions:
REMARK  status: ('A' for Active; 'I' for Inactive)
REMARK    1  A    between atoms: N1_1  and  C1_4 
REMARK    2  A    between atoms: C2_9  and  C3_10 
REMARK    3  A    between atoms: C3_10  and  C4_11 
REMARK    4  A    between atoms: C4_11  and  C5_12 
REMARK    5  A    between atoms: C5_12  and  N4_13 
ROOT
HETATM    1  C1  UNL     1     -29.839   9.741 -23.595  1.00  0.00     0.691 A 
HETATM    2  N2  UNL     1     -28.743   8.983 -23.415  1.00  0.00    -0.132 N 
ATOM      3  H2  UNL     1     -28.183   9.111 -22.572  1.00  0.00     0.205 HD
HETATM    4  N3  UNL     1     -28.372   8.077 -24.304  1.00  0.00    -0.287 N 
ATOM      5  H3  UNL     1     -27.532   7.525 -24.130  1.00  0.00     0.187 HD
HETATM    6  C2  UNL     1     -29.069   7.865 -25.426  1.00  0.00     0.068 A 
HETATM    7  C6  UNL     1     -30.213   8.618 -25.667  1.00  0.00     0.155 A 
HETATM    8  N5  UNL     1     -30.994   8.441 -26.828  1.00  0.00    -0.080 NA
HETATM    9  N6  UNL     1     -30.539   9.529 -24.722  1.00  0.00    -0.176 N 
ATOM     10  H6  UNL     1     -31.374  10.094 -24.875  1.00  0.00     0.185 HD
ENDROOT
BRANCH   6  11
HETATM   11  C3  UNL     1     -28.616   6.844 -26.397  1.00  0.00     0.064 C 
BRANCH  11  12
HETATM   12  C4  UNL     1     -28.275   5.563 -25.688  1.00  0.00     0.033 C 
BRANCH  12  13
HETATM   13  C5  UNL     1     -29.526   4.838 -25.225  1.00  0.00     0.230 C 
BRANCH  13  14
HETATM   14  N4  UNL     1     -29.439   3.429 -25.553  1.00  0.00    -0.079 N 
ATOM     15  H43 UNL     1     -30.325   3.063 -25.901  1.00  0.00     0.274 HD
ATOM     16  H42 UNL     1     -28.871   3.266 -26.385  1.00  0.00     0.274 HD
ATOM     17  H41 UNL     1     -29.097   2.901 -24.749  1.00  0.00     0.274 HD
ENDBRANCH  13  14
ENDBRANCH  12  13
ENDBRANCH  11  12
ENDBRANCH   6  11
BRANCH   1  18
HETATM   18  N1  UNL     1     -30.221  10.645 -22.724  1.00  0.00    -0.233 N 
ATOM     19  H12 UNL     1     -29.572  11.007 -22.024  1.00  0.00     0.174 HD
ATOM     20  H11 UNL     1     -31.169  11.023 -22.706  1.00  0.00     0.174 HD
ENDBRANCH   1  18
TORSDOF 5
ENDMDL
MODEL 5
REMARK VINA RESULT: -5.009799883      1.847      3.307
REMARK  5 active torsions:
REMARK  status: ('A' for Active; 'I' for Inactive)
REMARK    1  A    between atoms: N1_1  and  C1_4 
REMARK    2  A    between atoms: C2_9  and  C3_10 
REMARK    3  A    between atoms: C3_10  and  C4_11 
REMARK    4  A    between atoms: C4_11  and  C5_12 
REMARK    5  A    between atoms: C5_12  and  N4_13 
ROOT
HETATM    1  C1  UNL     1     -32.449   6.789 -27.471  1.00  0.00     0.691 A 
HETATM    2  N2  UNL     1     -32.296   8.098 -27.206  1.00  0.00    -0.132 N 
ATOM      3  H2  UNL     1     -33.016   8.754 -27.509  1.00  0.00     0.205 HD
HETATM    4  N3  UNL     1     -31.235   8.556 -26.563  1.00  0.00    -0.287 N 
ATOM      5  H3  UNL     1     -31.157   9.558 -26.384  1.00  0.00     0.187 HD
HETATM    6  C2  UNL     1     -30.262   7.742 -26.140  1.00  0.00     0.068 A 
HETATM    7  C6  UNL     1     -30.366   6.377 -26.384  1.00  0.00     0.155 A 
HETATM    8  N5  UNL     1     -29.377   5.464 -25.961  1.00  0.00    -0.080 NA
HETATM    9  N6  UNL     1     -31.472   5.971 -27.047  1.00  0.00    -0.176 N 
ATOM     10  H6  UNL     1     -31.571   4.974 -27.239  1.00  0.00     0.185 HD
ENDROOT
BRANCH   6  11
HETATM   11  C3  UNL     1     -29.090   8.297 -25.427  1.00  0.00     0.064 C 
BRANCH  11  12
HETATM   12  C4  UNL     1     -29.415   9.650 -24.860  1.00  0.00     0.033 C 
BRANCH  12  13
HETATM   13  C5  UNL     1     -29.387   9.634 -23.341  1.00  0.00     0.230 C 
BRANCH  13  14
HETATM   14  N4  UNL     1     -30.527  10.355 -22.812  1.00  0.00    -0.079 N 
ATOM     15  H43 UNL     1     -30.296  11.324 -22.592  1.00  0.00     0.274 HD
ATOM     16  H42 UNL     1     -31.234  10.527 -23.526  1.00  0.00     0.274 HD
ATOM     17  H41 UNL     1     -30.912   9.863 -22.005  1.00  0.00     0.274 HD
ENDBRANCH  13  14
ENDBRANCH  12  13
ENDBRANCH  11  12
ENDBRANCH   6  11
BRANCH   1  18
HETATM   18  N1  UNL     1     -33.495   6.317 -28.109  1.00  0.00    -0.233 N 
ATOM     19  H12 UNL     1     -34.437   6.637 -27.881  1.00  0.00     0.174 HD
ATOM     20  H11 UNL     1     -33.415   5.620 -28.850  1.00  0.00     0.174 HD
ENDBRANCH   1  18
TORSDOF 5
ENDMDL
