MODEL 1
REMARK VINA RESULT: -6.210433771      0.000      0.000
REMARK  6 active torsions:
REMARK  status: ('A' for Active; 'I' for Inactive)
REMARK    1  A    between atoms: N1_1  and  C1_4 
REMARK    2  A    between atoms: C2_7  and  N3_8 
REMARK    3  A    between atoms: N3_8  and  N4_9 
REMARK    4  A    between atoms: N3_8  and  N6_13 
REMARK    5  A    between atoms: N4_9  and  N5_10 
REMARK    6  A    between atoms: N6_13  and  C3_15 
ROOT
HETATM    1  C1  UNL     1      -5.921   7.219  14.146  1.00  0.00     0.677 A 
HETATM    2  N2  UNL     1      -5.572   8.418  14.627  1.00  0.00    -0.174 N 
ATOM      3  H2  UNL     1      -4.629   8.571  14.983  1.00  0.00     0.186 HD
HETATM    4  C2  UNL     1      -6.458   9.412  14.640  1.00  0.00     0.160 A 
HETATM    5  C4  UNL     1      -7.721   9.189  14.157  1.00  0.00     0.070 A 
HETATM    6  C5  UNL     1      -8.070   7.953  13.664  1.00  0.00     0.110 A 
HETATM    7  N7  UNL     1      -7.157   6.973  13.664  1.00  0.00    -0.202 N 
ATOM      8  H7  UNL     1      -7.394   6.049  13.303  1.00  0.00     0.183 HD
ENDROOT
BRANCH   4   9
HETATM    9  N3  UNL     1      -6.125  10.714  15.149  1.00  0.00    -0.161 N 
BRANCH   9  10
HETATM   10  N4  UNL     1      -5.940  11.809  14.332  1.00  0.00    -0.005 NA
BRANCH  10  11
HETATM   11  N5  UNL     1      -4.624  12.284  14.327  1.00  0.00    -0.327 N 
ATOM     12  H52 UNL     1      -3.818  11.662  14.257  1.00  0.00     0.174 HD
ATOM     13  H51 UNL     1      -4.558  13.299  14.401  1.00  0.00     0.174 HD
ENDBRANCH  10  11
ENDBRANCH   9  10
BRANCH   9  14
HETATM   14  N6  UNL     1      -5.977  10.906  16.537  1.00  0.00    -0.256 N 
ATOM     15  H6  UNL     1      -5.175  11.428  16.888  1.00  0.00     0.191 HD
BRANCH  14  16
HETATM   16  C3  UNL     1      -6.922  10.387  17.449  1.00  0.00     0.370 C 
HETATM   17  O1  UNL     1      -7.899  11.115  17.783  1.00  0.00    -0.282 OA
ENDBRANCH  14  16
ENDBRANCH   9  14
ENDBRANCH   4   9
BRANCH   1  18
HETATM   18  N1  UNL     1      -5.018   6.271  14.150  1.00  0.00    -0.234 N 
ATOM     19  H12 UNL     1      -4.211   6.330  13.529  1.00  0.00     0.174 HD
ATOM     20  H11 UNL     1      -5.152   5.488  14.790  1.00  0.00     0.174 HD
ENDBRANCH   1  18
TORSDOF 6
ENDMDL
MODEL 2
REMARK VINA RESULT: -6.153378331      1.857      2.361
REMARK  6 active torsions:
REMARK  status: ('A' for Active; 'I' for Inactive)
REMARK    1  A    between atoms: N1_1  and  C1_4 
REMARK    2  A    between atoms: C2_7  and  N3_8 
REMARK    3  A    between atoms: N3_8  and  N4_9 
REMARK    4  A    between atoms: N3_8  and  N6_13 
REMARK    5  A    between atoms: N4_9  and  N5_10 
REMARK    6  A    between atoms: N6_13  and  C3_15 
ROOT
HETATM    1  C1  UNL     1      -5.867   7.192  14.142  1.00  0.00     0.677 A 
HETATM    2  N2  UNL     1      -5.536   8.397  14.620  1.00  0.00    -0.174 N 
ATOM      3  H2  UNL     1      -4.588   8.571  14.953  1.00  0.00     0.186 HD
HETATM    4  C2  UNL     1      -6.445   9.369  14.660  1.00  0.00     0.160 A 
HETATM    5  C4  UNL     1      -7.714   9.118  14.207  1.00  0.00     0.070 A 
HETATM    6  C5  UNL     1      -8.045   7.876  13.717  1.00  0.00     0.110 A 
HETATM    7  N7  UNL     1      -7.109   6.918  13.690  1.00  0.00    -0.202 N 
ATOM      8  H7  UNL     1      -7.332   5.990  13.330  1.00  0.00     0.183 HD
ENDROOT
BRANCH   4   9
HETATM    9  N3  UNL     1      -6.131  10.676  15.167  1.00  0.00    -0.161 N 
BRANCH   9  10
HETATM   10  N4  UNL     1      -6.747  11.214  16.278  1.00  0.00    -0.005 NA
BRANCH  10  11
HETATM   11  N5  UNL     1      -6.834  10.322  17.353  1.00  0.00    -0.327 N 
ATOM     12  H52 UNL     1      -7.443   9.504  17.336  1.00  0.00     0.174 HD
ATOM     13  H51 UNL     1      -6.236  10.574  18.139  1.00  0.00     0.174 HD
ENDBRANCH  10  11
ENDBRANCH   9  10
BRANCH   9  14
HETATM   14  N6  UNL     1      -5.157  11.462  14.521  1.00  0.00    -0.256 N 
ATOM     15  H6  UNL     1      -4.479  11.015  13.904  1.00  0.00     0.191 HD
BRANCH  14  16
HETATM   16  C3  UNL     1      -5.103  12.860  14.713  1.00  0.00     0.370 C 
HETATM   17  O1  UNL     1      -4.002  13.380  15.048  1.00  0.00    -0.282 OA
ENDBRANCH  14  16
ENDBRANCH   9  14
ENDBRANCH   4   9
BRANCH   1  18
HETATM   18  N1  UNL     1      -4.942   6.266  14.120  1.00  0.00    -0.234 N 
ATOM     19  H12 UNL     1      -4.010   6.483  13.768  1.00  0.00     0.174 HD
ATOM     20  H11 UNL     1      -5.187   5.338  14.464  1.00  0.00     0.174 HD
ENDBRANCH   1  18
TORSDOF 6
ENDMDL
MODEL 3
REMARK VINA RESULT: -5.956593270      4.034      5.333
REMARK  6 active torsions:
REMARK  status: ('A' for Active; 'I' for Inactive)
REMARK    1  A    between atoms: N1_1  and  C1_4 
REMARK    2  A    between atoms: C2_7  and  N3_8 
REMARK    3  A    between atoms: N3_8  and  N4_9 
REMARK    4  A    between atoms: N3_8  and  N6_13 
REMARK    5  A    between atoms: N4_9  and  N5_10 
REMARK    6  A    between atoms: N6_13  and  C3_15 
ROOT
HETATM    1  C1  UNL     1      -9.330   7.675  12.786  1.00  0.00     0.677 A 
HETATM    2  N2  UNL     1      -8.591   6.662  13.254  1.00  0.00    -0.174 N 
ATOM      3  H2  UNL     1      -8.902   5.700  13.121  1.00  0.00     0.186 HD
HETATM    4  C2  UNL     1      -7.452   6.911  13.894  1.00  0.00     0.160 A 
HETATM    5  C4  UNL     1      -7.048   8.210  14.064  1.00  0.00     0.070 A 
HETATM    6  C5  UNL     1      -7.813   9.245  13.578  1.00  0.00     0.110 A 
HETATM    7  N7  UNL     1      -8.956   8.963  12.938  1.00  0.00    -0.202 N 
ATOM      8  H7  UNL     1      -9.539   9.714  12.570  1.00  0.00     0.183 HD
ENDROOT
BRANCH   4   9
HETATM    9  N3  UNL     1      -6.630   5.852  14.415  1.00  0.00    -0.161 N 
BRANCH   9  10
HETATM   10  N4  UNL     1      -5.309   6.036  14.763  1.00  0.00    -0.005 NA
BRANCH  10  11
HETATM   11  N5  UNL     1      -4.421   5.862  13.695  1.00  0.00    -0.327 N 
ATOM     12  H52 UNL     1      -3.860   5.018  13.583  1.00  0.00     0.174 HD
ATOM     13  H51 UNL     1      -4.396   6.655  13.055  1.00  0.00     0.174 HD
ENDBRANCH  10  11
ENDBRANCH   9  10
BRANCH   9  14
HETATM   14  N6  UNL     1      -7.174   4.564  14.586  1.00  0.00    -0.256 N 
ATOM     15  H6  UNL     1      -8.178   4.424  14.472  1.00  0.00     0.191 HD
BRANCH  14  16
HETATM   16  C3  UNL     1      -6.352   3.463  14.912  1.00  0.00     0.370 C 
HETATM   17  O1  UNL     1      -5.900   2.750  13.972  1.00  0.00    -0.282 OA
ENDBRANCH  14  16
ENDBRANCH   9  14
ENDBRANCH   4   9
BRANCH   1  18
HETATM   18  N1  UNL     1     -10.443   7.385  12.161  1.00  0.00    -0.234 N 
ATOM     19  H12 UNL     1     -10.413   6.967  11.231  1.00  0.00     0.174 HD
ATOM     20  H11 UNL     1     -11.323   7.588  12.635  1.00  0.00     0.174 HD
ENDBRANCH   1  18
TORSDOF 6
ENDMDL
MODEL 4
REMARK VINA RESULT: -5.914590439      2.454      3.131
REMARK  6 active torsions:
REMARK  status: ('A' for Active; 'I' for Inactive)
REMARK    1  A    between atoms: N1_1  and  C1_4 
REMARK    2  A    between atoms: C2_7  and  N3_8 
REMARK    3  A    between atoms: N3_8  and  N4_9 
REMARK    4  A    between atoms: N3_8  and  N6_13 
REMARK    5  A    between atoms: N4_9  and  N5_10 
REMARK    6  A    between atoms: N6_13  and  C3_15 
ROOT
HETATM    1  C1  UNL     1      -4.897   7.271  16.664  1.00  0.00     0.677 A 
HETATM    2  N2  UNL     1      -5.227   8.568  16.692  1.00  0.00    -0.174 N 
ATOM      3  H2  UNL     1      -5.054   9.121  17.531  1.00  0.00     0.186 HD
HETATM    4  C2  UNL     1      -5.782   9.135  15.623  1.00  0.00     0.160 A 
HETATM    5  C4  UNL     1      -6.006   8.378  14.503  1.00  0.00     0.070 A 
HETATM    6  C5  UNL     1      -5.663   7.046  14.484  1.00  0.00     0.110 A 
HETATM    7  N7  UNL     1      -5.107   6.503  15.575  1.00  0.00    -0.202 N 
ATOM      8  H7  UNL     1      -4.844   5.517  15.582  1.00  0.00     0.183 HD
ENDROOT
BRANCH   4   9
HETATM    9  N3  UNL     1      -6.153  10.524  15.612  1.00  0.00    -0.161 N 
BRANCH   9  10
HETATM   10  N4  UNL     1      -6.578  11.192  16.740  1.00  0.00    -0.005 NA
BRANCH  10  11
HETATM   11  N5  UNL     1      -7.776  10.693  17.265  1.00  0.00    -0.327 N 
ATOM     12  H52 UNL     1      -8.668  10.792  16.781  1.00  0.00     0.174 HD
ATOM     13  H51 UNL     1      -7.663  10.228  18.165  1.00  0.00     0.174 HD
ENDBRANCH  10  11
ENDBRANCH   9  10
BRANCH   9  14
HETATM   14  N6  UNL     1      -6.086  11.256  14.410  1.00  0.00    -0.256 N 
ATOM     15  H6  UNL     1      -6.587  10.918  13.588  1.00  0.00     0.191 HD
BRANCH  14  16
HETATM   16  C3  UNL     1      -5.338  12.451  14.325  1.00  0.00     0.370 C 
HETATM   17  O1  UNL     1      -5.071  12.913  13.180  1.00  0.00    -0.282 OA
ENDBRANCH  14  16
ENDBRANCH   9  14
ENDBRANCH   4   9
BRANCH   1  18
HETATM   18  N1  UNL     1      -4.352   6.754  17.737  1.00  0.00    -0.234 N 
ATOM     19  H12 UNL     1      -4.923   6.222  18.393  1.00  0.00     0.174 HD
ATOM     20  H11 UNL     1      -3.354   6.903  17.884  1.00  0.00     0.174 HD
ENDBRANCH   1  18
TORSDOF 6
ENDMDL
MODEL 5
REMARK VINA RESULT: -5.790697903      2.872      4.948
REMARK  6 active torsions:
REMARK  status: ('A' for Active; 'I' for Inactive)
REMARK    1  A    between atoms: N1_1  and  C1_4 
REMARK    2  A    between atoms: C2_7  and  N3_8 
REMARK    3  A    between atoms: N3_8  and  N4_9 
REMARK    4  A    between atoms: N3_8  and  N6_13 
REMARK    5  A    between atoms: N4_9  and  N5_10 
REMARK    6  A    between atoms: N6_13  and  C3_15 
ROOT
HETATM    1  C1  UNL     1      -6.551   9.859  14.704  1.00  0.00     0.677 A 
HETATM    2  N2  UNL     1      -6.035   8.633  14.851  1.00  0.00    -0.174 N 
ATOM      3  H2  UNL     1      -5.219   8.491  15.446  1.00  0.00     0.186 HD
HETATM    4  C2  UNL     1      -6.588   7.599  14.221  1.00  0.00     0.160 A 
HETATM    5  C4  UNL     1      -7.685   7.808  13.427  1.00  0.00     0.070 A 
HETATM    6  C5  UNL     1      -8.208   9.072  13.282  1.00  0.00     0.110 A 
HETATM    7  N7  UNL     1      -7.630  10.093  13.928  1.00  0.00    -0.202 N 
ATOM      8  H7  UNL     1      -8.001  11.038  13.835  1.00  0.00     0.183 HD
ENDROOT
BRANCH   4   9
HETATM    9  N3  UNL     1      -6.065   6.267  14.351  1.00  0.00    -0.161 N 
BRANCH   9  10
HETATM   10  N4  UNL     1      -4.720   6.005  14.505  1.00  0.00    -0.005 NA
BRANCH  10  11
HETATM   11  N5  UNL     1      -4.074   5.685  13.306  1.00  0.00    -0.327 N 
ATOM     12  H52 UNL     1      -3.057   5.673  13.218  1.00  0.00     0.174 HD
ATOM     13  H51 UNL     1      -4.716   5.470  12.544  1.00  0.00     0.174 HD
ENDBRANCH  10  11
ENDBRANCH   9  10
BRANCH   9  14
HETATM   14  N6  UNL     1      -6.942   5.165  14.325  1.00  0.00    -0.256 N 
ATOM     15  H6  UNL     1      -7.867   5.270  13.908  1.00  0.00     0.191 HD
BRANCH  14  16
HETATM   16  C3  UNL     1      -6.561   3.918  14.866  1.00  0.00     0.370 C 
HETATM   17  O1  UNL     1      -5.995   3.081  14.108  1.00  0.00    -0.282 OA
ENDBRANCH  14  16
ENDBRANCH   9  14
ENDBRANCH   4   9
BRANCH   1  18
HETATM   18  N1  UNL     1      -5.976  10.847  15.343  1.00  0.00    -0.234 N 
ATOM     19  H12 UNL     1      -4.959  10.902  15.390  1.00  0.00     0.174 HD
ATOM     20  H11 UNL     1      -6.576  11.545  15.781  1.00  0.00     0.174 HD
ENDBRANCH   1  18
TORSDOF 6
ENDMDL
