MODEL 1
REMARK VINA RESULT: -7.092604927      0.000      0.000
REMARK  4 active torsions:
REMARK  status: ('A' for Active; 'I' for Inactive)
REMARK    1  A    between atoms: C3_5  and  N2_6 
REMARK    2  A    between atoms: C7_14  and  N4_15 
REMARK       I    between atoms: N4_15  and  C8_17 
REMARK    3  A    between atoms: C8_17  and  O2_19 
REMARK    4  A    between atoms: O2_19  and  C9_20 
ROOT
HETATM    1  C1  UNL     1      22.797   5.235  22.320  1.00  0.00     0.069 C 
HETATM    2  C2  UNL     1      22.064   6.489  22.594  1.00  0.00     0.033 A 
HETATM    3  N1  UNL     1      21.637   6.818  23.819  1.00  0.00    -0.196 N 
ATOM      4  H1  UNL     1      21.828   6.175  24.588  1.00  0.00     0.184 HD
HETATM    5  C3  UNL     1      20.970   7.953  24.083  1.00  0.00     0.677 A 
HETATM    6  N3  UNL     1      20.731   8.781  23.057  1.00  0.00    -0.175 N 
ATOM      7  H3  UNL     1      20.226   9.651  23.230  1.00  0.00     0.186 HD
HETATM    8  C4  UNL     1      21.145   8.493  21.784  1.00  0.00     0.144 A 
HETATM    9  C5  UNL     1      21.827   7.334  21.511  1.00  0.00     0.018 A 
HETATM   10  C6  UNL     1      22.302   6.967  20.176  1.00  0.00     0.122 A 
HETATM   11  C7  UNL     1      21.963   7.962  19.139  1.00  0.00     0.104 A 
HETATM   12  N5  UNL     1      21.317   9.036  19.443  1.00  0.00    -0.287 N 
ATOM     13  H5  UNL     1      21.113   9.687  18.685  1.00  0.00     0.188 HD
HETATM   14  N6  UNL     1      20.877   9.380  20.710  1.00  0.00    -0.283 N 
ATOM     15  H6  UNL     1      20.372  10.252  20.868  1.00  0.00     0.188 HD
ENDROOT
BRANCH  11  16
HETATM   16  N4  UNL     1      22.364   7.707  17.784  1.00  0.00    -0.290 N 
HETATM   17  C8  UNL     1      22.274   8.622  16.725  1.00  0.00     0.366 C 
HETATM   18  O1  UNL     1      21.840   9.778  16.803  1.00  0.00    -0.238 OA
ATOM     19  H4  UNL     1      22.745   6.784  17.574  1.00  0.00     0.172 HD
BRANCH  17  20
HETATM   20  O2  UNL     1      22.706   8.222  15.452  1.00  0.00    -0.294 OA
BRANCH  20  21
HETATM   21  C9  UNL     1      24.001   7.718  15.235  1.00  0.00     0.061 C 
HETATM   22  C10 UNL     1      24.040   6.247  15.665  1.00  0.00     0.046 C 
HETATM   23  C11 UNL     1      24.971   8.539  16.048  1.00  0.00     0.046 C 
HETATM   24  C12 UNL     1      24.296   7.835  13.748  1.00  0.00     0.046 C 
ENDBRANCH  20  21
ENDBRANCH  17  20
ENDBRANCH  11  16
BRANCH   5  25
HETATM   25  N2  UNL     1      20.596   8.190  25.292  1.00  0.00    -0.234 N 
ATOM     26  H22 UNL     1      20.100   7.514  25.872  1.00  0.00     0.174 HD
ATOM     27  H21 UNL     1      20.803   9.100  25.704  1.00  0.00     0.174 HD
ENDBRANCH   5  25
TORSDOF 4
ENDMDL
MODEL 2
REMARK VINA RESULT: -6.542867850      3.090      7.374
REMARK  4 active torsions:
REMARK  status: ('A' for Active; 'I' for Inactive)
REMARK    1  A    between atoms: C3_5  and  N2_6 
REMARK    2  A    between atoms: C7_14  and  N4_15 
REMARK       I    between atoms: N4_15  and  C8_17 
REMARK    3  A    between atoms: C8_17  and  O2_19 
REMARK    4  A    between atoms: O2_19  and  C9_20 
ROOT
HETATM    1  C1  UNL     1      23.672   5.069  21.199  1.00  0.00     0.069 C 
HETATM    2  C2  UNL     1      23.403   6.032  20.110  1.00  0.00     0.033 A 
HETATM    3  N1  UNL     1      23.988   5.940  18.911  1.00  0.00    -0.196 N 
ATOM      4  H1  UNL     1      24.643   5.175  18.747  1.00  0.00     0.184 HD
HETATM    5  C3  UNL     1      23.754   6.807  17.912  1.00  0.00     0.677 A 
HETATM    6  N3  UNL     1      22.890   7.804  18.151  1.00  0.00    -0.175 N 
ATOM      7  H3  UNL     1      22.694   8.478  17.410  1.00  0.00     0.186 HD
HETATM    8  C4  UNL     1      22.265   7.945  19.361  1.00  0.00     0.144 A 
HETATM    9  C5  UNL     1      22.502   7.059  20.382  1.00  0.00     0.018 A 
HETATM   10  C6  UNL     1      21.864   7.149  21.697  1.00  0.00     0.122 A 
HETATM   11  C7  UNL     1      20.946   8.297  21.827  1.00  0.00     0.104 A 
HETATM   12  N5  UNL     1      20.757   9.104  20.840  1.00  0.00    -0.287 N 
ATOM     13  H5  UNL     1      20.109   9.878  20.988  1.00  0.00     0.188 HD
HETATM   14  N6  UNL     1      21.358   9.010  19.596  1.00  0.00    -0.283 N 
ATOM     15  H6  UNL     1      21.153   9.691  18.865  1.00  0.00     0.188 HD
ENDROOT
BRANCH  11  16
HETATM   16  N4  UNL     1      20.269   8.498  23.077  1.00  0.00    -0.290 N 
HETATM   17  C8  UNL     1      20.492   9.567  23.959  1.00  0.00     0.366 C 
HETATM   18  O1  UNL     1      21.299  10.488  23.788  1.00  0.00    -0.238 OA
ATOM     19  H4  UNL     1      19.568   7.808  23.347  1.00  0.00     0.172 HD
BRANCH  17  20
HETATM   20  O2  UNL     1      19.750   9.624  25.147  1.00  0.00    -0.294 OA
BRANCH  20  21
HETATM   21  C9  UNL     1      20.145   8.921  26.300  1.00  0.00     0.061 C 
HETATM   22  C10 UNL     1      21.038   9.830  27.154  1.00  0.00     0.046 C 
HETATM   23  C11 UNL     1      20.895   7.685  25.869  1.00  0.00     0.046 C 
HETATM   24  C12 UNL     1      18.885   8.557  27.069  1.00  0.00     0.046 C 
ENDBRANCH  20  21
ENDBRANCH  17  20
ENDBRANCH  11  16
BRANCH   5  25
HETATM   25  N2  UNL     1      24.361   6.644  16.789  1.00  0.00    -0.234 N 
ATOM     26  H22 UNL     1      24.456   7.379  16.087  1.00  0.00     0.174 HD
ATOM     27  H21 UNL     1      24.773   5.736  16.576  1.00  0.00     0.174 HD
ENDBRANCH   5  25
TORSDOF 4
ENDMDL
MODEL 3
REMARK VINA RESULT: -6.169325478      1.057      1.540
REMARK  4 active torsions:
REMARK  status: ('A' for Active; 'I' for Inactive)
REMARK    1  A    between atoms: C3_5  and  N2_6 
REMARK    2  A    between atoms: C7_14  and  N4_15 
REMARK       I    between atoms: N4_15  and  C8_17 
REMARK    3  A    between atoms: C8_17  and  O2_19 
REMARK    4  A    between atoms: O2_19  and  C9_20 
ROOT
HETATM    1  C1  UNL     1      22.755   5.221  22.301  1.00  0.00     0.069 C 
HETATM    2  C2  UNL     1      22.031   6.464  22.645  1.00  0.00     0.033 A 
HETATM    3  N1  UNL     1      21.640   6.743  23.893  1.00  0.00    -0.196 N 
ATOM      4  H1  UNL     1      21.852   6.071  24.631  1.00  0.00     0.184 HD
HETATM    5  C3  UNL     1      20.982   7.867  24.222  1.00  0.00     0.677 A 
HETATM    6  N3  UNL     1      20.715   8.736  23.236  1.00  0.00    -0.175 N 
ATOM      7  H3  UNL     1      20.216   9.597  23.457  1.00  0.00     0.186 HD
HETATM    8  C4  UNL     1      21.092   8.498  21.941  1.00  0.00     0.144 A 
HETATM    9  C5  UNL     1      21.765   7.350  21.604  1.00  0.00     0.018 A 
HETATM   10  C6  UNL     1      22.201   7.037  20.241  1.00  0.00     0.122 A 
HETATM   11  C7  UNL     1      21.834   8.072  19.255  1.00  0.00     0.104 A 
HETATM   12  N5  UNL     1      21.199   9.133  19.619  1.00  0.00    -0.287 N 
ATOM     13  H5  UNL     1      20.974   9.814  18.894  1.00  0.00     0.188 HD
HETATM   14  N6  UNL     1      20.796   9.427  20.911  1.00  0.00    -0.283 N 
ATOM     15  H6  UNL     1      20.296  10.292  21.118  1.00  0.00     0.188 HD
ENDROOT
BRANCH  11  16
HETATM   16  N4  UNL     1      22.196   7.871  17.880  1.00  0.00    -0.290 N 
HETATM   17  C8  UNL     1      23.206   7.011  17.423  1.00  0.00     0.366 C 
HETATM   18  O1  UNL     1      23.927   6.301  18.135  1.00  0.00    -0.238 OA
ATOM     19  H4  UNL     1      21.676   8.398  17.178  1.00  0.00     0.172 HD
BRANCH  17  20
HETATM   20  O2  UNL     1      23.443   6.926  16.044  1.00  0.00    -0.294 OA
BRANCH  20  21
HETATM   21  C9  UNL     1      23.849   8.044  15.293  1.00  0.00     0.061 C 
HETATM   22  C10 UNL     1      22.664   9.007  15.154  1.00  0.00     0.046 C 
HETATM   23  C11 UNL     1      24.310   7.563  13.939  1.00  0.00     0.046 C 
HETATM   24  C12 UNL     1      24.982   8.718  16.050  1.00  0.00     0.046 C 
ENDBRANCH  20  21
ENDBRANCH  17  20
ENDBRANCH  11  16
BRANCH   5  25
HETATM   25  N2  UNL     1      20.643   8.056  25.449  1.00  0.00    -0.234 N 
ATOM     26  H22 UNL     1      21.019   7.515  26.228  1.00  0.00     0.174 HD
ATOM     27  H21 UNL     1      19.962   8.784  25.668  1.00  0.00     0.174 HD
ENDBRANCH   5  25
TORSDOF 4
ENDMDL
MODEL 4
REMARK VINA RESULT: -6.107917808      3.947      8.062
REMARK  4 active torsions:
REMARK  status: ('A' for Active; 'I' for Inactive)
REMARK    1  A    between atoms: C3_5  and  N2_6 
REMARK    2  A    between atoms: C7_14  and  N4_15 
REMARK       I    between atoms: N4_15  and  C8_17 
REMARK    3  A    between atoms: C8_17  and  O2_19 
REMARK    4  A    between atoms: O2_19  and  C9_20 
ROOT
HETATM    1  C1  UNL     1      21.507   9.029  18.895  1.00  0.00     0.069 C 
HETATM    2  C2  UNL     1      22.251   7.831  19.337  1.00  0.00     0.033 A 
HETATM    3  N1  UNL     1      22.999   7.103  18.501  1.00  0.00    -0.196 N 
ATOM      4  H1  UNL     1      23.055   7.390  17.523  1.00  0.00     0.184 HD
HETATM    5  C3  UNL     1      23.681   6.012  18.888  1.00  0.00     0.677 A 
HETATM    6  N3  UNL     1      23.592   5.654  20.176  1.00  0.00    -0.175 N 
ATOM      7  H3  UNL     1      24.100   4.829  20.497  1.00  0.00     0.186 HD
HETATM    8  C4  UNL     1      22.840   6.363  21.074  1.00  0.00     0.144 A 
HETATM    9  C5  UNL     1      22.143   7.478  20.681  1.00  0.00     0.018 A 
HETATM   10  C6  UNL     1      21.324   8.285  21.589  1.00  0.00     0.122 A 
HETATM   11  C7  UNL     1      21.307   7.773  22.973  1.00  0.00     0.104 A 
HETATM   12  N5  UNL     1      21.975   6.719  23.294  1.00  0.00    -0.287 N 
ATOM     13  H5  UNL     1      21.926   6.414  24.267  1.00  0.00     0.188 HD
HETATM   14  N6  UNL     1      22.754   5.965  22.432  1.00  0.00    -0.283 N 
ATOM     15  H6  UNL     1      23.255   5.142  22.767  1.00  0.00     0.188 HD
ENDROOT
BRANCH  11  16
HETATM   16  N4  UNL     1      20.526   8.473  23.955  1.00  0.00    -0.290 N 
HETATM   17  C8  UNL     1      20.303   8.043  25.271  1.00  0.00     0.366 C 
HETATM   18  O1  UNL     1      20.746   7.005  25.778  1.00  0.00    -0.238 OA
ATOM     19  H4  UNL     1      20.099   9.355  23.671  1.00  0.00     0.172 HD
BRANCH  17  20
HETATM   20  O2  UNL     1      19.513   8.839  26.113  1.00  0.00    -0.294 OA
BRANCH  20  21
HETATM   21  C9  UNL     1      20.080   9.642  27.118  1.00  0.00     0.061 C 
HETATM   22  C10 UNL     1      21.172   8.841  27.838  1.00  0.00     0.046 C 
HETATM   23  C11 UNL     1      18.988  10.041  28.080  1.00  0.00     0.046 C 
HETATM   24  C12 UNL     1      20.689  10.861  26.443  1.00  0.00     0.046 C 
ENDBRANCH  20  21
ENDBRANCH  17  20
ENDBRANCH  11  16
BRANCH   5  25
HETATM   25  N2  UNL     1      24.377   5.369  18.016  1.00  0.00    -0.234 N 
ATOM     26  H22 UNL     1      24.009   4.603  17.453  1.00  0.00     0.174 HD
ATOM     27  H21 UNL     1      25.353   5.632  17.871  1.00  0.00     0.174 HD
ENDBRANCH   5  25
TORSDOF 4
ENDMDL
MODEL 5
REMARK VINA RESULT: -6.068762875      3.354      7.753
REMARK  4 active torsions:
REMARK  status: ('A' for Active; 'I' for Inactive)
REMARK    1  A    between atoms: C3_5  and  N2_6 
REMARK    2  A    between atoms: C7_14  and  N4_15 
REMARK       I    between atoms: N4_15  and  C8_17 
REMARK    3  A    between atoms: C8_17  and  O2_19 
REMARK    4  A    between atoms: O2_19  and  C9_20 
ROOT
HETATM    1  C1  UNL     1      23.695   5.610  19.679  1.00  0.00     0.069 C 
HETATM    2  C2  UNL     1      22.984   6.803  19.173  1.00  0.00     0.033 A 
HETATM    3  N1  UNL     1      23.053   7.190  17.895  1.00  0.00    -0.196 N 
ATOM      4  H1  UNL     1      23.618   6.638  17.249  1.00  0.00     0.184 HD
HETATM    5  C3  UNL     1      22.412   8.272  17.420  1.00  0.00     0.677 A 
HETATM    6  N3  UNL     1      21.676   8.982  18.286  1.00  0.00    -0.175 N 
ATOM      7  H3  UNL     1      21.179   9.808  17.953  1.00  0.00     0.186 HD
HETATM    8  C4  UNL     1      21.572   8.630  19.605  1.00  0.00     0.144 A 
HETATM    9  C5  UNL     1      22.226   7.525  20.092  1.00  0.00     0.018 A 
HETATM   10  C6  UNL     1      22.153   7.091  21.489  1.00  0.00     0.122 A 
HETATM   11  C7  UNL     1      21.319   7.967  22.334  1.00  0.00     0.104 A 
HETATM   12  N5  UNL     1      20.727   8.996  21.832  1.00  0.00    -0.287 N 
ATOM     13  H5  UNL     1      20.162   9.563  22.464  1.00  0.00     0.188 HD
HETATM   14  N6  UNL     1      20.792   9.397  20.508  1.00  0.00    -0.283 N 
ATOM     15  H6  UNL     1      20.291  10.227  20.189  1.00  0.00     0.188 HD
ENDROOT
BRANCH  11  16
HETATM   16  N4  UNL     1      21.182   7.651  23.728  1.00  0.00    -0.290 N 
HETATM   17  C8  UNL     1      20.460   8.406  24.665  1.00  0.00     0.366 C 
HETATM   18  O1  UNL     1      19.837   9.448  24.427  1.00  0.00    -0.238 OA
ATOM     19  H4  UNL     1      21.648   6.808  24.065  1.00  0.00     0.172 HD
BRANCH  17  20
HETATM   20  O2  UNL     1      20.422   7.966  25.996  1.00  0.00    -0.294 OA
BRANCH  20  21
HETATM   21  C9  UNL     1      20.305   8.868  27.069  1.00  0.00     0.061 C 
HETATM   22  C10 UNL     1      18.916   8.711  27.701  1.00  0.00     0.046 C 
HETATM   23  C11 UNL     1      20.495  10.267  26.536  1.00  0.00     0.046 C 
HETATM   24  C12 UNL     1      21.382   8.516  28.083  1.00  0.00     0.046 C 
ENDBRANCH  20  21
ENDBRANCH  17  20
ENDBRANCH  11  16
BRANCH   5  25
HETATM   25  N2  UNL     1      22.533   8.572  16.174  1.00  0.00    -0.234 N 
ATOM     26  H22 UNL     1      23.160   8.084  15.535  1.00  0.00     0.174 HD
ATOM     27  H21 UNL     1      21.977   9.338  15.794  1.00  0.00     0.174 HD
ENDBRANCH   5  25
TORSDOF 4
ENDMDL
