MODEL 1
REMARK VINA RESULT: -7.766917516      0.000      0.000
REMARK  2 active torsions:
REMARK  status: ('A' for Active; 'I' for Inactive)
REMARK    1  A    between atoms: C5_11  and  N4_12 
REMARK    2  A    between atoms: C6_17  and  N6_18 
ROOT
HETATM    1  C1  UNL     1      22.797   9.386  14.968  1.00  0.00     0.064 C 
HETATM    2  C2  UNL     1      23.220   8.519  16.140  1.00  0.00    -0.011 C 
HETATM    3  N1  UNL     1      22.426   8.687  17.120  1.00  0.00    -0.347 N 
ATOM      4  H1  UNL     1      21.670   9.351  16.955  1.00  0.00     0.167 HD
HETATM    5  C3  UNL     1      22.435   8.097  18.391  1.00  0.00     0.141 A 
HETATM    6  N2  UNL     1      21.743   8.809  19.298  1.00  0.00    -0.324 N 
ATOM      7  H2  UNL     1      21.286   9.678  19.025  1.00  0.00     0.169 HD
HETATM    8  C4  UNL     1      21.657   8.375  20.555  1.00  0.00     0.153 A 
HETATM    9  N3  UNL     1      20.977   9.042  21.515  1.00  0.00    -0.174 N 
ATOM     10  H3  UNL     1      20.508   9.915  21.275  1.00  0.00     0.186 HD
HETATM   11  C5  UNL     1      20.903   8.586  22.773  1.00  0.00     0.679 A 
HETATM   12  N5  UNL     1      21.508   7.429  23.148  1.00  0.00    -0.175 N 
ATOM     13  H5  UNL     1      21.440   7.099  24.110  1.00  0.00     0.186 HD
HETATM   14  C6  UNL     1      22.191   6.731  22.246  1.00  0.00     0.145 A 
HETATM   15  C7  UNL     1      22.264   7.207  20.949  1.00  0.00     0.123 A 
HETATM   16  N7  UNL     1      22.965   6.463  20.075  1.00  0.00    -0.342 N 
ATOM     17  H7  UNL     1      23.421   5.593  20.351  1.00  0.00     0.167 HD
HETATM   18  C8  UNL     1      23.030   6.931  18.824  1.00  0.00     0.115 A 
HETATM   19  S1  UNL     1      24.002   5.836  17.767  1.00  0.00    -0.108 SA
HETATM   20  C9  UNL     1      25.103   6.966  16.834  1.00  0.00     0.091 C 
HETATM   21  C10 UNL     1      24.386   7.753  15.831  1.00  0.00     0.036 C 
HETATM   22  C11 UNL     1      23.999   6.782  14.698  1.00  0.00     0.017 C 
ENDROOT
BRANCH  11  23
HETATM   23  N4  UNL     1      20.250   9.236  23.680  1.00  0.00    -0.234 N 
ATOM     24  H42 UNL     1      20.384  10.246  23.722  1.00  0.00     0.174 HD
ATOM     25  H41 UNL     1      19.626   8.753  24.326  1.00  0.00     0.174 HD
ENDBRANCH  11  23
BRANCH  14  26
HETATM   26  N6  UNL     1      22.779   5.628  22.566  1.00  0.00    -0.383 N 
ATOM     27  H62 UNL     1      23.682   5.647  23.039  1.00  0.00     0.157 HD
ATOM     28  H61 UNL     1      22.353   4.725  22.354  1.00  0.00     0.157 HD
ENDBRANCH  14  26
TORSDOF 2
ENDMDL
MODEL 2
REMARK VINA RESULT: -6.541648417      2.251      4.189
REMARK  2 active torsions:
REMARK  status: ('A' for Active; 'I' for Inactive)
REMARK    1  A    between atoms: C5_11  and  N4_12 
REMARK    2  A    between atoms: C6_17  and  N6_18 
ROOT
HETATM    1  C1  UNL     1      23.737   5.273  19.063  1.00  0.00     0.064 C 
HETATM    2  C2  UNL     1      22.805   6.357  19.577  1.00  0.00    -0.011 C 
HETATM    3  N1  UNL     1      22.829   6.390  20.849  1.00  0.00    -0.347 N 
ATOM      4  H1  UNL     1      23.447   5.708  21.288  1.00  0.00     0.167 HD
HETATM    5  C3  UNL     1      22.133   7.222  21.736  1.00  0.00     0.141 A 
HETATM    6  N2  UNL     1      22.054   6.708  22.976  1.00  0.00    -0.324 N 
ATOM      7  H2  UNL     1      22.475   5.802  23.181  1.00  0.00     0.169 HD
HETATM    8  C4  UNL     1      21.424   7.384  23.935  1.00  0.00     0.153 A 
HETATM    9  N3  UNL     1      21.308   6.925  25.201  1.00  0.00    -0.174 N 
ATOM     10  H3  UNL     1      21.718   6.022  25.440  1.00  0.00     0.186 HD
HETATM   11  C5  UNL     1      20.669   7.623  26.150  1.00  0.00     0.679 A 
HETATM   12  N5  UNL     1      20.105   8.830  25.887  1.00  0.00    -0.175 N 
ATOM     13  H5  UNL     1      19.624   9.346  26.624  1.00  0.00     0.186 HD
HETATM   14  C6  UNL     1      20.187   9.332  24.659  1.00  0.00     0.145 A 
HETATM   15  C7  UNL     1      20.847   8.606  23.684  1.00  0.00     0.123 A 
HETATM   16  N7  UNL     1      20.903   9.159  22.459  1.00  0.00    -0.342 N 
ATOM     17  H7  UNL     1      20.481  10.066  22.257  1.00  0.00     0.167 HD
HETATM   18  C8  UNL     1      21.543   8.450  21.523  1.00  0.00     0.115 A 
HETATM   19  S1  UNL     1      21.536   9.309  19.935  1.00  0.00    -0.108 SA
HETATM   20  C9  UNL     1      21.085   8.013  18.720  1.00  0.00     0.091 C 
HETATM   21  C10 UNL     1      22.158   7.043  18.504  1.00  0.00     0.036 C 
HETATM   22  C11 UNL     1      23.258   7.769  17.705  1.00  0.00     0.017 C 
ENDROOT
BRANCH  11  23
HETATM   23  N4  UNL     1      20.568   7.169  27.357  1.00  0.00    -0.234 N 
ATOM     24  H42 UNL     1      19.838   6.479  27.539  1.00  0.00     0.174 HD
ATOM     25  H41 UNL     1      21.194   7.491  28.094  1.00  0.00     0.174 HD
ENDBRANCH  11  23
BRANCH  14  26
HETATM   26  N6  UNL     1      19.662  10.476  24.373  1.00  0.00    -0.383 N 
ATOM     27  H62 UNL     1      19.371  10.681  23.417  1.00  0.00     0.157 HD
ATOM     28  H61 UNL     1      19.528  11.187  25.092  1.00  0.00     0.157 HD
ENDBRANCH  14  26
TORSDOF 2
ENDMDL
MODEL 3
REMARK VINA RESULT: -5.961838780      2.781      4.384
REMARK  2 active torsions:
REMARK  status: ('A' for Active; 'I' for Inactive)
REMARK    1  A    between atoms: C5_11  and  N4_12 
REMARK    2  A    between atoms: C6_17  and  N6_18 
ROOT
HETATM    1  C1  UNL     1      21.336   9.391  18.912  1.00  0.00     0.064 C 
HETATM    2  C2  UNL     1      21.725   8.597  20.147  1.00  0.00    -0.011 C 
HETATM    3  N1  UNL     1      21.017   8.957  21.141  1.00  0.00    -0.347 N 
ATOM      4  H1  UNL     1      20.335   9.689  20.945  1.00  0.00     0.167 HD
HETATM    5  C3  UNL     1      21.033   8.498  22.465  1.00  0.00     0.141 A 
HETATM    6  N2  UNL     1      20.485   9.374  23.325  1.00  0.00    -0.324 N 
ATOM      7  H2  UNL     1      20.118  10.262  22.985  1.00  0.00     0.169 HD
HETATM    8  C4  UNL     1      20.425   9.080  24.623  1.00  0.00     0.153 A 
HETATM    9  N3  UNL     1      19.887   9.916  25.540  1.00  0.00    -0.174 N 
ATOM     10  H3  UNL     1      19.510  10.812  25.233  1.00  0.00     0.186 HD
HETATM   11  C5  UNL     1      19.836   9.598  26.841  1.00  0.00     0.679 A 
HETATM   12  N5  UNL     1      20.323   8.418  27.305  1.00  0.00    -0.175 N 
ATOM     13  H5  UNL     1      20.275   8.195  28.299  1.00  0.00     0.186 HD
HETATM   14  C6  UNL     1      20.863   7.557  26.449  1.00  0.00     0.145 A 
HETATM   15  C7  UNL     1      20.913   7.891  25.107  1.00  0.00     0.123 A 
HETATM   16  N7  UNL     1      21.469   6.984  24.284  1.00  0.00    -0.342 N 
ATOM     17  H7  UNL     1      21.835   6.096  24.627  1.00  0.00     0.167 HD
HETATM   18  C8  UNL     1      21.512   7.315  22.989  1.00  0.00     0.115 A 
HETATM   19  S1  UNL     1      22.284   6.011  22.007  1.00  0.00    -0.108 SA
HETATM   20  C9  UNL     1      23.451   6.901  20.909  1.00  0.00     0.091 C 
HETATM   21  C10 UNL     1      22.773   7.668  19.864  1.00  0.00     0.036 C 
HETATM   22  C11 UNL     1      22.207   6.644  18.860  1.00  0.00     0.017 C 
ENDROOT
BRANCH  11  23
HETATM   23  N4  UNL     1      19.319  10.409  27.705  1.00  0.00    -0.234 N 
ATOM     24  H42 UNL     1      19.196  11.381  27.421  1.00  0.00     0.174 HD
ATOM     25  H41 UNL     1      19.047  10.085  28.633  1.00  0.00     0.174 HD
ENDBRANCH  11  23
BRANCH  14  26
HETATM   26  N6  UNL     1      21.337   6.426  26.854  1.00  0.00    -0.383 N 
ATOM     27  H62 UNL     1      21.379   6.217  27.851  1.00  0.00     0.157 HD
ATOM     28  H61 UNL     1      21.672   5.729  26.189  1.00  0.00     0.157 HD
ENDBRANCH  14  26
TORSDOF 2
ENDMDL
MODEL 4
REMARK VINA RESULT: -5.864962778      2.108      3.543
REMARK  2 active torsions:
REMARK  status: ('A' for Active; 'I' for Inactive)
REMARK    1  A    between atoms: C5_11  and  N4_12 
REMARK    2  A    between atoms: C6_17  and  N6_18 
ROOT
HETATM    1  C1  UNL     1      22.851   7.510  17.944  1.00  0.00     0.064 C 
HETATM    2  C2  UNL     1      22.921   7.027  19.382  1.00  0.00    -0.011 C 
HETATM    3  N1  UNL     1      22.108   7.685  20.106  1.00  0.00    -0.347 N 
ATOM      4  H1  UNL     1      21.569   8.398  19.614  1.00  0.00     0.167 HD
HETATM    5  C3  UNL     1      21.842   7.579  21.478  1.00  0.00     0.141 A 
HETATM    6  N2  UNL     1      21.275   8.687  21.985  1.00  0.00    -0.324 N 
ATOM      7  H2  UNL     1      21.087   9.487  21.381  1.00  0.00     0.169 HD
HETATM    8  C4  UNL     1      20.959   8.739  23.278  1.00  0.00     0.153 A 
HETATM    9  N3  UNL     1      20.387   9.822  23.850  1.00  0.00    -0.174 N 
ATOM     10  H3  UNL     1      20.185  10.639  23.274  1.00  0.00     0.186 HD
HETATM   11  C5  UNL     1      20.077   9.851  25.153  1.00  0.00     0.679 A 
HETATM   12  N5  UNL     1      20.323   8.792  25.967  1.00  0.00    -0.175 N 
ATOM     13  H5  UNL     1      20.079   8.834  26.957  1.00  0.00     0.186 HD
HETATM   14  C6  UNL     1      20.884   7.699  25.460  1.00  0.00     0.145 A 
HETATM   15  C7  UNL     1      21.202   7.676  24.114  1.00  0.00     0.123 A 
HETATM   16  N7  UNL     1      21.766   6.547  23.650  1.00  0.00    -0.342 N 
ATOM     17  H7  UNL     1      21.952   5.747  24.257  1.00  0.00     0.167 HD
HETATM   18  C8  UNL     1      22.069   6.533  22.347  1.00  0.00     0.115 A 
HETATM   19  S1  UNL     1      22.821   4.962  21.869  1.00  0.00    -0.108 SA
HETATM   20  C9  UNL     1      24.261   5.443  20.842  1.00  0.00     0.091 C 
HETATM   21  C10 UNL     1      23.873   5.972  19.535  1.00  0.00     0.036 C 
HETATM   22  C11 UNL     1      23.357   4.778  18.708  1.00  0.00     0.017 C 
ENDROOT
BRANCH  11  23
HETATM   23  N4  UNL     1      19.531  10.896  25.685  1.00  0.00    -0.234 N 
ATOM     24  H42 UNL     1      19.000  10.761  26.546  1.00  0.00     0.174 HD
ATOM     25  H41 UNL     1      19.629  11.816  25.257  1.00  0.00     0.174 HD
ENDBRANCH  11  23
BRANCH  14  26
HETATM   26  N6  UNL     1      21.132   6.674  26.203  1.00  0.00    -0.383 N 
ATOM     27  H62 UNL     1      21.808   6.744  26.963  1.00  0.00     0.157 HD
ATOM     28  H61 UNL     1      20.660   5.783  26.045  1.00  0.00     0.157 HD
ENDBRANCH  14  26
TORSDOF 2
ENDMDL
MODEL 5
REMARK VINA RESULT: -5.171377872      2.518      6.546
REMARK  2 active torsions:
REMARK  status: ('A' for Active; 'I' for Inactive)
REMARK    1  A    between atoms: C5_11  and  N4_12 
REMARK    2  A    between atoms: C6_17  and  N6_18 
ROOT
HETATM    1  C1  UNL     1      23.918   4.541  21.625  1.00  0.00     0.064 C 
HETATM    2  C2  UNL     1      23.433   5.819  20.964  1.00  0.00    -0.011 C 
HETATM    3  N1  UNL     1      23.517   5.718  19.698  1.00  0.00    -0.347 N 
ATOM      4  H1  UNL     1      23.882   4.828  19.358  1.00  0.00     0.167 HD
HETATM    5  C3  UNL     1      23.183   6.645  18.702  1.00  0.00     0.141 A 
HETATM    6  N2  UNL     1      23.795   6.392  17.532  1.00  0.00    -0.324 N 
ATOM      7  H2  UNL     1      24.425   5.595  17.446  1.00  0.00     0.169 HD
HETATM    8  C4  UNL     1      23.577   7.185  16.485  1.00  0.00     0.153 A 
HETATM    9  N3  UNL     1      24.159   6.987  15.280  1.00  0.00    -0.174 N 
ATOM     10  H3  UNL     1      24.794   6.198  15.161  1.00  0.00     0.186 HD
HETATM   11  C5  UNL     1      23.924   7.798  14.240  1.00  0.00     0.679 A 
HETATM   12  N5  UNL     1      23.087   8.863  14.343  1.00  0.00    -0.175 N 
ATOM     13  H5  UNL     1      22.921   9.469  13.539  1.00  0.00     0.186 HD
HETATM   14  C6  UNL     1      22.486   9.107  15.503  1.00  0.00     0.145 A 
HETATM   15  C7  UNL     1      22.733   8.267  16.573  1.00  0.00     0.123 A 
HETATM   16  N7  UNL     1      22.100   8.557  17.723  1.00  0.00    -0.342 N 
ATOM     17  H7  UNL     1      21.469   9.355  17.806  1.00  0.00     0.167 HD
HETATM   18  C8  UNL     1      22.344   7.738  18.752  1.00  0.00     0.115 A 
HETATM   19  S1  UNL     1      21.433   8.250  20.224  1.00  0.00    -0.108 SA
HETATM   20  C9  UNL     1      22.667   8.159  21.576  1.00  0.00     0.091 C 
HETATM   21  C10 UNL     1      23.016   6.784  21.932  1.00  0.00     0.036 C 
HETATM   22  C11 UNL     1      21.795   6.191  22.662  1.00  0.00     0.017 C 
ENDROOT
BRANCH  11  23
HETATM   23  N4  UNL     1      24.490   7.595  13.095  1.00  0.00    -0.234 N 
ATOM     24  H42 UNL     1      25.330   7.017  13.083  1.00  0.00     0.174 HD
ATOM     25  H41 UNL     1      24.107   7.999  12.241  1.00  0.00     0.174 HD
ENDBRANCH  11  23
BRANCH  14  26
HETATM   26  N6  UNL     1      21.685  10.110  15.638  1.00  0.00    -0.383 N 
ATOM     27  H62 UNL     1      22.053  11.061  15.655  1.00  0.00     0.157 HD
ATOM     28  H61 UNL     1      20.678   9.970  15.727  1.00  0.00     0.157 HD
ENDBRANCH  14  26
TORSDOF 2
ENDMDL
