MODEL 1
REMARK VINA RESULT: -7.971048106      0.000      0.000
REMARK  9 active torsions:
REMARK  status: ('A' for Active; 'I' for Inactive)
REMARK    1  A    between atoms: C1_4  and  C2_5 
REMARK    2  A    between atoms: C1_4  and  C6_23 
REMARK       I    between atoms: C2_5  and  N2_7 
REMARK    3  A    between atoms: N2_7  and  N3_9 
REMARK    4  A    between atoms: N3_9  and  C3_10 
REMARK    5  A    between atoms: C3_10  and  C4_11 
REMARK    6  A    between atoms: C4_11  and  C5_13 
REMARK    7  A    between atoms: C5_13  and  N5_18 
REMARK    8  A    between atoms: N4_14  and  O2_16 
REMARK    9  A    between atoms: N5_18  and  N6_20 
ROOT
HETATM    1  C2  UNL     1      34.010  -9.977  27.173  1.00  0.00     0.283 C 
HETATM    2  O1  UNL     1      34.902  -9.406  26.526  1.00  0.00    -0.265 OA
HETATM    3  N2  UNL     1      33.263 -10.965  26.428  1.00  0.00    -0.269 N 
ATOM      4  H2  UNL     1      32.505 -11.499  26.854  1.00  0.00     0.185 HD
ENDROOT
BRANCH   3   5
HETATM    5  N3  UNL     1      33.637 -11.150  25.084  1.00  0.00    -0.137 NA
BRANCH   5   6
HETATM    6  C3  UNL     1      32.571 -10.600  24.273  1.00  0.00     0.163 C 
BRANCH   6   7
HETATM    7  C4  UNL     1      31.560 -11.616  23.849  1.00  0.00     0.169 C 
HETATM    8 CL1  UNL     1      30.132 -11.559  24.887  1.00  0.00    -0.115 Cl
BRANCH   7   9
HETATM    9  C5  UNL     1      32.195 -12.958  23.878  1.00  0.00     0.135 C 
HETATM   10  N4  UNL     1      31.829 -13.774  24.777  1.00  0.00    -0.254 N 
ATOM     11  H4  UNL     1      31.113 -13.443  25.424  1.00  0.00     0.195 HD
BRANCH  10  12
HETATM   12  O2  UNL     1      32.280 -15.034  24.973  1.00  0.00    -0.288 OA
ATOM     13  H2  UNL     1      31.982 -15.657  25.626  1.00  0.00     0.244 HD
ENDBRANCH  10  12
BRANCH   9  14
HETATM   14  N5  UNL     1      33.182 -13.284  22.909  1.00  0.00    -0.293 N 
ATOM     15  H5  UNL     1      33.785 -12.529  22.581  1.00  0.00     0.187 HD
BRANCH  14  16
HETATM   16  N6  UNL     1      33.392 -14.539  22.377  1.00  0.00    -0.344 N 
ATOM     17  H62 UNL     1      32.565 -15.025  22.030  1.00  0.00     0.176 HD
ATOM     18  H61 UNL     1      34.296 -15.005  22.307  1.00  0.00     0.176 HD
ENDBRANCH  14  16
ENDBRANCH   9  14
ENDBRANCH   7   9
ENDBRANCH   6   7
ENDBRANCH   5   6
ENDBRANCH   3   5
BRANCH   1  19
HETATM   19  C1  UNL     1      33.722  -9.699  28.545  1.00  0.00     0.106 C 
HETATM   20  N1  UNL     1      34.251 -10.428  29.508  1.00  0.00    -0.394 N 
ATOM     21  H12 UNL     1      34.860 -11.178  29.180  1.00  0.00     0.156 HD
ATOM     22  H11 UNL     1      34.046 -10.230  30.488  1.00  0.00     0.156 HD
BRANCH  19  23
HETATM   23  C6  UNL     1      32.857  -8.635  29.011  1.00  0.00    -0.003 A 
HETATM   24  C7  UNL     1      31.692  -8.320  28.309  1.00  0.00     0.014 A 
HETATM   25  C8  UNL     1      30.859  -7.321  28.728  1.00  0.00     0.003 A 
HETATM   26  C9  UNL     1      31.140  -6.598  29.849  1.00  0.00     0.024 A 
HETATM   27  C10 UNL     1      32.270  -6.871  30.569  1.00  0.00     0.035 A 
HETATM   28 CL2  UNL     1      32.657  -5.955  32.018  1.00  0.00    -0.084 Cl
HETATM   29  C11 UNL     1      33.119  -7.896  30.134  1.00  0.00     0.037 A 
ENDBRANCH  19  23
ENDBRANCH   1  19
TORSDOF 9
ENDMDL
MODEL 2
REMARK VINA RESULT: -7.858389038      1.251      1.636
REMARK  9 active torsions:
REMARK  status: ('A' for Active; 'I' for Inactive)
REMARK    1  A    between atoms: C1_4  and  C2_5 
REMARK    2  A    between atoms: C1_4  and  C6_23 
REMARK       I    between atoms: C2_5  and  N2_7 
REMARK    3  A    between atoms: N2_7  and  N3_9 
REMARK    4  A    between atoms: N3_9  and  C3_10 
REMARK    5  A    between atoms: C3_10  and  C4_11 
REMARK    6  A    between atoms: C4_11  and  C5_13 
REMARK    7  A    between atoms: C5_13  and  N5_18 
REMARK    8  A    between atoms: N4_14  and  O2_16 
REMARK    9  A    between atoms: N5_18  and  N6_20 
ROOT
HETATM    1  C2  UNL     1      33.992  -9.757  27.242  1.00  0.00     0.283 C 
HETATM    2  O1  UNL     1      34.774  -9.061  26.575  1.00  0.00    -0.265 OA
HETATM    3  N2  UNL     1      33.269 -10.750  26.480  1.00  0.00    -0.269 N 
ATOM      4  H2  UNL     1      32.599 -11.381  26.920  1.00  0.00     0.185 HD
ENDROOT
BRANCH   3   5
HETATM    5  N3  UNL     1      33.539 -10.800  25.099  1.00  0.00    -0.137 NA
BRANCH   5   6
HETATM    6  C3  UNL     1      32.389 -10.232  24.427  1.00  0.00     0.163 C 
BRANCH   6   7
HETATM    7  C4  UNL     1      31.497 -11.256  23.804  1.00  0.00     0.169 C 
HETATM    8 CL1  UNL     1      30.226 -11.754  24.926  1.00  0.00    -0.115 Cl
BRANCH   7   9
HETATM    9  C5  UNL     1      32.327 -12.414  23.381  1.00  0.00     0.135 C 
HETATM   10  N4  UNL     1      32.045 -13.556  23.852  1.00  0.00    -0.254 N 
ATOM     11  H4  UNL     1      31.255 -13.598  24.497  1.00  0.00     0.195 HD
BRANCH  10  12
HETATM   12  O2  UNL     1      32.671 -14.727  23.595  1.00  0.00    -0.288 OA
ATOM     13  H2  UNL     1      32.520 -15.313  22.863  1.00  0.00     0.244 HD
ENDBRANCH  10  12
BRANCH   9  14
HETATM   14  N5  UNL     1      33.399 -12.208  22.472  1.00  0.00    -0.293 N 
ATOM     15  H5  UNL     1      33.178 -11.772  21.576  1.00  0.00     0.187 HD
BRANCH  14  16
HETATM   16  N6  UNL     1      34.715 -12.550  22.702  1.00  0.00    -0.344 N 
ATOM     17  H62 UNL     1      34.883 -13.212  23.460  1.00  0.00     0.176 HD
ATOM     18  H61 UNL     1      35.515 -12.196  22.179  1.00  0.00     0.176 HD
ENDBRANCH  14  16
ENDBRANCH   9  14
ENDBRANCH   7   9
ENDBRANCH   6   7
ENDBRANCH   5   6
ENDBRANCH   3   5
BRANCH   1  19
HETATM   19  C1  UNL     1      33.802  -9.610  28.650  1.00  0.00     0.106 C 
HETATM   20  N1  UNL     1      34.303 -10.489  29.495  1.00  0.00    -0.394 N 
ATOM     21  H12 UNL     1      34.818 -11.250  29.053  1.00  0.00     0.156 HD
ATOM     22  H11 UNL     1      34.168 -10.384  30.501  1.00  0.00     0.156 HD
BRANCH  19  23
HETATM   23  C6  UNL     1      33.072  -8.529  29.279  1.00  0.00    -0.003 A 
HETATM   24  C7  UNL     1      33.584  -7.904  30.417  1.00  0.00     0.014 A 
HETATM   25  C8  UNL     1      32.915  -6.882  31.029  1.00  0.00     0.003 A 
HETATM   26  C9  UNL     1      31.722  -6.437  30.545  1.00  0.00     0.024 A 
HETATM   27  C10 UNL     1      31.179  -7.018  29.431  1.00  0.00     0.035 A 
HETATM   28 CL2  UNL     1      29.642  -6.465  28.785  1.00  0.00    -0.084 Cl
HETATM   29  C11 UNL     1      31.871  -8.065  28.810  1.00  0.00     0.037 A 
ENDBRANCH  19  23
ENDBRANCH   1  19
TORSDOF 9
ENDMDL
MODEL 3
REMARK VINA RESULT: -7.762977488      1.833      2.066
REMARK  9 active torsions:
REMARK  status: ('A' for Active; 'I' for Inactive)
REMARK    1  A    between atoms: C1_4  and  C2_5 
REMARK    2  A    between atoms: C1_4  and  C6_23 
REMARK       I    between atoms: C2_5  and  N2_7 
REMARK    3  A    between atoms: N2_7  and  N3_9 
REMARK    4  A    between atoms: N3_9  and  C3_10 
REMARK    5  A    between atoms: C3_10  and  C4_11 
REMARK    6  A    between atoms: C4_11  and  C5_13 
REMARK    7  A    between atoms: C5_13  and  N5_18 
REMARK    8  A    between atoms: N4_14  and  O2_16 
REMARK    9  A    between atoms: N5_18  and  N6_20 
ROOT
HETATM    1  C2  UNL     1      32.029  -9.921  26.852  1.00  0.00     0.283 C 
HETATM    2  O1  UNL     1      32.557  -9.568  25.786  1.00  0.00    -0.265 OA
HETATM    3  N2  UNL     1      30.880 -10.785  26.698  1.00  0.00    -0.269 N 
ATOM      4  H2  UNL     1      30.363 -11.140  27.503  1.00  0.00     0.185 HD
ENDROOT
BRANCH   3   5
HETATM    5  N3  UNL     1      30.513 -11.110  25.379  1.00  0.00    -0.137 NA
BRANCH   5   6
HETATM    6  C3  UNL     1      30.449 -12.555  25.306  1.00  0.00     0.163 C 
BRANCH   6   7
HETATM    7  C4  UNL     1      31.307 -13.136  24.229  1.00  0.00     0.169 C 
HETATM    8 CL1  UNL     1      31.612 -14.851  24.520  1.00  0.00    -0.115 Cl
BRANCH   7   9
HETATM    9  C5  UNL     1      32.575 -12.365  24.165  1.00  0.00     0.135 C 
HETATM   10  N4  UNL     1      33.379 -12.453  25.142  1.00  0.00    -0.254 N 
ATOM     11  H4  UNL     1      33.091 -13.057  25.912  1.00  0.00     0.195 HD
BRANCH  10  12
HETATM   12  O2  UNL     1      34.575 -11.837  25.277  1.00  0.00    -0.288 OA
ATOM     13  H2  UNL     1      35.169 -11.888  26.017  1.00  0.00     0.244 HD
ENDBRANCH  10  12
BRANCH   9  14
HETATM   14  N5  UNL     1      32.847 -11.561  23.025  1.00  0.00    -0.293 N 
ATOM     15  H5  UNL     1      32.153 -10.857  22.772  1.00  0.00     0.187 HD
BRANCH  14  16
HETATM   16  N6  UNL     1      33.971 -11.656  22.234  1.00  0.00    -0.344 N 
ATOM     17  H62 UNL     1      34.830 -11.265  22.621  1.00  0.00     0.176 HD
ATOM     18  H61 UNL     1      34.005 -12.082  21.308  1.00  0.00     0.176 HD
ENDBRANCH  14  16
ENDBRANCH   9  14
ENDBRANCH   7   9
ENDBRANCH   6   7
ENDBRANCH   5   6
ENDBRANCH   3   5
BRANCH   1  19
HETATM   19  C1  UNL     1      32.497  -9.521  28.141  1.00  0.00     0.106 C 
HETATM   20  N1  UNL     1      33.425 -10.215  28.769  1.00  0.00    -0.394 N 
ATOM     21  H12 UNL     1      33.757 -11.032  28.256  1.00  0.00     0.156 HD
ATOM     22  H11 UNL     1      33.759  -9.929  29.690  1.00  0.00     0.156 HD
BRANCH  19  23
HETATM   23  C6  UNL     1      32.025  -8.361  28.870  1.00  0.00    -0.003 A 
HETATM   24  C7  UNL     1      30.850  -7.717  28.480  1.00  0.00     0.014 A 
HETATM   25  C8  UNL     1      30.384  -6.622  29.150  1.00  0.00     0.003 A 
HETATM   26  C9  UNL     1      31.054  -6.122  30.226  1.00  0.00     0.024 A 
HETATM   27  C10 UNL     1      32.211  -6.719  30.646  1.00  0.00     0.035 A 
HETATM   28 CL2  UNL     1      33.095  -6.096  32.030  1.00  0.00    -0.084 Cl
HETATM   29  C11 UNL     1      32.682  -7.841  29.954  1.00  0.00     0.037 A 
ENDBRANCH  19  23
ENDBRANCH   1  19
TORSDOF 9
ENDMDL
MODEL 4
REMARK VINA RESULT: -7.738656817      1.500      2.174
REMARK  9 active torsions:
REMARK  status: ('A' for Active; 'I' for Inactive)
REMARK    1  A    between atoms: C1_4  and  C2_5 
REMARK    2  A    between atoms: C1_4  and  C6_23 
REMARK       I    between atoms: C2_5  and  N2_7 
REMARK    3  A    between atoms: N2_7  and  N3_9 
REMARK    4  A    between atoms: N3_9  and  C3_10 
REMARK    5  A    between atoms: C3_10  and  C4_11 
REMARK    6  A    between atoms: C4_11  and  C5_13 
REMARK    7  A    between atoms: C5_13  and  N5_18 
REMARK    8  A    between atoms: N4_14  and  O2_16 
REMARK    9  A    between atoms: N5_18  and  N6_20 
ROOT
HETATM    1  C2  UNL     1      34.095  -9.411  26.912  1.00  0.00     0.283 C 
HETATM    2  O1  UNL     1      34.176  -8.357  26.263  1.00  0.00    -0.265 OA
HETATM    3  N2  UNL     1      34.237 -10.615  26.125  1.00  0.00    -0.269 N 
ATOM      4  H2  UNL     1      34.189 -11.542  26.548  1.00  0.00     0.185 HD
ENDROOT
BRANCH   3   5
HETATM    5  N3  UNL     1      34.445 -10.441  24.744  1.00  0.00    -0.137 NA
BRANCH   5   6
HETATM    6  C3  UNL     1      33.980 -11.649  24.095  1.00  0.00     0.163 C 
BRANCH   6   7
HETATM    7  C4  UNL     1      32.555 -11.575  23.650  1.00  0.00     0.169 C 
HETATM    8 CL1  UNL     1      31.841 -10.016  24.071  1.00  0.00    -0.115 Cl
BRANCH   7   9
HETATM    9  C5  UNL     1      31.805 -12.698  24.270  1.00  0.00     0.135 C 
HETATM   10  N4  UNL     1      32.416 -13.793  24.460  1.00  0.00    -0.254 N 
ATOM     11  H4  UNL     1      33.394 -13.823  24.168  1.00  0.00     0.195 HD
BRANCH  10  12
HETATM   12  O2  UNL     1      31.918 -14.925  25.006  1.00  0.00    -0.288 OA
ATOM     13  H2  UNL     1      32.365 -15.529  25.588  1.00  0.00     0.244 HD
ENDBRANCH  10  12
BRANCH   9  14
HETATM   14  N5  UNL     1      30.443 -12.514  24.628  1.00  0.00    -0.293 N 
ATOM     15  H5  UNL     1      29.773 -12.377  23.870  1.00  0.00     0.187 HD
BRANCH  14  16
HETATM   16  N6  UNL     1      29.952 -12.505  25.916  1.00  0.00    -0.344 N 
ATOM     17  H62 UNL     1      29.706 -11.593  26.299  1.00  0.00     0.176 HD
ATOM     18  H61 UNL     1      29.819 -13.331  26.501  1.00  0.00     0.176 HD
ENDBRANCH  14  16
ENDBRANCH   9  14
ENDBRANCH   7   9
ENDBRANCH   6   7
ENDBRANCH   5   6
ENDBRANCH   3   5
BRANCH   1  19
HETATM   19  C1  UNL     1      33.879  -9.461  28.323  1.00  0.00     0.106 C 
HETATM   20  N1  UNL     1      34.368 -10.447  29.048  1.00  0.00    -0.394 N 
ATOM     21  H12 UNL     1      34.892 -11.140  28.514  1.00  0.00     0.156 HD
ATOM     22  H11 UNL     1      34.213 -10.483  30.056  1.00  0.00     0.156 HD
BRANCH  19  23
HETATM   23  C6  UNL     1      33.134  -8.478  29.081  1.00  0.00    -0.003 A 
HETATM   24  C7  UNL     1      33.645  -7.981  30.282  1.00  0.00     0.014 A 
HETATM   25  C8  UNL     1      32.963  -7.054  31.016  1.00  0.00     0.003 A 
HETATM   26  C9  UNL     1      31.755  -6.580  30.598  1.00  0.00     0.024 A 
HETATM   27  C10 UNL     1      31.213  -7.037  29.428  1.00  0.00     0.035 A 
HETATM   28 CL2  UNL     1      29.658  -6.444  28.865  1.00  0.00    -0.084 Cl
HETATM   29  C11 UNL     1      31.919  -7.988  28.681  1.00  0.00     0.037 A 
ENDBRANCH  19  23
ENDBRANCH   1  19
TORSDOF 9
ENDMDL
MODEL 5
REMARK VINA RESULT: -7.701358931      1.803      2.170
REMARK  9 active torsions:
REMARK  status: ('A' for Active; 'I' for Inactive)
REMARK    1  A    between atoms: C1_4  and  C2_5 
REMARK    2  A    between atoms: C1_4  and  C6_23 
REMARK       I    between atoms: C2_5  and  N2_7 
REMARK    3  A    between atoms: N2_7  and  N3_9 
REMARK    4  A    between atoms: N3_9  and  C3_10 
REMARK    5  A    between atoms: C3_10  and  C4_11 
REMARK    6  A    between atoms: C4_11  and  C5_13 
REMARK    7  A    between atoms: C5_13  and  N5_18 
REMARK    8  A    between atoms: N4_14  and  O2_16 
REMARK    9  A    between atoms: N5_18  and  N6_20 
ROOT
HETATM    1  C2  UNL     1      34.026  -9.646  27.169  1.00  0.00     0.283 C 
HETATM    2  O1  UNL     1      34.256  -8.673  26.434  1.00  0.00    -0.265 OA
HETATM    3  N2  UNL     1      33.942 -10.914  26.481  1.00  0.00    -0.269 N 
ATOM      4  H2  UNL     1      33.758 -11.785  26.980  1.00  0.00     0.185 HD
ENDROOT
BRANCH   3   5
HETATM    5  N3  UNL     1      34.129 -10.885  25.087  1.00  0.00    -0.137 NA
BRANCH   5   6
HETATM    6  C3  UNL     1      33.396 -12.008  24.542  1.00  0.00     0.163 C 
BRANCH   6   7
HETATM    7  C4  UNL     1      32.083 -11.626  23.938  1.00  0.00     0.169 C 
HETATM    8 CL1  UNL     1      31.820  -9.883  24.047  1.00  0.00    -0.115 Cl
BRANCH   7   9
HETATM    9  C5  UNL     1      31.005 -12.379  24.629  1.00  0.00     0.135 C 
HETATM   10  N4  UNL     1      30.319 -11.772  25.506  1.00  0.00    -0.254 N 
ATOM     11  H4  UNL     1      30.561 -10.795  25.674  1.00  0.00     0.195 HD
BRANCH  10  12
HETATM   12  O2  UNL     1      29.302 -12.274  26.243  1.00  0.00    -0.288 OA
ATOM     13  H2  UNL     1      29.028 -11.998  27.110  1.00  0.00     0.244 HD
ENDBRANCH  10  12
BRANCH   9  14
HETATM   14  N5  UNL     1      30.779 -13.741  24.293  1.00  0.00    -0.293 N 
ATOM     15  H5  UNL     1      29.924 -13.961  23.780  1.00  0.00     0.187 HD
BRANCH  14  16
HETATM   16  N6  UNL     1      31.620 -14.788  24.602  1.00  0.00    -0.344 N 
ATOM     17  H62 UNL     1      32.441 -14.557  25.162  1.00  0.00     0.176 HD
ATOM     18  H61 UNL     1      31.483 -15.758  24.316  1.00  0.00     0.176 HD
ENDBRANCH  14  16
ENDBRANCH   9  14
ENDBRANCH   7   9
ENDBRANCH   6   7
ENDBRANCH   5   6
ENDBRANCH   3   5
BRANCH   1  19
HETATM   19  C1  UNL     1      33.853  -9.549  28.584  1.00  0.00     0.106 C 
HETATM   20  N1  UNL     1      34.380 -10.447  29.393  1.00  0.00    -0.394 N 
ATOM     21  H12 UNL     1      34.901 -11.184  28.918  1.00  0.00     0.156 HD
ATOM     22  H11 UNL     1      34.257 -10.378  30.403  1.00  0.00     0.156 HD
BRANCH  19  23
HETATM   23  C6  UNL     1      33.113  -8.503  29.258  1.00  0.00    -0.003 A 
HETATM   24  C7  UNL     1      33.622  -7.919  30.419  1.00  0.00     0.014 A 
HETATM   25  C8  UNL     1      32.944  -6.930  31.073  1.00  0.00     0.003 A 
HETATM   26  C9  UNL     1      31.744  -6.479  30.611  1.00  0.00     0.024 A 
HETATM   27  C10 UNL     1      31.204  -7.021  29.477  1.00  0.00     0.035 A 
HETATM   28 CL2  UNL     1      29.659  -6.459  28.858  1.00  0.00    -0.084 Cl
HETATM   29  C11 UNL     1      31.905  -8.034  28.812  1.00  0.00     0.037 A 
ENDBRANCH  19  23
ENDBRANCH   1  19
TORSDOF 9
ENDMDL
