MODEL 1
REMARK VINA RESULT: -5.491381648      0.000      0.000
REMARK  12 active torsions:
REMARK  status: ('A' for Active; 'I' for Inactive)
REMARK    1  A    between atoms: N1_1  and  C1_5 
REMARK    2  A    between atoms: C1_5  and  C2_6 
REMARK    3  A    between atoms: C2_6  and  C3_7 
REMARK    4  A    between atoms: C2_6  and  N2_10 
REMARK    5  A    between atoms: C3_7  and  C4_8 
REMARK    6  A    between atoms: N2_10  and  C5_12 
REMARK    7  A    between atoms: C5_12  and  N3_14 
REMARK    8  A    between atoms: N3_14  and  N4_16 
REMARK    9  A    between atoms: N4_16  and  C6_18 
REMARK   10  A    between atoms: C6_18  and  N5_20 
REMARK   11  A    between atoms: N5_20  and  C7_22 
REMARK   12  A    between atoms: C7_22  and  C8_23 
ROOT
HETATM    1  C5  UNL     1      33.588 -11.322  25.517  1.00  0.00     0.186 C 
HETATM    2  S2  UNL     1      34.897 -11.114  24.592  1.00  0.00    -0.040 SA
ENDROOT
BRANCH   1   3
HETATM    3  N2  UNL     1      32.835 -12.505  25.461  1.00  0.00    -0.360 N 
ATOM      4  H2  UNL     1      33.042 -13.198  26.180  1.00  0.00     0.162 HD
BRANCH   3   5
HETATM    5  C2  UNL     1      31.810 -12.865  24.519  1.00  0.00     0.110 C 
BRANCH   5   6
HETATM    6  C1  UNL     1      30.561 -12.107  24.764  1.00  0.00     0.254 C 
BRANCH   6   7
HETATM    7  N1  UNL     1      29.847 -12.433  25.969  1.00  0.00    -0.077 N 
ATOM      8  H13 UNL     1      29.126 -13.125  25.766  1.00  0.00     0.274 HD
ATOM      9  H12 UNL     1      30.449 -12.971  26.591  1.00  0.00     0.274 HD
ATOM     10  H11 UNL     1      29.438 -11.648  26.476  1.00  0.00     0.274 HD
ENDBRANCH   6   7
ENDBRANCH   5   6
BRANCH   5  11
HETATM   11  C3  UNL     1      31.704 -14.345  24.402  1.00  0.00     0.038 C 
BRANCH  11  12
HETATM   12  C4  UNL     1      32.054 -14.941  23.084  1.00  0.00     0.088 C 
HETATM   13  S1  UNL     1      33.363 -13.969  22.244  1.00  0.00    -0.098 SA
ENDBRANCH  11  12
ENDBRANCH   5  11
ENDBRANCH   3   5
ENDBRANCH   1   3
BRANCH   1  14
HETATM   14  N3  UNL     1      33.217 -10.267  26.383  1.00  0.00    -0.274 N 
ATOM     15  H3  UNL     1      33.483  -9.319  26.117  1.00  0.00     0.189 HD
BRANCH  14  16
HETATM   16  N4  UNL     1      32.510 -10.435  27.576  1.00  0.00    -0.274 N 
ATOM     17  H4  UNL     1      31.863 -11.220  27.657  1.00  0.00     0.189 HD
BRANCH  16  18
HETATM   18  C6  UNL     1      32.656  -9.567  28.664  1.00  0.00     0.186 C 
HETATM   19  S3  UNL     1      34.170  -9.491  29.347  1.00  0.00    -0.040 SA
BRANCH  18  20
HETATM   20  N5  UNL     1      31.654  -8.758  29.234  1.00  0.00    -0.365 N 
ATOM     21  H5  UNL     1      31.237  -9.091  30.103  1.00  0.00     0.161 HD
BRANCH  20  22
HETATM   22  C7  UNL     1      31.160  -7.514  28.719  1.00  0.00     0.137 C 
BRANCH  22  23
HETATM   23  C8  UNL     1      30.928  -6.447  29.749  1.00  0.00     0.134 C 
HETATM   24 CL1  UNL     1      32.179  -6.626  31.021  1.00  0.00    -0.129 Cl
ENDBRANCH  22  23
ENDBRANCH  20  22
ENDBRANCH  18  20
ENDBRANCH  16  18
ENDBRANCH  14  16
ENDBRANCH   1  14
TORSDOF 12
ENDMDL
MODEL 2
REMARK VINA RESULT: -5.470274641      1.982      2.496
REMARK  12 active torsions:
REMARK  status: ('A' for Active; 'I' for Inactive)
REMARK    1  A    between atoms: N1_1  and  C1_5 
REMARK    2  A    between atoms: C1_5  and  C2_6 
REMARK    3  A    between atoms: C2_6  and  C3_7 
REMARK    4  A    between atoms: C2_6  and  N2_10 
REMARK    5  A    between atoms: C3_7  and  C4_8 
REMARK    6  A    between atoms: N2_10  and  C5_12 
REMARK    7  A    between atoms: C5_12  and  N3_14 
REMARK    8  A    between atoms: N3_14  and  N4_16 
REMARK    9  A    between atoms: N4_16  and  C6_18 
REMARK   10  A    between atoms: C6_18  and  N5_20 
REMARK   11  A    between atoms: N5_20  and  C7_22 
REMARK   12  A    between atoms: C7_22  and  C8_23 
ROOT
HETATM    1  C5  UNL     1      34.404 -10.577  25.828  1.00  0.00     0.186 C 
HETATM    2  S2  UNL     1      35.126  -9.131  25.778  1.00  0.00    -0.040 SA
ENDROOT
BRANCH   1   3
HETATM    3  N2  UNL     1      34.428 -11.442  24.723  1.00  0.00    -0.360 N 
ATOM      4  H2  UNL     1      35.338 -11.838  24.488  1.00  0.00     0.162 HD
BRANCH   3   5
HETATM    5  C2  UNL     1      33.334 -11.843  23.881  1.00  0.00     0.110 C 
BRANCH   5   6
HETATM    6  C1  UNL     1      33.816 -12.384  22.589  1.00  0.00     0.254 C 
BRANCH   6   7
HETATM    7  N1  UNL     1      33.537 -13.772  22.339  1.00  0.00    -0.077 N 
ATOM      8  H13 UNL     1      34.100 -14.354  22.959  1.00  0.00     0.274 HD
ATOM      9  H12 UNL     1      32.601 -14.001  22.670  1.00  0.00     0.274 HD
ATOM     10  H11 UNL     1      33.650 -14.087  21.375  1.00  0.00     0.274 HD
ENDBRANCH   6   7
ENDBRANCH   5   6
BRANCH   5  11
HETATM   11  C3  UNL     1      32.293 -10.780  23.836  1.00  0.00     0.038 C 
BRANCH  11  12
HETATM   12  C4  UNL     1      30.908 -11.181  24.203  1.00  0.00     0.088 C 
HETATM   13  S1  UNL     1      30.900 -12.757  25.139  1.00  0.00    -0.098 SA
ENDBRANCH  11  12
ENDBRANCH   5  11
ENDBRANCH   3   5
ENDBRANCH   1   3
BRANCH   1  14
HETATM   14  N3  UNL     1      33.737 -10.941  27.020  1.00  0.00    -0.274 N 
ATOM     15  H3  UNL     1      34.107 -11.731  27.549  1.00  0.00     0.189 HD
BRANCH  14  16
HETATM   16  N4  UNL     1      32.607 -10.292  27.523  1.00  0.00    -0.274 N 
ATOM     17  H4  UNL     1      31.722 -10.392  27.025  1.00  0.00     0.189 HD
BRANCH  16  18
HETATM   18  C6  UNL     1      32.643  -9.512  28.684  1.00  0.00     0.186 C 
HETATM   19  S3  UNL     1      34.082  -9.499  29.517  1.00  0.00    -0.040 SA
BRANCH  18  20
HETATM   20  N5  UNL     1      31.589  -8.742  29.213  1.00  0.00    -0.365 N 
ATOM     21  H5  UNL     1      31.095  -9.134  30.015  1.00  0.00     0.161 HD
BRANCH  20  22
HETATM   22  C7  UNL     1      31.139  -7.465  28.741  1.00  0.00     0.137 C 
BRANCH  22  23
HETATM   23  C8  UNL     1      30.861  -6.452  29.814  1.00  0.00     0.134 C 
HETATM   24 CL1  UNL     1      32.163  -6.576  31.040  1.00  0.00    -0.129 Cl
ENDBRANCH  22  23
ENDBRANCH  20  22
ENDBRANCH  18  20
ENDBRANCH  16  18
ENDBRANCH  14  16
ENDBRANCH   1  14
TORSDOF 12
ENDMDL
MODEL 3
REMARK VINA RESULT: -5.409365573      1.917      2.777
REMARK  12 active torsions:
REMARK  status: ('A' for Active; 'I' for Inactive)
REMARK    1  A    between atoms: N1_1  and  C1_5 
REMARK    2  A    between atoms: C1_5  and  C2_6 
REMARK    3  A    between atoms: C2_6  and  C3_7 
REMARK    4  A    between atoms: C2_6  and  N2_10 
REMARK    5  A    between atoms: C3_7  and  C4_8 
REMARK    6  A    between atoms: N2_10  and  C5_12 
REMARK    7  A    between atoms: C5_12  and  N3_14 
REMARK    8  A    between atoms: N3_14  and  N4_16 
REMARK    9  A    between atoms: N4_16  and  C6_18 
REMARK   10  A    between atoms: C6_18  and  N5_20 
REMARK   11  A    between atoms: N5_20  and  C7_22 
REMARK   12  A    between atoms: C7_22  and  C8_23 
ROOT
HETATM    1  C5  UNL     1      31.728 -10.748  25.386  1.00  0.00     0.186 C 
HETATM    2  S2  UNL     1      30.575 -11.607  24.648  1.00  0.00    -0.040 SA
ENDROOT
BRANCH   1   3
HETATM    3  N2  UNL     1      32.885 -10.342  24.704  1.00  0.00    -0.360 N 
ATOM      4  H2  UNL     1      32.827  -9.444  24.225  1.00  0.00     0.162 HD
BRANCH   3   5
HETATM    5  C2  UNL     1      34.143 -11.030  24.595  1.00  0.00     0.110 C 
BRANCH   5   6
HETATM    6  C1  UNL     1      35.221 -10.300  25.301  1.00  0.00     0.254 C 
BRANCH   6   7
HETATM    7  N1  UNL     1      34.924  -8.949  25.689  1.00  0.00    -0.077 N 
ATOM      8  H13 UNL     1      33.983  -8.700  25.381  1.00  0.00     0.274 HD
ATOM      9  H12 UNL     1      34.805  -8.898  26.701  1.00  0.00     0.274 HD
ATOM     10  H11 UNL     1      35.586  -8.236  25.382  1.00  0.00     0.274 HD
ENDBRANCH   6   7
ENDBRANCH   5   6
BRANCH   5  11
HETATM   11  C3  UNL     1      34.396 -11.436  23.185  1.00  0.00     0.038 C 
BRANCH  11  12
HETATM   12  C4  UNL     1      33.579 -12.559  22.653  1.00  0.00     0.088 C 
HETATM   13  S1  UNL     1      34.388 -13.340  21.205  1.00  0.00    -0.098 SA
ENDBRANCH  11  12
ENDBRANCH   5  11
ENDBRANCH   3   5
ENDBRANCH   1   3
BRANCH   1  14
HETATM   14  N3  UNL     1      31.538 -10.423  26.750  1.00  0.00    -0.274 N 
ATOM     15  H3  UNL     1      30.611 -10.113  27.040  1.00  0.00     0.189 HD
BRANCH  14  16
HETATM   16  N4  UNL     1      32.535 -10.498  27.726  1.00  0.00    -0.274 N 
ATOM     17  H4  UNL     1      33.186 -11.283  27.703  1.00  0.00     0.189 HD
BRANCH  16  18
HETATM   18  C6  UNL     1      32.672  -9.537  28.734  1.00  0.00     0.186 C 
HETATM   19  S3  UNL     1      34.201  -9.338  29.357  1.00  0.00    -0.040 SA
BRANCH  18  20
HETATM   20  N5  UNL     1      31.652  -8.728  29.269  1.00  0.00    -0.365 N 
ATOM     21  H5  UNL     1      31.130  -9.112  30.057  1.00  0.00     0.161 HD
BRANCH  20  22
HETATM   22  C7  UNL     1      31.271  -7.419  28.822  1.00  0.00     0.137 C 
BRANCH  22  23
HETATM   23  C8  UNL     1      30.935  -6.447  29.915  1.00  0.00     0.134 C 
HETATM   24 CL1  UNL     1      32.249  -6.512  31.134  1.00  0.00    -0.129 Cl
ENDBRANCH  22  23
ENDBRANCH  20  22
ENDBRANCH  18  20
ENDBRANCH  16  18
ENDBRANCH  14  16
ENDBRANCH   1  14
TORSDOF 12
ENDMDL
MODEL 4
REMARK VINA RESULT: -5.406736031      3.222      6.592
REMARK  12 active torsions:
REMARK  status: ('A' for Active; 'I' for Inactive)
REMARK    1  A    between atoms: N1_1  and  C1_5 
REMARK    2  A    between atoms: C1_5  and  C2_6 
REMARK    3  A    between atoms: C2_6  and  C3_7 
REMARK    4  A    between atoms: C2_6  and  N2_10 
REMARK    5  A    between atoms: C3_7  and  C4_8 
REMARK    6  A    between atoms: N2_10  and  C5_12 
REMARK    7  A    between atoms: C5_12  and  N3_14 
REMARK    8  A    between atoms: N3_14  and  N4_16 
REMARK    9  A    between atoms: N4_16  and  C6_18 
REMARK   10  A    between atoms: C6_18  and  N5_20 
REMARK   11  A    between atoms: N5_20  and  C7_22 
REMARK   12  A    between atoms: C7_22  and  C8_23 
ROOT
HETATM    1  C5  UNL     1      34.378 -10.332  26.235  1.00  0.00     0.186 C 
HETATM    2  S2  UNL     1      35.390  -9.098  25.974  1.00  0.00    -0.040 SA
ENDROOT
BRANCH   1   3
HETATM    3  N2  UNL     1      33.256 -10.192  27.066  1.00  0.00    -0.360 N 
ATOM      4  H2  UNL     1      32.433 -10.729  26.795  1.00  0.00     0.162 HD
BRANCH   3   5
HETATM    5  C2  UNL     1      33.119  -9.387  28.250  1.00  0.00     0.110 C 
BRANCH   5   6
HETATM    6  C1  UNL     1      33.918  -9.935  29.370  1.00  0.00     0.254 C 
BRANCH   6   7
HETATM    7  N1  UNL     1      34.717  -8.990  30.102  1.00  0.00    -0.077 N 
ATOM      8  H13 UNL     1      34.267  -8.074  30.087  1.00  0.00     0.274 HD
ATOM      9  H12 UNL     1      34.674  -9.201  31.098  1.00  0.00     0.274 HD
ATOM     10  H11 UNL     1      35.690  -8.901  29.808  1.00  0.00     0.274 HD
ENDBRANCH   6   7
ENDBRANCH   5   6
BRANCH   5  11
HETATM   11  C3  UNL     1      31.686  -9.083  28.512  1.00  0.00     0.038 C 
BRANCH  11  12
HETATM   12  C4  UNL     1      31.298  -7.646  28.538  1.00  0.00     0.088 C 
HETATM   13  S1  UNL     1      31.671  -6.890  30.166  1.00  0.00    -0.098 SA
ENDBRANCH  11  12
ENDBRANCH   5  11
ENDBRANCH   3   5
ENDBRANCH   1   3
BRANCH   1  14
HETATM   14  N3  UNL     1      34.665 -11.565  25.605  1.00  0.00    -0.274 N 
ATOM     15  H3  UNL     1      34.733 -12.395  26.194  1.00  0.00     0.189 HD
BRANCH  14  16
HETATM   16  N4  UNL     1      34.860 -11.724  24.230  1.00  0.00    -0.274 N 
ATOM     17  H4  UNL     1      35.812 -11.826  23.879  1.00  0.00     0.189 HD
BRANCH  16  18
HETATM   18  C6  UNL     1      33.798 -11.747  23.319  1.00  0.00     0.186 C 
HETATM   19  S3  UNL     1      33.916 -12.849  22.080  1.00  0.00    -0.040 SA
BRANCH  18  20
HETATM   20  N5  UNL     1      32.649 -10.934  23.346  1.00  0.00    -0.365 N 
ATOM     21  H5  UNL     1      32.766  -9.965  23.050  1.00  0.00     0.161 HD
BRANCH  20  22
HETATM   22  C7  UNL     1      31.329 -11.328  23.749  1.00  0.00     0.137 C 
BRANCH  22  23
HETATM   23  C8  UNL     1      31.277 -12.311  24.882  1.00  0.00     0.134 C 
HETATM   24 CL1  UNL     1      30.972 -13.936  24.190  1.00  0.00    -0.129 Cl
ENDBRANCH  22  23
ENDBRANCH  20  22
ENDBRANCH  18  20
ENDBRANCH  16  18
ENDBRANCH  14  16
ENDBRANCH   1  14
TORSDOF 12
ENDMDL
MODEL 5
REMARK VINA RESULT: -5.349476254      2.302      3.442
REMARK  12 active torsions:
REMARK  status: ('A' for Active; 'I' for Inactive)
REMARK    1  A    between atoms: N1_1  and  C1_5 
REMARK    2  A    between atoms: C1_5  and  C2_6 
REMARK    3  A    between atoms: C2_6  and  C3_7 
REMARK    4  A    between atoms: C2_6  and  N2_10 
REMARK    5  A    between atoms: C3_7  and  C4_8 
REMARK    6  A    between atoms: N2_10  and  C5_12 
REMARK    7  A    between atoms: C5_12  and  N3_14 
REMARK    8  A    between atoms: N3_14  and  N4_16 
REMARK    9  A    between atoms: N4_16  and  C6_18 
REMARK   10  A    between atoms: C6_18  and  N5_20 
REMARK   11  A    between atoms: N5_20  and  C7_22 
REMARK   12  A    between atoms: C7_22  and  C8_23 
ROOT
HETATM    1  C5  UNL     1      31.625 -10.610  25.102  1.00  0.00     0.186 C 
HETATM    2  S2  UNL     1      30.471 -11.741  25.103  1.00  0.00    -0.040 SA
ENDROOT
BRANCH   1   3
HETATM    3  N2  UNL     1      32.472 -10.434  23.997  1.00  0.00    -0.360 N 
ATOM      4  H2  UNL     1      32.189  -9.716  23.329  1.00  0.00     0.162 HD
BRANCH   3   5
HETATM    5  C2  UNL     1      33.688 -11.135  23.685  1.00  0.00     0.110 C 
BRANCH   5   6
HETATM    6  C1  UNL     1      33.422 -12.341  22.866  1.00  0.00     0.254 C 
BRANCH   6   7
HETATM    7  N1  UNL     1      33.986 -12.347  21.544  1.00  0.00    -0.077 N 
ATOM      8  H13 UNL     1      33.560 -13.090  20.990  1.00  0.00     0.274 HD
ATOM      9  H12 UNL     1      33.667 -11.527  21.029  1.00  0.00     0.274 HD
ATOM     10  H11 UNL     1      35.002 -12.416  21.489  1.00  0.00     0.274 HD
ENDBRANCH   6   7
ENDBRANCH   5   6
BRANCH   5  11
HETATM   11  C3  UNL     1      34.522 -11.304  24.907  1.00  0.00     0.038 C 
BRANCH  11  12
HETATM   12  C4  UNL     1      35.785 -10.520  24.971  1.00  0.00     0.088 C 
HETATM   13  S1  UNL     1      35.569  -8.996  25.968  1.00  0.00    -0.098 SA
ENDBRANCH  11  12
ENDBRANCH   5  11
ENDBRANCH   3   5
ENDBRANCH   1   3
BRANCH   1  14
HETATM   14  N3  UNL     1      31.762  -9.805  26.256  1.00  0.00    -0.274 N 
ATOM     15  H3  UNL     1      31.862  -8.798  26.125  1.00  0.00     0.189 HD
BRANCH  14  16
HETATM   16  N4  UNL     1      31.770 -10.295  27.565  1.00  0.00    -0.274 N 
ATOM     17  H4  UNL     1      31.411 -11.234  27.739  1.00  0.00     0.189 HD
BRANCH  16  18
HETATM   18  C6  UNL     1      32.252  -9.546  28.644  1.00  0.00     0.186 C 
HETATM   19  S3  UNL     1      33.807  -9.876  29.133  1.00  0.00    -0.040 SA
BRANCH  18  20
HETATM   20  N5  UNL     1      31.556  -8.548  29.352  1.00  0.00    -0.365 N 
ATOM     21  H5  UNL     1      30.550  -8.680  29.458  1.00  0.00     0.161 HD
BRANCH  20  22
HETATM   22  C7  UNL     1      32.114  -7.365  29.941  1.00  0.00     0.137 C 
BRANCH  22  23
HETATM   23  C8  UNL     1      31.272  -6.130  29.806  1.00  0.00     0.134 C 
HETATM   24 CL1  UNL     1      29.781  -6.573  28.914  1.00  0.00    -0.129 Cl
ENDBRANCH  22  23
ENDBRANCH  20  22
ENDBRANCH  18  20
ENDBRANCH  16  18
ENDBRANCH  14  16
ENDBRANCH   1  14
TORSDOF 12
ENDMDL
