MODEL 1
REMARK VINA RESULT: -7.308935361      0.000      0.000
REMARK  7 active torsions:
REMARK  status: ('A' for Active; 'I' for Inactive)
REMARK    1  A    between atoms: C2_2  and  N1_3 
REMARK       I    between atoms: N1_3  and  C3_5 
REMARK    2  A    between atoms: C3_5  and  O2_7 
REMARK    3  A    between atoms: O2_7  and  C4_8 
REMARK    4  A    between atoms: C4_8  and  C5_9 
REMARK    5  A    between atoms: N2_25  and  O3_27 
REMARK    6  A    between atoms: O3_27  and  C21_28 
REMARK    7  A    between atoms: C21_28  and  C22_29 
ROOT
HETATM    1  C5  UNL     1       4.312  18.232  27.152  1.00  0.00     0.002 C 
HETATM    2  C6  UNL     1       2.978  18.077  26.409  1.00  0.00     0.022 C 
HETATM    3  C7  UNL     1       4.811  19.602  26.901  1.00  0.00     0.016 C 
HETATM    4  C8  UNL     1       5.387  20.323  28.050  1.00  0.00     0.002 C 
HETATM    5  C9  UNL     1       5.728  19.492  29.241  1.00  0.00     0.017 C 
HETATM    6  C10 UNL     1       4.544  18.675  29.723  1.00  0.00     0.017 C 
HETATM    7  C11 UNL     1       3.407  19.512  30.202  1.00  0.00     0.023 C 
HETATM    8  C12 UNL     1       4.088  17.873  28.548  1.00  0.00    -0.062 C 
HETATM    9  C13 UNL     1       3.431  16.751  28.816  1.00  0.00    -0.022 C 
HETATM   10  C14 UNL     1       3.144  16.283  30.186  1.00  0.00     0.036 C 
HETATM   11  C15 UNL     1       3.995  16.871  31.256  1.00  0.00     0.038 C 
HETATM   12  C16 UNL     1       4.494  15.810  32.252  1.00  0.00    -0.033 C 
HETATM   13  C17 UNL     1       5.254  14.716  31.489  1.00  0.00     0.016 C 
HETATM   14  C18 UNL     1       3.284  15.227  32.881  1.00  0.00     0.016 C 
HETATM   15  C19 UNL     1       3.205  15.332  34.365  1.00  0.00     0.055 C 
HETATM   16  C20 UNL     1       4.524  15.008  34.932  1.00  0.00     0.010 C 
HETATM   17  N2  UNL     1       4.695  14.068  35.778  1.00  0.00    -0.275 N 
ATOM     18  H2  UNL     1       3.884  13.522  36.070  1.00  0.00     0.193 HD
HETATM   19  C23 UNL     1       5.667  15.818  34.484  1.00  0.00     0.060 C 
HETATM   20  C24 UNL     1       5.458  16.479  33.153  1.00  0.00    -0.000 C 
HETATM   21  C25 UNL     1       5.176  17.981  33.303  1.00  0.00     0.009 C 
HETATM   22  C26 UNL     1       5.543  18.611  31.968  1.00  0.00     0.045 C 
HETATM   23  C27 UNL     1       5.099  17.762  30.809  1.00  0.00     0.119 C 
HETATM   24  F4  UNL     1       6.180  17.125  30.268  1.00  0.00    -0.241 F 
ENDROOT
BRANCH   1  25
HETATM   25  C4  UNL     1       5.235  17.182  26.545  1.00  0.00     0.194 C 
BRANCH  25  26
HETATM   26  O2  UNL     1       6.001  17.738  25.486  1.00  0.00    -0.303 OA
BRANCH  26  27
HETATM   27  C3  UNL     1       6.529  17.006  24.463  1.00  0.00     0.360 C 
HETATM   28  N1  UNL     1       6.990  15.689  24.680  1.00  0.00    -0.337 N 
ATOM     29  H1  UNL     1       6.935  15.268  25.608  1.00  0.00     0.164 HD
HETATM   30  O1  UNL     1       6.606  17.505  23.318  1.00  0.00    -0.239 OA
BRANCH  28  31
HETATM   31  C2  UNL     1       7.542  14.945  23.570  1.00  0.00     0.120 C 
HETATM   32  C1  UNL     1       7.094  13.517  23.547  1.00  0.00     0.026 C 
ENDBRANCH  28  31
ENDBRANCH  26  27
ENDBRANCH  25  26
ENDBRANCH   1  25
BRANCH  17  33
HETATM   33  O3  UNL     1       5.916  13.757  36.312  1.00  0.00    -0.272 OA
BRANCH  33  34
HETATM   34  C21 UNL     1       6.533  12.569  35.905  1.00  0.00     0.318 C 
BRANCH  34  35
HETATM   35  C22 UNL     1       7.421  12.778  34.687  1.00  0.00     0.410 C 
HETATM   36  F1  UNL     1       8.349  11.765  34.579  1.00  0.00    -0.169 F 
HETATM   37  F2  UNL     1       6.607  12.705  33.580  1.00  0.00    -0.169 F 
HETATM   38  F3  UNL     1       8.109  13.963  34.772  1.00  0.00    -0.169 F 
ENDBRANCH  34  35
ENDBRANCH  33  34
ENDBRANCH  17  33
TORSDOF 7
ENDMDL
MODEL 2
REMARK VINA RESULT: -7.229230772      3.566      8.420
REMARK  7 active torsions:
REMARK  status: ('A' for Active; 'I' for Inactive)
REMARK    1  A    between atoms: C2_2  and  N1_3 
REMARK       I    between atoms: N1_3  and  C3_5 
REMARK    2  A    between atoms: C3_5  and  O2_7 
REMARK    3  A    between atoms: O2_7  and  C4_8 
REMARK    4  A    between atoms: C4_8  and  C5_9 
REMARK    5  A    between atoms: N2_25  and  O3_27 
REMARK    6  A    between atoms: O3_27  and  C21_28 
REMARK    7  A    between atoms: C21_28  and  C22_29 
ROOT
HETATM    1  C5  UNL     1       7.685  15.160  35.301  1.00  0.00     0.002 C 
HETATM    2  C6  UNL     1       6.805  15.117  36.557  1.00  0.00     0.022 C 
HETATM    3  C7  UNL     1       8.652  14.044  35.389  1.00  0.00     0.016 C 
HETATM    4  C8  UNL     1       8.899  13.276  34.155  1.00  0.00     0.002 C 
HETATM    5  C9  UNL     1       8.432  13.908  32.887  1.00  0.00     0.017 C 
HETATM    6  C10 UNL     1       6.963  14.280  32.943  1.00  0.00     0.017 C 
HETATM    7  C11 UNL     1       6.062  13.101  33.091  1.00  0.00     0.023 C 
HETATM    8  C12 UNL     1       6.803  15.159  34.139  1.00  0.00    -0.062 C 
HETATM    9  C13 UNL     1       5.774  15.998  34.125  1.00  0.00    -0.022 C 
HETATM   10  C14 UNL     1       4.814  16.090  33.008  1.00  0.00     0.036 C 
HETATM   11  C15 UNL     1       5.286  15.534  31.710  1.00  0.00     0.038 C 
HETATM   12  C16 UNL     1       4.961  16.463  30.527  1.00  0.00    -0.033 C 
HETATM   13  C17 UNL     1       5.576  17.846  30.784  1.00  0.00     0.016 C 
HETATM   14  C18 UNL     1       3.484  16.578  30.480  1.00  0.00     0.016 C 
HETATM   15  C19 UNL     1       2.836  16.158  29.205  1.00  0.00     0.055 C 
HETATM   16  C20 UNL     1       3.624  16.685  28.080  1.00  0.00     0.010 C 
HETATM   17  N2  UNL     1       3.121  17.446  27.187  1.00  0.00    -0.275 N 
ATOM     18  H2  UNL     1       2.134  17.696  27.260  1.00  0.00     0.193 HD
HETATM   19  C23 UNL     1       5.042  16.302  28.011  1.00  0.00     0.060 C 
HETATM   20  C24 UNL     1       5.625  15.894  29.333  1.00  0.00    -0.000 C 
HETATM   21  C25 UNL     1       5.801  14.371  29.429  1.00  0.00     0.009 C 
HETATM   22  C26 UNL     1       6.867  14.140  30.490  1.00  0.00     0.045 C 
HETATM   23  C27 UNL     1       6.695  15.065  31.664  1.00  0.00     0.119 C 
HETATM   24  F4  UNL     1       7.638  16.053  31.609  1.00  0.00    -0.241 F 
ENDROOT
BRANCH   1  25
HETATM   25  C4  UNL     1       8.388  16.512  35.349  1.00  0.00     0.194 C 
BRANCH  25  26
HETATM   26  O2  UNL     1       9.530  16.515  34.504  1.00  0.00    -0.303 OA
BRANCH  26  27
HETATM   27  C3  UNL     1       9.831  17.524  33.636  1.00  0.00     0.360 C 
HETATM   28  N1  UNL     1      11.132  17.658  33.107  1.00  0.00    -0.337 N 
ATOM     29  H1  UNL     1      11.867  16.999  33.368  1.00  0.00     0.164 HD
HETATM   30  O1  UNL     1       8.943  18.342  33.305  1.00  0.00    -0.239 OA
BRANCH  28  31
HETATM   31  C2  UNL     1      11.411  18.741  32.189  1.00  0.00     0.120 C 
HETATM   32  C1  UNL     1      12.859  18.833  31.824  1.00  0.00     0.026 C 
ENDBRANCH  28  31
ENDBRANCH  26  27
ENDBRANCH  25  26
ENDBRANCH   1  25
BRANCH  17  33
HETATM   33  O3  UNL     1       3.842  17.944  26.136  1.00  0.00    -0.272 OA
BRANCH  33  34
HETATM   34  C21 UNL     1       4.087  19.320  26.094  1.00  0.00     0.318 C 
BRANCH  34  35
HETATM   35  C22 UNL     1       5.164  19.676  25.080  1.00  0.00     0.410 C 
HETATM   36  F1  UNL     1       6.138  20.462  25.656  1.00  0.00    -0.169 F 
HETATM   37  F2  UNL     1       5.765  18.498  24.701  1.00  0.00    -0.169 F 
HETATM   38  F3  UNL     1       4.638  20.376  24.023  1.00  0.00    -0.169 F 
ENDBRANCH  34  35
ENDBRANCH  33  34
ENDBRANCH  17  33
TORSDOF 7
ENDMDL
MODEL 3
REMARK VINA RESULT: -7.212395477      3.352      8.494
REMARK  7 active torsions:
REMARK  status: ('A' for Active; 'I' for Inactive)
REMARK    1  A    between atoms: C2_2  and  N1_3 
REMARK       I    between atoms: N1_3  and  C3_5 
REMARK    2  A    between atoms: C3_5  and  O2_7 
REMARK    3  A    between atoms: O2_7  and  C4_8 
REMARK    4  A    between atoms: C4_8  and  C5_9 
REMARK    5  A    between atoms: N2_25  and  O3_27 
REMARK    6  A    between atoms: O3_27  and  C21_28 
REMARK    7  A    between atoms: C21_28  and  C22_29 
ROOT
HETATM    1  C5  UNL     1       6.335  14.779  35.484  1.00  0.00     0.002 C 
HETATM    2  C6  UNL     1       5.048  14.924  36.308  1.00  0.00     0.022 C 
HETATM    3  C7  UNL     1       7.057  13.588  35.981  1.00  0.00     0.016 C 
HETATM    4  C8  UNL     1       7.657  12.700  34.968  1.00  0.00     0.002 C 
HETATM    5  C9  UNL     1       7.781  13.265  33.593  1.00  0.00     0.017 C 
HETATM    6  C10 UNL     1       6.453  13.778  33.067  1.00  0.00     0.017 C 
HETATM    7  C11 UNL     1       5.429  12.706  32.906  1.00  0.00     0.023 C 
HETATM    8  C12 UNL     1       5.962  14.765  34.073  1.00  0.00    -0.062 C 
HETATM    9  C13 UNL     1       5.121  15.694  33.632  1.00  0.00    -0.022 C 
HETATM   10  C14 UNL     1       4.670  15.783  32.230  1.00  0.00     0.036 C 
HETATM   11  C15 UNL     1       5.525  15.079  31.236  1.00  0.00     0.038 C 
HETATM   12  C16 UNL     1       5.783  15.932  29.982  1.00  0.00    -0.033 C 
HETATM   13  C17 UNL     1       6.416  17.268  30.398  1.00  0.00     0.016 C 
HETATM   14  C18 UNL     1       4.456  16.182  29.368  1.00  0.00     0.016 C 
HETATM   15  C19 UNL     1       4.291  15.721  27.960  1.00  0.00     0.055 C 
HETATM   16  C20 UNL     1       5.501  16.076  27.202  1.00  0.00     0.010 C 
HETATM   17  N2  UNL     1       5.465  16.805  26.154  1.00  0.00    -0.275 N 
ATOM     18  H2  UNL     1       4.560  17.152  25.834  1.00  0.00     0.193 HD
HETATM   19  C23 UNL     1       6.784  15.556  27.698  1.00  0.00     0.060 C 
HETATM   20  C24 UNL     1       6.774  15.206  29.157  1.00  0.00    -0.000 C 
HETATM   21  C25 UNL     1       6.719  13.687  29.375  1.00  0.00     0.009 C 
HETATM   22  C26 UNL     1       7.271  13.445  30.773  1.00  0.00     0.045 C 
HETATM   23  C27 UNL     1       6.782  14.476  31.752  1.00  0.00     0.119 C 
HETATM   24  F4  UNL     1       7.787  15.362  32.023  1.00  0.00    -0.241 F 
ENDROOT
BRANCH   1  25
HETATM   25  C4  UNL     1       7.124  16.057  35.743  1.00  0.00     0.194 C 
BRANCH  25  26
HETATM   26  O2  UNL     1       8.371  16.024  35.064  1.00  0.00    -0.303 OA
BRANCH  26  27
HETATM   27  C3  UNL     1       8.884  17.078  34.365  1.00  0.00     0.360 C 
HETATM   28  N1  UNL     1      10.110  16.959  33.675  1.00  0.00    -0.337 N 
ATOM     29  H1  UNL     1      10.629  16.081  33.691  1.00  0.00     0.164 HD
HETATM   30  O1  UNL     1       8.263  18.164  34.334  1.00  0.00    -0.239 OA
BRANCH  28  31
HETATM   31  C2  UNL     1      10.621  18.099  32.945  1.00  0.00     0.120 C 
HETATM   32  C1  UNL     1      12.114  18.109  32.856  1.00  0.00     0.026 C 
ENDBRANCH  28  31
ENDBRANCH  26  27
ENDBRANCH  25  26
ENDBRANCH   1  25
BRANCH  17  33
HETATM   33  O3  UNL     1       6.582  17.143  25.441  1.00  0.00    -0.272 OA
BRANCH  33  34
HETATM   34  C21 UNL     1       6.602  16.863  24.071  1.00  0.00     0.318 C 
BRANCH  34  35
HETATM   35  C22 UNL     1       7.547  15.718  23.738  1.00  0.00     0.410 C 
HETATM   36  F1  UNL     1       7.583  14.798  24.763  1.00  0.00    -0.169 F 
HETATM   37  F2  UNL     1       7.030  15.077  22.635  1.00  0.00    -0.169 F 
HETATM   38  F3  UNL     1       8.828  16.172  23.544  1.00  0.00    -0.169 F 
ENDBRANCH  34  35
ENDBRANCH  33  34
ENDBRANCH  17  33
TORSDOF 7
ENDMDL
MODEL 4
REMARK VINA RESULT: -7.047571118      3.037      8.786
REMARK  7 active torsions:
REMARK  status: ('A' for Active; 'I' for Inactive)
REMARK    1  A    between atoms: C2_2  and  N1_3 
REMARK       I    between atoms: N1_3  and  C3_5 
REMARK    2  A    between atoms: C3_5  and  O2_7 
REMARK    3  A    between atoms: O2_7  and  C4_8 
REMARK    4  A    between atoms: C4_8  and  C5_9 
REMARK    5  A    between atoms: N2_25  and  O3_27 
REMARK    6  A    between atoms: O3_27  and  C21_28 
REMARK    7  A    between atoms: C21_28  and  C22_29 
ROOT
HETATM    1  C5  UNL     1       6.291  14.410  35.399  1.00  0.00     0.002 C 
HETATM    2  C6  UNL     1       5.073  14.164  36.301  1.00  0.00     0.022 C 
HETATM    3  C7  UNL     1       7.256  13.314  35.635  1.00  0.00     0.016 C 
HETATM    4  C8  UNL     1       7.918  12.741  34.449  1.00  0.00     0.002 C 
HETATM    5  C9  UNL     1       7.820  13.542  33.194  1.00  0.00     0.017 C 
HETATM    6  C10 UNL     1       6.382  13.869  32.838  1.00  0.00     0.017 C 
HETATM    7  C11 UNL     1       5.559  12.662  32.540  1.00  0.00     0.023 C 
HETATM    8  C12 UNL     1       5.807  14.560  34.030  1.00  0.00    -0.062 C 
HETATM    9  C13 UNL     1       4.778  15.370  33.808  1.00  0.00    -0.022 C 
HETATM   10  C14 UNL     1       4.201  15.603  32.470  1.00  0.00     0.036 C 
HETATM   11  C15 UNL     1       5.082  15.254  31.322  1.00  0.00     0.038 C 
HETATM   12  C16 UNL     1       5.074  16.338  30.231  1.00  0.00    -0.033 C 
HETATM   13  C17 UNL     1       5.488  17.682  30.848  1.00  0.00     0.016 C 
HETATM   14  C18 UNL     1       3.677  16.427  29.741  1.00  0.00     0.016 C 
HETATM   15  C19 UNL     1       3.479  16.184  28.284  1.00  0.00     0.055 C 
HETATM   16  C20 UNL     1       4.535  16.888  27.541  1.00  0.00     0.010 C 
HETATM   17  N2  UNL     1       4.280  17.761  26.645  1.00  0.00    -0.275 N 
ATOM     18  H2  UNL     1       3.303  17.975  26.439  1.00  0.00     0.193 HD
HETATM   19  C23 UNL     1       5.929  16.550  27.867  1.00  0.00     0.060 C 
HETATM   20  C24 UNL     1       6.106  15.966  29.238  1.00  0.00    -0.000 C 
HETATM   21  C25 UNL     1       6.345  14.449  29.182  1.00  0.00     0.009 C 
HETATM   22  C26 UNL     1       7.049  14.088  30.482  1.00  0.00     0.045 C 
HETATM   23  C27 UNL     1       6.467  14.827  31.656  1.00  0.00     0.119 C 
HETATM   24  F4  UNL     1       7.314  15.833  32.029  1.00  0.00    -0.241 F 
ENDROOT
BRANCH   1  25
HETATM   25  C4  UNL     1       6.854  15.755  35.842  1.00  0.00     0.194 C 
BRANCH  25  26
HETATM   26  O2  UNL     1       8.257  15.808  35.626  1.00  0.00    -0.303 OA
BRANCH  26  27
HETATM   27  C3  UNL     1       8.862  16.693  34.782  1.00  0.00     0.360 C 
HETATM   28  N1  UNL     1       8.393  18.020  34.667  1.00  0.00    -0.337 N 
ATOM     29  H1  UNL     1       7.592  18.334  35.215  1.00  0.00     0.164 HD
HETATM   30  O1  UNL     1       9.846  16.326  34.099  1.00  0.00    -0.239 OA
BRANCH  28  31
HETATM   31  C2  UNL     1       9.062  18.928  33.761  1.00  0.00     0.120 C 
HETATM   32  C1  UNL     1       8.128  19.561  32.779  1.00  0.00     0.026 C 
ENDBRANCH  28  31
ENDBRANCH  26  27
ENDBRANCH  25  26
ENDBRANCH   1  25
BRANCH  17  33
HETATM   33  O3  UNL     1       5.253  18.422  25.947  1.00  0.00    -0.272 OA
BRANCH  33  34
HETATM   34  C21 UNL     1       4.908  19.007  24.724  1.00  0.00     0.318 C 
BRANCH  34  35
HETATM   35  C22 UNL     1       4.743  20.515  24.841  1.00  0.00     0.410 C 
HETATM   36  F1  UNL     1       3.763  20.831  25.757  1.00  0.00    -0.169 F 
HETATM   37  F2  UNL     1       5.930  21.013  25.327  1.00  0.00    -0.169 F 
HETATM   38  F3  UNL     1       4.380  21.069  23.638  1.00  0.00    -0.169 F 
ENDBRANCH  34  35
ENDBRANCH  33  34
ENDBRANCH  17  33
TORSDOF 7
ENDMDL
MODEL 5
REMARK VINA RESULT: -6.965863418      1.508      1.750
REMARK  7 active torsions:
REMARK  status: ('A' for Active; 'I' for Inactive)
REMARK    1  A    between atoms: C2_2  and  N1_3 
REMARK       I    between atoms: N1_3  and  C3_5 
REMARK    2  A    between atoms: C3_5  and  O2_7 
REMARK    3  A    between atoms: O2_7  and  C4_8 
REMARK    4  A    between atoms: C4_8  and  C5_9 
REMARK    5  A    between atoms: N2_25  and  O3_27 
REMARK    6  A    between atoms: O3_27  and  C21_28 
REMARK    7  A    between atoms: C21_28  and  C22_29 
ROOT
HETATM    1  C5  UNL     1       4.099  18.261  27.189  1.00  0.00     0.002 C 
HETATM    2  C6  UNL     1       2.732  18.127  26.503  1.00  0.00     0.022 C 
HETATM    3  C7  UNL     1       4.605  19.625  26.922  1.00  0.00     0.016 C 
HETATM    4  C8  UNL     1       5.239  20.334  28.049  1.00  0.00     0.002 C 
HETATM    5  C9  UNL     1       5.619  19.492  29.221  1.00  0.00     0.017 C 
HETATM    6  C10 UNL     1       4.445  18.689  29.749  1.00  0.00     0.017 C 
HETATM    7  C11 UNL     1       3.341  19.539  30.280  1.00  0.00     0.023 C 
HETATM    8  C12 UNL     1       3.930  17.899  28.592  1.00  0.00    -0.062 C 
HETATM    9  C13 UNL     1       3.269  16.784  28.883  1.00  0.00    -0.022 C 
HETATM   10  C14 UNL     1       3.034  16.313  30.261  1.00  0.00     0.036 C 
HETATM   11  C15 UNL     1       3.938  16.885  31.297  1.00  0.00     0.038 C 
HETATM   12  C16 UNL     1       4.464  15.814  32.267  1.00  0.00    -0.033 C 
HETATM   13  C17 UNL     1       5.177  14.713  31.468  1.00  0.00     0.016 C 
HETATM   14  C18 UNL     1       3.274  15.244  32.944  1.00  0.00     0.016 C 
HETATM   15  C19 UNL     1       3.259  15.342  34.431  1.00  0.00     0.055 C 
HETATM   16  C20 UNL     1       4.597  14.999  34.940  1.00  0.00     0.010 C 
HETATM   17  N2  UNL     1       4.791  14.053  35.774  1.00  0.00    -0.275 N 
ATOM     18  H2  UNL     1       3.986  13.517  36.099  1.00  0.00     0.193 HD
HETATM   19  C23 UNL     1       5.731  15.796  34.448  1.00  0.00     0.060 C 
HETATM   20  C24 UNL     1       5.475  16.465  33.129  1.00  0.00    -0.000 C 
HETATM   21  C25 UNL     1       5.219  17.971  33.297  1.00  0.00     0.009 C 
HETATM   22  C26 UNL     1       5.537  18.602  31.950  1.00  0.00     0.045 C 
HETATM   23  C27 UNL     1       5.033  17.763  30.808  1.00  0.00     0.119 C 
HETATM   24  F4  UNL     1       6.082  17.115  30.219  1.00  0.00    -0.241 F 
ENDROOT
BRANCH   1  25
HETATM   25  C4  UNL     1       4.981  17.202  26.539  1.00  0.00     0.194 C 
BRANCH  25  26
HETATM   26  O2  UNL     1       5.565  16.361  27.523  1.00  0.00    -0.303 OA
BRANCH  26  27
HETATM   27  C3  UNL     1       5.926  15.064  27.299  1.00  0.00     0.360 C 
HETATM   28  N1  UNL     1       5.272  14.006  27.965  1.00  0.00    -0.337 N 
ATOM     29  H1  UNL     1       4.518  14.198  28.625  1.00  0.00     0.164 HD
HETATM   30  O1  UNL     1       6.849  14.808  26.492  1.00  0.00    -0.239 OA
BRANCH  28  31
HETATM   31  C2  UNL     1       5.684  12.645  27.699  1.00  0.00     0.120 C 
HETATM   32  C1  UNL     1       6.303  11.983  28.890  1.00  0.00     0.026 C 
ENDBRANCH  28  31
ENDBRANCH  26  27
ENDBRANCH  25  26
ENDBRANCH   1  25
BRANCH  17  33
HETATM   33  O3  UNL     1       6.029  13.723  36.255  1.00  0.00    -0.272 OA
BRANCH  33  34
HETATM   34  C21 UNL     1       6.625  12.544  35.797  1.00  0.00     0.318 C 
BRANCH  34  35
HETATM   35  C22 UNL     1       7.546  12.794  34.612  1.00  0.00     0.410 C 
HETATM   36  F1  UNL     1       8.455  11.767  34.473  1.00  0.00    -0.169 F 
HETATM   37  F2  UNL     1       6.759  12.795  33.484  1.00  0.00    -0.169 F 
HETATM   38  F3  UNL     1       8.257  13.957  34.774  1.00  0.00    -0.169 F 
ENDBRANCH  34  35
ENDBRANCH  33  34
ENDBRANCH  17  33
TORSDOF 7
ENDMDL
