MODEL 1
REMARK VINA RESULT: -8.182733314      0.000      0.000
REMARK  7 active torsions:
REMARK  status: ('A' for Active; 'I' for Inactive)
REMARK    1  A    between atoms: C4_7  and  C5_8 
REMARK    2  A    between atoms: C5_8  and  C6_9 
REMARK    3  A    between atoms: C6_9  and  C7_10 
REMARK    4  A    between atoms: C7_10  and  N2_11 
REMARK    5  A    between atoms: N2_11  and  C9_13 
REMARK    6  A    between atoms: C9_13  and  C10_14 
REMARK    7  A    between atoms: C10_14  and  O2_15 
ROOT
HETATM    1  N2  UNL     1      -9.509  17.097  20.048  1.00  0.00     0.089 N 
HETATM    2  C8  UNL     1      -9.150  17.997  21.150  1.00  0.00     0.310 C 
ENDROOT
BRANCH   1   3
HETATM    3  C7  UNL     1     -10.861  16.692  20.091  1.00  0.00     0.276 C 
BRANCH   3   4
HETATM    4  C6  UNL     1     -11.334  16.361  21.508  1.00  0.00     0.060 C 
BRANCH   4   5
HETATM    5  C5  UNL     1     -11.359  14.891  21.688  1.00  0.00     0.010 C 
BRANCH   5   6
HETATM    6  C4  UNL     1     -10.344  14.084  21.451  1.00  0.00     0.098 A 
HETATM    7  C3  UNL     1      -9.099  14.011  22.013  1.00  0.00     0.273 A 
HETATM    8  N1  UNL     1      -8.405  12.990  21.431  1.00  0.00    -0.308 N 
HETATM    9  O1  UNL     1      -8.664  14.774  22.929  1.00  0.00    -0.266 OA
HETATM   10  C2  UNL     1      -9.205  12.434  20.517  1.00  0.00     0.098 A 
ATOM     11  H1  UNL     1      -7.451  12.705  21.652  1.00  0.00     0.170 HD
HETATM   12  C1  UNL     1      -8.898  11.409  19.741  1.00  0.00     0.063 C 
HETATM   13  N5  UNL     1     -10.373  13.097  20.533  1.00  0.00    -0.339 N 
ATOM     14  H5  UNL     1     -11.171  12.884  19.935  1.00  0.00     0.167 HD
ENDBRANCH   5   6
ENDBRANCH   4   5
ENDBRANCH   3   4
ENDBRANCH   1   3
BRANCH   1  15
HETATM   15  C9  UNL     1      -8.499  16.119  19.972  1.00  0.00     0.343 C 
BRANCH  15  16
HETATM   16  C10 UNL     1      -7.222  16.444  19.291  1.00  0.00     0.245 C 
HETATM   17  N3  UNL     1      -6.848  15.315  18.417  1.00  0.00    -0.301 N 
HETATM   18  C11 UNL     1      -5.432  15.316  18.364  1.00  0.00     0.325 C 
ATOM     19  H3  UNL     1      -7.479  14.666  17.947  1.00  0.00     0.167 HD
HETATM   20  O3  UNL     1      -4.743  14.772  17.463  1.00  0.00    -0.247 OA
HETATM   21  N4  UNL     1      -4.932  16.030  19.489  1.00  0.00    -0.275 N 
HETATM   22  C12 UNL     1      -6.063  16.461  20.225  1.00  0.00     0.283 C 
ATOM     23  H4  UNL     1      -3.953  16.198  19.720  1.00  0.00     0.173 HD
HETATM   24  O4  UNL     1      -6.136  16.800  21.417  1.00  0.00    -0.267 OA
BRANCH  16  25
HETATM   25  O2  UNL     1      -7.190  17.593  18.545  1.00  0.00    -0.362 OA
ATOM     26  H2  UNL     1      -6.451  18.174  18.679  1.00  0.00     0.213 HD
ENDBRANCH  16  25
ENDBRANCH  15  16
ENDBRANCH   1  15
TORSDOF 7
ENDMDL
MODEL 2
REMARK VINA RESULT: -8.060556497      1.830      4.420
REMARK  7 active torsions:
REMARK  status: ('A' for Active; 'I' for Inactive)
REMARK    1  A    between atoms: C4_7  and  C5_8 
REMARK    2  A    between atoms: C5_8  and  C6_9 
REMARK    3  A    between atoms: C6_9  and  C7_10 
REMARK    4  A    between atoms: C7_10  and  N2_11 
REMARK    5  A    between atoms: N2_11  and  C9_13 
REMARK    6  A    between atoms: C9_13  and  C10_14 
REMARK    7  A    between atoms: C10_14  and  O2_15 
ROOT
HETATM    1  N2  UNL     1     -10.560  16.695  21.550  1.00  0.00     0.089 N 
HETATM    2  C8  UNL     1     -11.800  16.757  22.335  1.00  0.00     0.310 C 
ENDROOT
BRANCH   1   3
HETATM    3  C7  UNL     1     -10.276  17.905  20.879  1.00  0.00     0.276 C 
BRANCH   3   4
HETATM    4  C6  UNL     1      -8.989  18.566  21.373  1.00  0.00     0.060 C 
BRANCH   4   5
HETATM    5  C5  UNL     1      -7.922  18.385  20.360  1.00  0.00     0.010 C 
BRANCH   5   6
HETATM    6  C4  UNL     1      -7.235  17.274  20.179  1.00  0.00     0.098 A 
HETATM    7  C3  UNL     1      -6.713  16.379  21.072  1.00  0.00     0.273 A 
HETATM    8  N1  UNL     1      -6.090  15.376  20.387  1.00  0.00    -0.308 N 
HETATM    9  O1  UNL     1      -6.798  16.472  22.335  1.00  0.00    -0.266 OA
HETATM   10  C2  UNL     1      -6.220  15.641  19.085  1.00  0.00     0.098 A 
ATOM     11  H1  UNL     1      -5.612  14.572  20.795  1.00  0.00     0.170 HD
HETATM   12  C1  UNL     1      -5.754  14.901  18.093  1.00  0.00     0.063 C 
HETATM   13  N5  UNL     1      -6.912  16.787  18.964  1.00  0.00    -0.339 N 
ATOM     14  H5  UNL     1      -7.158  17.227  18.078  1.00  0.00     0.167 HD
ENDBRANCH   5   6
ENDBRANCH   4   5
ENDBRANCH   3   4
ENDBRANCH   1   3
BRANCH   1  15
HETATM   15  C9  UNL     1     -10.600  15.494  20.817  1.00  0.00     0.343 C 
BRANCH  15  16
HETATM   16  C10 UNL     1      -9.822  14.325  21.294  1.00  0.00     0.245 C 
HETATM   17  N3  UNL     1      -8.974  13.835  20.190  1.00  0.00    -0.301 N 
HETATM   18  C11 UNL     1      -8.827  12.442  20.401  1.00  0.00     0.325 C 
ATOM     19  H3  UNL     1      -8.575  14.386  19.430  1.00  0.00     0.167 HD
HETATM   20  O3  UNL     1      -7.906  11.732  19.920  1.00  0.00    -0.247 OA
HETATM   21  N4  UNL     1      -9.884  11.991  21.239  1.00  0.00    -0.275 N 
HETATM   22  C12 UNL     1     -10.675  13.128  21.534  1.00  0.00     0.283 C 
ATOM     23  H4  UNL     1     -10.042  11.037  21.564  1.00  0.00     0.173 HD
HETATM   24  O4  UNL     1     -11.854  13.181  21.919  1.00  0.00    -0.267 OA
BRANCH  16  25
HETATM   25  O2  UNL     1      -9.028  14.513  22.394  1.00  0.00    -0.362 OA
ATOM     26  H2  UNL     1      -8.375  15.201  22.342  1.00  0.00     0.213 HD
ENDBRANCH  16  25
ENDBRANCH  15  16
ENDBRANCH   1  15
TORSDOF 7
ENDMDL
MODEL 3
REMARK VINA RESULT: -7.931550107      1.729      4.116
REMARK  7 active torsions:
REMARK  status: ('A' for Active; 'I' for Inactive)
REMARK    1  A    between atoms: C4_7  and  C5_8 
REMARK    2  A    between atoms: C5_8  and  C6_9 
REMARK    3  A    between atoms: C6_9  and  C7_10 
REMARK    4  A    between atoms: C7_10  and  N2_11 
REMARK    5  A    between atoms: N2_11  and  C9_13 
REMARK    6  A    between atoms: C9_13  and  C10_14 
REMARK    7  A    between atoms: C10_14  and  O2_15 
ROOT
HETATM    1  N2  UNL     1     -10.771  16.357  21.773  1.00  0.00     0.089 N 
HETATM    2  C8  UNL     1     -12.011  16.782  22.434  1.00  0.00     0.310 C 
ENDROOT
BRANCH   1   3
HETATM    3  C7  UNL     1     -10.351  17.257  20.769  1.00  0.00     0.276 C 
BRANCH   3   4
HETATM    4  C6  UNL     1      -9.422  18.348  21.304  1.00  0.00     0.060 C 
BRANCH   4   5
HETATM    5  C5  UNL     1      -8.213  18.427  20.451  1.00  0.00     0.010 C 
BRANCH   5   6
HETATM    6  C4  UNL     1      -7.348  17.447  20.274  1.00  0.00     0.098 A 
HETATM    7  C3  UNL     1      -6.424  16.897  21.119  1.00  0.00     0.273 A 
HETATM    8  N1  UNL     1      -5.770  15.890  20.469  1.00  0.00    -0.308 N 
HETATM    9  O1  UNL     1      -6.213  17.267  22.314  1.00  0.00    -0.266 OA
HETATM   10  C2  UNL     1      -6.278  15.814  19.236  1.00  0.00     0.098 A 
ATOM     11  H1  UNL     1      -5.029  15.304  20.855  1.00  0.00     0.170 HD
HETATM   12  C1  UNL     1      -5.910  14.959  18.298  1.00  0.00     0.063 C 
HETATM   13  N5  UNL     1      -7.230  16.756  19.124  1.00  0.00    -0.339 N 
ATOM     14  H5  UNL     1      -7.785  16.924  18.285  1.00  0.00     0.167 HD
ENDBRANCH   5   6
ENDBRANCH   4   5
ENDBRANCH   3   4
ENDBRANCH   1   3
BRANCH   1  15
HETATM   15  C9  UNL     1     -10.921  14.994  21.457  1.00  0.00     0.343 C 
BRANCH  15  16
HETATM   16  C10 UNL     1      -9.890  14.323  20.629  1.00  0.00     0.245 C 
HETATM   17  N3  UNL     1     -10.384  12.984  20.247  1.00  0.00    -0.301 N 
HETATM   18  C11 UNL     1      -9.233  12.169  20.114  1.00  0.00     0.325 C 
ATOM     19  H3  UNL     1     -11.354  12.704  20.107  1.00  0.00     0.167 HD
HETATM   20  O3  UNL     1      -9.181  11.095  19.459  1.00  0.00    -0.247 OA
HETATM   21  N4  UNL     1      -8.162  12.765  20.837  1.00  0.00    -0.275 N 
HETATM   22  C12 UNL     1      -8.678  13.952  21.410  1.00  0.00     0.283 C 
ATOM     23  H4  UNL     1      -7.211  12.407  20.925  1.00  0.00     0.173 HD
HETATM   24  O4  UNL     1      -8.249  14.604  22.376  1.00  0.00    -0.267 OA
BRANCH  16  25
HETATM   25  O2  UNL     1      -9.486  14.971  19.491  1.00  0.00    -0.362 OA
ATOM     26  H2  UNL     1      -8.843  15.663  19.594  1.00  0.00     0.213 HD
ENDBRANCH  16  25
ENDBRANCH  15  16
ENDBRANCH   1  15
TORSDOF 7
ENDMDL
MODEL 4
REMARK VINA RESULT: -7.794047396      1.406      2.011
REMARK  7 active torsions:
REMARK  status: ('A' for Active; 'I' for Inactive)
REMARK    1  A    between atoms: C4_7  and  C5_8 
REMARK    2  A    between atoms: C5_8  and  C6_9 
REMARK    3  A    between atoms: C6_9  and  C7_10 
REMARK    4  A    between atoms: C7_10  and  N2_11 
REMARK    5  A    between atoms: N2_11  and  C9_13 
REMARK    6  A    between atoms: C9_13  and  C10_14 
REMARK    7  A    between atoms: C10_14  and  O2_15 
ROOT
HETATM    1  N2  UNL     1      -7.974  17.701  20.839  1.00  0.00     0.089 N 
HETATM    2  C8  UNL     1      -7.752  19.139  21.038  1.00  0.00     0.310 C 
ENDROOT
BRANCH   1   3
HETATM    3  C7  UNL     1      -9.014  17.191  21.647  1.00  0.00     0.276 C 
BRANCH   3   4
HETATM    4  C6  UNL     1     -10.386  17.295  20.978  1.00  0.00     0.060 C 
BRANCH   4   5
HETATM    5  C5  UNL     1     -10.636  16.074  20.177  1.00  0.00     0.010 C 
BRANCH   5   6
HETATM    6  C4  UNL     1     -10.388  14.843  20.580  1.00  0.00     0.098 A 
HETATM    7  C3  UNL     1     -10.856  14.132  21.651  1.00  0.00     0.273 A 
HETATM    8  N1  UNL     1     -10.307  12.883  21.631  1.00  0.00    -0.308 N 
HETATM    9  O1  UNL     1     -11.671  14.570  22.519  1.00  0.00    -0.266 OA
HETATM   10  C2  UNL     1      -9.506  12.814  20.564  1.00  0.00     0.098 A 
ATOM     11  H1  UNL     1     -10.477  12.138  22.308  1.00  0.00     0.170 HD
HETATM   12  C1  UNL     1      -8.795  11.763  20.196  1.00  0.00     0.063 C 
HETATM   13  N5  UNL     1      -9.559  13.999  19.933  1.00  0.00    -0.339 N 
ATOM     14  H5  UNL     1      -9.044  14.229  19.084  1.00  0.00     0.167 HD
ENDBRANCH   5   6
ENDBRANCH   4   5
ENDBRANCH   3   4
ENDBRANCH   1   3
BRANCH   1  15
HETATM   15  C9  UNL     1      -6.710  17.083  20.873  1.00  0.00     0.343 C 
BRANCH  15  16
HETATM   16  C10 UNL     1      -6.405  15.998  19.909  1.00  0.00     0.245 C 
HETATM   17  N3  UNL     1      -4.951  15.981  19.655  1.00  0.00    -0.301 N 
HETATM   18  C11 UNL     1      -4.794  15.501  18.331  1.00  0.00     0.325 C 
ATOM     19  H3  UNL     1      -4.211  16.257  20.299  1.00  0.00     0.167 HD
HETATM   20  O3  UNL     1      -3.739  14.996  17.867  1.00  0.00    -0.247 OA
HETATM   21  N4  UNL     1      -6.016  15.687  17.627  1.00  0.00    -0.275 N 
HETATM   22  C12 UNL     1      -6.918  16.285  18.541  1.00  0.00     0.283 C 
ATOM     23  H4  UNL     1      -6.206  15.438  16.656  1.00  0.00     0.173 HD
HETATM   24  O4  UNL     1      -7.950  16.935  18.308  1.00  0.00    -0.267 OA
BRANCH  16  25
HETATM   25  O2  UNL     1      -6.794  14.731  20.256  1.00  0.00    -0.362 OA
ATOM     26  H2  UNL     1      -6.625  14.039  19.627  1.00  0.00     0.213 HD
ENDBRANCH  16  25
ENDBRANCH  15  16
ENDBRANCH   1  15
TORSDOF 7
ENDMDL
MODEL 5
REMARK VINA RESULT: -7.744549788      1.522      3.433
REMARK  7 active torsions:
REMARK  status: ('A' for Active; 'I' for Inactive)
REMARK    1  A    between atoms: C4_7  and  C5_8 
REMARK    2  A    between atoms: C5_8  and  C6_9 
REMARK    3  A    between atoms: C6_9  and  C7_10 
REMARK    4  A    between atoms: C7_10  and  N2_11 
REMARK    5  A    between atoms: N2_11  and  C9_13 
REMARK    6  A    between atoms: C9_13  and  C10_14 
REMARK    7  A    between atoms: C10_14  and  O2_15 
ROOT
HETATM    1  N2  UNL     1      -8.752  14.255  21.133  1.00  0.00     0.089 N 
HETATM    2  C8  UNL     1      -8.522  14.555  22.552  1.00  0.00     0.310 C 
ENDROOT
BRANCH   1   3
HETATM    3  C7  UNL     1      -9.793  13.322  20.933  1.00  0.00     0.276 C 
BRANCH   3   4
HETATM    4  C6  UNL     1     -11.173  13.980  20.869  1.00  0.00     0.060 C 
BRANCH   4   5
HETATM    5  C5  UNL     1     -11.071  15.266  20.140  1.00  0.00     0.010 C 
BRANCH   5   6
HETATM    6  C4  UNL     1     -10.748  16.421  20.687  1.00  0.00     0.098 A 
HETATM    7  C3  UNL     1     -11.318  17.124  21.713  1.00  0.00     0.273 A 
HETATM    8  N1  UNL     1     -10.606  18.270  21.919  1.00  0.00    -0.308 N 
HETATM    9  O1  UNL     1     -12.345  16.763  22.365  1.00  0.00    -0.266 OA
HETATM   10  C2  UNL     1      -9.605  18.283  21.034  1.00  0.00     0.098 A 
ATOM     11  H1  UNL     1     -10.802  18.985  22.620  1.00  0.00     0.170 HD
HETATM   12  C1  UNL     1      -8.688  19.228  20.915  1.00  0.00     0.063 C 
HETATM   13  N5  UNL     1      -9.696  17.166  20.293  1.00  0.00    -0.339 N 
ATOM     14  H5  UNL     1      -9.057  16.915  19.539  1.00  0.00     0.167 HD
ENDBRANCH   5   6
ENDBRANCH   4   5
ENDBRANCH   3   4
ENDBRANCH   1   3
BRANCH   1  15
HETATM   15  C9  UNL     1      -7.491  14.013  20.556  1.00  0.00     0.343 C 
BRANCH  15  16
HETATM   16  C10 UNL     1      -6.962  14.959  19.544  1.00  0.00     0.245 C 
HETATM   17  N3  UNL     1      -6.026  14.236  18.659  1.00  0.00    -0.301 N 
HETATM   18  C11 UNL     1      -5.076  15.195  18.231  1.00  0.00     0.325 C 
ATOM     19  H3  UNL     1      -6.058  13.248  18.408  1.00  0.00     0.167 HD
HETATM   20  O3  UNL     1      -4.352  15.087  17.208  1.00  0.00    -0.247 OA
HETATM   21  N4  UNL     1      -5.082  16.286  19.145  1.00  0.00    -0.275 N 
HETATM   22  C12 UNL     1      -6.048  15.977  20.133  1.00  0.00     0.283 C 
ATOM     23  H4  UNL     1      -4.504  17.126  19.097  1.00  0.00     0.173 HD
HETATM   24  O4  UNL     1      -6.162  16.431  21.283  1.00  0.00    -0.267 OA
BRANCH  16  25
HETATM   25  O2  UNL     1      -7.878  15.608  18.759  1.00  0.00    -0.362 OA
ATOM     26  H2  UNL     1      -8.278  15.108  18.058  1.00  0.00     0.213 HD
ENDBRANCH  16  25
ENDBRANCH  15  16
ENDBRANCH   1  15
TORSDOF 7
ENDMDL
