MODEL 1
REMARK VINA RESULT: -7.594010508      0.000      0.000
REMARK  5 active torsions:
REMARK  status: ('A' for Active; 'I' for Inactive)
REMARK    1  A    between atoms: C1_2  and  C2_4 
REMARK    2  A    between atoms: C5_7  and  S1_8 
REMARK    3  A    between atoms: S1_8  and  N2_11 
REMARK    4  A    between atoms: N2_11  and  C6_13 
REMARK    5  A    between atoms: C6_13  and  N3_14 
ROOT
HETATM    1  S1  UNL     1      -9.707  13.477  20.896  1.00  0.00     0.275 S 
HETATM    2  O2  UNL     1      -9.892  11.979  20.872  1.00  0.00    -0.199 OA
HETATM    3  O3  UNL     1      -9.602  13.884  22.339  1.00  0.00    -0.199 OA
ENDROOT
BRANCH   1   4
HETATM    4  C5  UNL     1      -8.244  13.908  20.088  1.00  0.00     0.151 A 
HETATM    5  C4  UNL     1      -7.337  13.021  19.587  1.00  0.00     0.045 A 
HETATM    6  C3  UNL     1      -6.178  13.471  18.947  1.00  0.00     0.025 A 
HETATM    7  C2  UNL     1      -5.919  14.814  18.804  1.00  0.00     0.097 A 
HETATM    8  C9  UNL     1      -6.876  15.680  19.333  1.00  0.00     0.261 A 
HETATM    9  N6  UNL     1      -7.970  15.232  19.937  1.00  0.00    -0.312 N 
HETATM   10  O5  UNL     1      -6.668  16.926  19.218  1.00  0.00    -0.267 OA
ATOM     11  H6  UNL     1      -8.635  15.912  20.306  1.00  0.00     0.170 HD
BRANCH   7  12
HETATM   12  C1  UNL     1      -4.749  15.344  18.158  1.00  0.00     0.270 C 
HETATM   13  N1  UNL     1      -4.044  16.450  18.695  1.00  0.00    -0.057 NA
HETATM   14  O1  UNL     1      -4.327  14.833  17.097  1.00  0.00    -0.271 OA
ENDBRANCH   7  12
ENDBRANCH   1   4
BRANCH   1  15
HETATM   15  N2  UNL     1     -11.092  14.232  20.213  1.00  0.00    -0.297 N 
ATOM     16  H2  UNL     1     -11.340  14.187  19.225  1.00  0.00     0.174 HD
BRANCH  15  17
HETATM   17  C6  UNL     1     -11.863  14.944  21.216  1.00  0.00     0.269 C 
BRANCH  17  18
HETATM   18  N3  UNL     1     -11.469  16.310  21.349  1.00  0.00    -0.276 N 
HETATM   19  C7  UNL     1     -11.657  17.110  22.436  1.00  0.00     0.206 A 
HETATM   20  N4  UNL     1     -11.140  18.319  22.147  1.00  0.00    -0.292 N 
HETATM   21  N5  UNL     1     -10.636  18.307  20.925  1.00  0.00    -0.250 N 
ATOM     22  H4  UNL     1     -11.137  19.121  22.776  1.00  0.00     0.187 HD
HETATM   23  C8  UNL     1     -10.838  17.073  20.433  1.00  0.00     0.343 A 
ATOM     24  H5  UNL     1     -10.183  19.085  20.446  1.00  0.00     0.192 HD
HETATM   25  O4  UNL     1     -10.496  16.659  19.277  1.00  0.00    -0.245 OA
ENDBRANCH  17  18
ENDBRANCH  15  17
ENDBRANCH   1  15
TORSDOF 5
ENDMDL
MODEL 2
REMARK VINA RESULT: -7.366285525      1.350      1.764
REMARK  5 active torsions:
REMARK  status: ('A' for Active; 'I' for Inactive)
REMARK    1  A    between atoms: C1_2  and  C2_4 
REMARK    2  A    between atoms: C5_7  and  S1_8 
REMARK    3  A    between atoms: S1_8  and  N2_11 
REMARK    4  A    between atoms: N2_11  and  C6_13 
REMARK    5  A    between atoms: C6_13  and  N3_14 
ROOT
HETATM    1  S1  UNL     1      -9.699  13.462  20.639  1.00  0.00     0.275 S 
HETATM    2  O2  UNL     1     -10.862  14.097  19.917  1.00  0.00    -0.199 OA
HETATM    3  O3  UNL     1      -9.856  11.974  20.504  1.00  0.00    -0.199 OA
ENDROOT
BRANCH   1   4
HETATM    4  C5  UNL     1      -8.211  13.934  19.900  1.00  0.00     0.151 A 
HETATM    5  C4  UNL     1      -7.231  13.075  19.498  1.00  0.00     0.045 A 
HETATM    6  C3  UNL     1      -6.058  13.557  18.908  1.00  0.00     0.025 A 
HETATM    7  C2  UNL     1      -5.859  14.904  18.716  1.00  0.00     0.097 A 
HETATM    8  C9  UNL     1      -6.890  15.740  19.145  1.00  0.00     0.261 A 
HETATM    9  N6  UNL     1      -7.996  15.263  19.703  1.00  0.00    -0.312 N 
HETATM   10  O5  UNL     1      -6.738  16.990  18.983  1.00  0.00    -0.267 OA
ATOM     11  H6  UNL     1      -8.715  15.922  19.998  1.00  0.00     0.170 HD
BRANCH   7  12
HETATM   12  C1  UNL     1      -4.679  15.466  18.118  1.00  0.00     0.270 C 
HETATM   13  N1  UNL     1      -3.965  16.521  18.738  1.00  0.00    -0.057 NA
HETATM   14  O1  UNL     1      -4.257  15.029  17.025  1.00  0.00    -0.271 OA
ENDBRANCH   7  12
ENDBRANCH   1   4
BRANCH   1  15
HETATM   15  N2  UNL     1      -9.772  13.873  22.307  1.00  0.00    -0.297 N 
ATOM     16  H2  UNL     1     -10.170  13.272  23.028  1.00  0.00     0.174 HD
BRANCH  15  17
HETATM   17  C6  UNL     1      -9.197  15.181  22.561  1.00  0.00     0.269 C 
BRANCH  17  18
HETATM   18  N3  UNL     1     -10.077  16.249  22.206  1.00  0.00    -0.276 N 
HETATM   19  C7  UNL     1      -9.775  17.330  21.433  1.00  0.00     0.206 A 
HETATM   20  N4  UNL     1     -10.882  18.091  21.346  1.00  0.00    -0.292 N 
HETATM   21  N5  UNL     1     -11.862  17.531  22.034  1.00  0.00    -0.250 N 
ATOM     22  H4  UNL     1     -10.953  18.967  20.829  1.00  0.00     0.187 HD
HETATM   23  C8  UNL     1     -11.368  16.398  22.563  1.00  0.00     0.343 A 
ATOM     24  H5  UNL     1     -12.811  17.889  22.143  1.00  0.00     0.192 HD
HETATM   25  O4  UNL     1     -12.004  15.572  23.297  1.00  0.00    -0.245 OA
ENDBRANCH  17  18
ENDBRANCH  15  17
ENDBRANCH   1  15
TORSDOF 5
ENDMDL
MODEL 3
REMARK VINA RESULT: -7.339286350      1.102      1.523
REMARK  5 active torsions:
REMARK  status: ('A' for Active; 'I' for Inactive)
REMARK    1  A    between atoms: C1_2  and  C2_4 
REMARK    2  A    between atoms: C5_7  and  S1_8 
REMARK    3  A    between atoms: S1_8  and  N2_11 
REMARK    4  A    between atoms: N2_11  and  C6_13 
REMARK    5  A    between atoms: C6_13  and  N3_14 
ROOT
HETATM    1  S1  UNL     1      -9.446  13.508  20.922  1.00  0.00     0.275 S 
HETATM    2  O2  UNL     1      -9.310  12.007  20.843  1.00  0.00    -0.199 OA
HETATM    3  O3  UNL     1      -9.602  13.861  22.374  1.00  0.00    -0.199 OA
ENDROOT
BRANCH   1   4
HETATM    4  C5  UNL     1      -8.019  14.267  20.315  1.00  0.00     0.151 A 
HETATM    5  C4  UNL     1      -7.465  15.407  20.819  1.00  0.00     0.045 A 
HETATM    6  C3  UNL     1      -6.304  15.946  20.255  1.00  0.00     0.025 A 
HETATM    7  C2  UNL     1      -5.689  15.345  19.182  1.00  0.00     0.097 A 
HETATM    8  C9  UNL     1      -6.294  14.183  18.704  1.00  0.00     0.261 A 
HETATM    9  N6  UNL     1      -7.397  13.688  19.253  1.00  0.00    -0.312 N 
HETATM   10  O5  UNL     1      -5.752  13.603  17.714  1.00  0.00    -0.267 OA
ATOM     11  H6  UNL     1      -7.795  12.835  18.861  1.00  0.00     0.170 HD
BRANCH   7  12
HETATM   12  C1  UNL     1      -4.495  15.844  18.555  1.00  0.00     0.270 C 
HETATM   13  N1  UNL     1      -4.126  15.448  17.246  1.00  0.00    -0.057 NA
HETATM   14  O1  UNL     1      -3.753  16.647  19.162  1.00  0.00    -0.271 OA
ENDBRANCH   7  12
ENDBRANCH   1   4
BRANCH   1  15
HETATM   15  N2  UNL     1     -10.866  13.996  20.084  1.00  0.00    -0.297 N 
ATOM     16  H2  UNL     1     -11.031  13.831  19.092  1.00  0.00     0.174 HD
BRANCH  15  17
HETATM   17  C6  UNL     1     -11.800  14.674  20.965  1.00  0.00     0.269 C 
BRANCH  17  18
HETATM   18  N3  UNL     1     -11.464  16.046  21.175  1.00  0.00    -0.276 N 
HETATM   19  C7  UNL     1     -11.707  16.782  22.297  1.00  0.00     0.206 A 
HETATM   20  N4  UNL     1     -11.233  18.023  22.081  1.00  0.00    -0.292 N 
HETATM   21  N5  UNL     1     -10.705  18.093  20.871  1.00  0.00    -0.250 N 
ATOM     22  H4  UNL     1     -11.275  18.792  22.749  1.00  0.00     0.187 HD
HETATM   23  C8  UNL     1     -10.846  16.879  20.313  1.00  0.00     0.343 A 
ATOM     24  H5  UNL     1     -10.273  18.912  20.443  1.00  0.00     0.192 HD
HETATM   25  O4  UNL     1     -10.464  16.539  19.147  1.00  0.00    -0.245 OA
ENDBRANCH  17  18
ENDBRANCH  15  17
ENDBRANCH   1  15
TORSDOF 5
ENDMDL
MODEL 4
REMARK VINA RESULT: -7.206741884      1.306      1.436
REMARK  5 active torsions:
REMARK  status: ('A' for Active; 'I' for Inactive)
REMARK    1  A    between atoms: C1_2  and  C2_4 
REMARK    2  A    between atoms: C5_7  and  S1_8 
REMARK    3  A    between atoms: S1_8  and  N2_11 
REMARK    4  A    between atoms: N2_11  and  C6_13 
REMARK    5  A    between atoms: C6_13  and  N3_14 
ROOT
HETATM    1  S1  UNL     1      -9.702  13.437  20.607  1.00  0.00     0.275 S 
HETATM    2  O2  UNL     1     -10.861  14.068  19.875  1.00  0.00    -0.199 OA
HETATM    3  O3  UNL     1      -9.853  11.948  20.471  1.00  0.00    -0.199 OA
ENDROOT
BRANCH   1   4
HETATM    4  C5  UNL     1      -8.210  13.913  19.880  1.00  0.00     0.151 A 
HETATM    5  C4  UNL     1      -7.224  13.057  19.486  1.00  0.00     0.045 A 
HETATM    6  C3  UNL     1      -6.048  13.542  18.905  1.00  0.00     0.025 A 
HETATM    7  C2  UNL     1      -5.852  14.890  18.715  1.00  0.00     0.097 A 
HETATM    8  C9  UNL     1      -6.889  15.723  19.134  1.00  0.00     0.261 A 
HETATM    9  N6  UNL     1      -7.997  15.242  19.684  1.00  0.00    -0.312 N 
HETATM   10  O5  UNL     1      -6.740  16.973  18.973  1.00  0.00    -0.267 OA
ATOM     11  H6  UNL     1      -8.722  15.899  19.972  1.00  0.00     0.170 HD
BRANCH   7  12
HETATM   12  C1  UNL     1      -4.669  15.456  18.125  1.00  0.00     0.270 C 
HETATM   13  N1  UNL     1      -3.957  16.506  18.756  1.00  0.00    -0.057 NA
HETATM   14  O1  UNL     1      -4.242  15.026  17.031  1.00  0.00    -0.271 OA
ENDBRANCH   7  12
ENDBRANCH   1   4
BRANCH   1  15
HETATM   15  N2  UNL     1      -9.790  13.848  22.274  1.00  0.00    -0.297 N 
ATOM     16  H2  UNL     1     -10.146  13.226  22.999  1.00  0.00     0.174 HD
BRANCH  15  17
HETATM   17  C6  UNL     1      -9.295  15.190  22.521  1.00  0.00     0.269 C 
BRANCH  17  18
HETATM   18  N3  UNL     1     -10.273  16.196  22.254  1.00  0.00    -0.276 N 
HETATM   19  C7  UNL     1     -11.587  16.172  22.617  1.00  0.00     0.206 A 
HETATM   20  N4  UNL     1     -12.154  17.308  22.172  1.00  0.00    -0.292 N 
HETATM   21  N5  UNL     1     -11.250  18.041  21.544  1.00  0.00    -0.250 N 
ATOM     22  H4  UNL     1     -13.133  17.565  22.298  1.00  0.00     0.187 HD
HETATM   23  C8  UNL     1     -10.093  17.358  21.594  1.00  0.00     0.343 A 
ATOM     24  H5  UNL     1     -11.401  18.950  21.106  1.00  0.00     0.192 HD
HETATM   25  O4  UNL     1      -8.979  17.730  21.099  1.00  0.00    -0.245 OA
ENDBRANCH  17  18
ENDBRANCH  15  17
ENDBRANCH   1  15
TORSDOF 5
ENDMDL
MODEL 5
REMARK VINA RESULT: -6.935749379      1.737      2.030
REMARK  5 active torsions:
REMARK  status: ('A' for Active; 'I' for Inactive)
REMARK    1  A    between atoms: C1_2  and  C2_4 
REMARK    2  A    between atoms: C5_7  and  S1_8 
REMARK    3  A    between atoms: S1_8  and  N2_11 
REMARK    4  A    between atoms: N2_11  and  C6_13 
REMARK    5  A    between atoms: C6_13  and  N3_14 
ROOT
HETATM    1  S1  UNL     1     -10.398  14.485  20.570  1.00  0.00     0.275 S 
HETATM    2  O2  UNL     1     -11.220  13.625  19.642  1.00  0.00    -0.199 OA
HETATM    3  O3  UNL     1     -10.359  13.787  21.899  1.00  0.00    -0.199 OA
ENDROOT
BRANCH   1   4
HETATM    4  C5  UNL     1      -8.785  14.632  19.971  1.00  0.00     0.151 A 
HETATM    5  C4  UNL     1      -7.852  13.637  19.988  1.00  0.00     0.045 A 
HETATM    6  C3  UNL     1      -6.568  13.855  19.477  1.00  0.00     0.025 A 
HETATM    7  C2  UNL     1      -6.210  15.072  18.946  1.00  0.00     0.097 A 
HETATM    8  C9  UNL     1      -7.199  16.055  18.953  1.00  0.00     0.261 A 
HETATM    9  N6  UNL     1      -8.412  15.828  19.442  1.00  0.00    -0.312 N 
HETATM   10  O5  UNL     1      -6.902  17.190  18.469  1.00  0.00    -0.267 OA
ATOM     11  H6  UNL     1      -9.095  16.585  19.421  1.00  0.00     0.170 HD
BRANCH   7  12
HETATM   12  C1  UNL     1      -4.910  15.363  18.406  1.00  0.00     0.270 C 
HETATM   13  N1  UNL     1      -4.297  14.513  17.453  1.00  0.00    -0.057 NA
HETATM   14  O1  UNL     1      -4.290  16.386  18.772  1.00  0.00    -0.271 OA
ENDBRANCH   7  12
ENDBRANCH   1   4
BRANCH   1  15
HETATM   15  N2  UNL     1     -11.173  16.007  20.772  1.00  0.00    -0.297 N 
ATOM     16  H2  UNL     1     -11.891  16.371  20.147  1.00  0.00     0.174 HD
BRANCH  15  17
HETATM   17  C6  UNL     1     -10.676  16.708  21.942  1.00  0.00     0.269 C 
BRANCH  17  18
HETATM   18  N3  UNL     1      -9.681  17.681  21.621  1.00  0.00    -0.276 N 
HETATM   19  C7  UNL     1      -9.896  18.936  21.134  1.00  0.00     0.206 A 
HETATM   20  N4  UNL     1      -8.695  19.521  20.970  1.00  0.00    -0.292 N 
HETATM   21  N5  UNL     1      -7.739  18.684  21.333  1.00  0.00    -0.250 N 
ATOM     22  H4  UNL     1      -8.546  20.467  20.619  1.00  0.00     0.187 HD
HETATM   23  C8  UNL     1      -8.344  17.552  21.734  1.00  0.00     0.343 A 
ATOM     24  H5  UNL     1      -6.735  18.862  21.314  1.00  0.00     0.192 HD
HETATM   25  O4  UNL     1      -7.764  16.501  22.159  1.00  0.00    -0.245 OA
ENDBRANCH  17  18
ENDBRANCH  15  17
ENDBRANCH   1  15
TORSDOF 5
ENDMDL
