MODEL 1
REMARK VINA RESULT: -8.119090209      0.000      0.000
REMARK  7 active torsions:
REMARK  status: ('A' for Active; 'I' for Inactive)
REMARK    1  A    between atoms: O1_2  and  C2_3 
REMARK    2  A    between atoms: N1_9  and  C8_10 
REMARK    3  A    between atoms: C8_10  and  C9_11 
REMARK    4  A    between atoms: C9_11  and  O2_12 
REMARK    5  A    between atoms: O2_12  and  C10_13 
REMARK    6  A    between atoms: C11_20  and  N5_21 
REMARK    7  A    between atoms: N6_24  and  O3_25 
ROOT
HETATM    1  C2  UNL     1      -9.840  16.845  21.100  1.00  0.00     0.098 A 
HETATM    2  C3  UNL     1     -10.792  17.255  22.017  1.00  0.00     0.039 A 
HETATM    3  C4  UNL     1     -11.586  16.357  22.669  1.00  0.00     0.005 A 
HETATM    4  C5  UNL     1     -11.459  15.011  22.426  1.00  0.00     0.035 A 
HETATM    5  C6  UNL     1     -10.518  14.605  21.520  1.00  0.00     0.112 A 
HETATM    6  C7  UNL     1      -9.686  15.506  20.834  1.00  0.00     0.114 A 
HETATM    7  N1  UNL     1      -8.783  15.028  19.954  1.00  0.00    -0.271 N 
HETATM    8  N4  UNL     1      -8.699  13.688  19.752  1.00  0.00    -0.128 N 
ATOM      9  H4  UNL     1      -8.019  13.314  19.090  1.00  0.00     0.206 HD
HETATM   10  C11 UNL     1      -9.499  12.866  20.415  1.00  0.00     0.717 A 
HETATM   11  N6  UNL     1     -10.405  13.294  21.293  1.00  0.00    -0.049 N 
ENDROOT
BRANCH   7  12
HETATM   12  C8  UNL     1      -7.880  15.869  19.207  1.00  0.00     0.176 C 
BRANCH  12  13
HETATM   13  C9  UNL     1      -6.493  15.740  19.787  1.00  0.00     0.200 C 
BRANCH  13  14
HETATM   14  O2  UNL     1      -5.492  15.907  18.769  1.00  0.00    -0.323 OA
BRANCH  14  15
HETATM   15  C10 UNL     1      -5.007  14.827  18.101  1.00  0.00     0.225 C 
HETATM   16  N2  UNL     1      -5.722  13.788  17.930  1.00  0.00    -0.368 N 
ATOM     17  H22 UNL     1      -6.675  13.744  18.291  1.00  0.00     0.159 HD
ATOM     18  H21 UNL     1      -5.358  12.977  17.430  1.00  0.00     0.159 HD
HETATM   19  N3  UNL     1      -3.670  14.888  17.596  1.00  0.00    -0.057 NA
ENDBRANCH  14  15
ENDBRANCH  13  14
ENDBRANCH  12  13
ENDBRANCH   7  12
BRANCH   1  20
HETATM   20  O1  UNL     1      -9.071  17.772  20.475  1.00  0.00    -0.354 OA
HETATM   21  C1  UNL     1      -8.239  18.712  21.109  1.00  0.00     0.210 C 
ENDBRANCH   1  20
BRANCH  10  22
HETATM   22  N5  UNL     1      -9.375  11.598  20.183  1.00  0.00    -0.231 N 
ATOM     23  H52 UNL     1      -9.345  11.260  19.221  1.00  0.00     0.174 HD
ATOM     24  H51 UNL     1      -9.313  10.977  20.990  1.00  0.00     0.174 HD
ENDBRANCH  10  22
BRANCH  11  25
HETATM   25  O3  UNL     1     -11.229  12.399  21.972  1.00  0.00    -0.269 OA
ATOM     26  H3  UNL     1     -11.186  11.472  21.771  1.00  0.00     0.245 HD
ENDBRANCH  11  25
TORSDOF 7
ENDMDL
MODEL 2
REMARK VINA RESULT: -7.880730203      1.893      3.608
REMARK  7 active torsions:
REMARK  status: ('A' for Active; 'I' for Inactive)
REMARK    1  A    between atoms: O1_2  and  C2_3 
REMARK    2  A    between atoms: N1_9  and  C8_10 
REMARK    3  A    between atoms: C8_10  and  C9_11 
REMARK    4  A    between atoms: C9_11  and  O2_12 
REMARK    5  A    between atoms: O2_12  and  C10_13 
REMARK    6  A    between atoms: C11_20  and  N5_21 
REMARK    7  A    between atoms: N6_24  and  O3_25 
ROOT
HETATM    1  C2  UNL     1      -9.139  13.798  21.244  1.00  0.00     0.098 A 
HETATM    2  C3  UNL     1     -10.346  13.306  21.710  1.00  0.00     0.039 A 
HETATM    3  C4  UNL     1     -11.355  14.142  22.091  1.00  0.00     0.005 A 
HETATM    4  C5  UNL     1     -11.196  15.504  22.022  1.00  0.00     0.035 A 
HETATM    5  C6  UNL     1     -10.003  15.991  21.562  1.00  0.00     0.112 A 
HETATM    6  C7  UNL     1      -8.945  15.156  21.162  1.00  0.00     0.114 A 
HETATM    7  N1  UNL     1      -7.799  15.712  20.721  1.00  0.00    -0.271 N 
HETATM    8  N4  UNL     1      -7.693  17.065  20.673  1.00  0.00    -0.128 N 
ATOM      9  H4  UNL     1      -6.831  17.497  20.341  1.00  0.00     0.206 HD
HETATM   10  C11 UNL     1      -8.709  17.823  21.058  1.00  0.00     0.717 A 
HETATM   11  N6  UNL     1      -9.859  17.318  21.500  1.00  0.00    -0.049 N 
ENDROOT
BRANCH   7  12
HETATM   12  C8  UNL     1      -6.660  14.943  20.282  1.00  0.00     0.176 C 
BRANCH  12  13
HETATM   13  C9  UNL     1      -5.520  15.882  19.974  1.00  0.00     0.200 C 
BRANCH  13  14
HETATM   14  O2  UNL     1      -5.191  15.849  18.575  1.00  0.00    -0.323 OA
BRANCH  14  15
HETATM   15  C10 UNL     1      -4.885  14.670  17.970  1.00  0.00     0.225 C 
HETATM   16  N2  UNL     1      -5.784  13.798  17.745  1.00  0.00    -0.368 N 
ATOM     17  H22 UNL     1      -6.754  13.965  18.013  1.00  0.00     0.159 HD
ATOM     18  H21 UNL     1      -5.555  12.914  17.292  1.00  0.00     0.159 HD
HETATM   19  N3  UNL     1      -3.525  14.436  17.594  1.00  0.00    -0.057 NA
ENDBRANCH  14  15
ENDBRANCH  13  14
ENDBRANCH  12  13
ENDBRANCH   7  12
BRANCH   1  20
HETATM   20  O1  UNL     1      -8.162  12.933  20.875  1.00  0.00    -0.354 OA
HETATM   21  C1  UNL     1      -8.310  11.859  19.977  1.00  0.00     0.210 C 
ENDBRANCH   1  20
BRANCH  10  22
HETATM   22  N5  UNL     1      -8.553  19.107  20.991  1.00  0.00    -0.231 N 
ATOM     23  H52 UNL     1      -8.522  19.567  20.081  1.00  0.00     0.174 HD
ATOM     24  H51 UNL     1      -8.467  19.615  21.871  1.00  0.00     0.174 HD
ENDBRANCH  10  22
BRANCH  11  25
HETATM   25  O3  UNL     1     -10.906  18.146  21.896  1.00  0.00    -0.269 OA
ATOM     26  H3  UNL     1     -11.337  17.997  22.730  1.00  0.00     0.245 HD
ENDBRANCH  11  25
TORSDOF 7
ENDMDL
MODEL 3
REMARK VINA RESULT: -7.771770320      1.237      1.571
REMARK  7 active torsions:
REMARK  status: ('A' for Active; 'I' for Inactive)
REMARK    1  A    between atoms: O1_2  and  C2_3 
REMARK    2  A    between atoms: N1_9  and  C8_10 
REMARK    3  A    between atoms: C8_10  and  C9_11 
REMARK    4  A    between atoms: C9_11  and  O2_12 
REMARK    5  A    between atoms: O2_12  and  C10_13 
REMARK    6  A    between atoms: C11_20  and  N5_21 
REMARK    7  A    between atoms: N6_24  and  O3_25 
ROOT
HETATM    1  C2  UNL     1     -10.136  15.603  21.729  1.00  0.00     0.098 A 
HETATM    2  C3  UNL     1     -11.305  15.249  22.380  1.00  0.00     0.039 A 
HETATM    3  C4  UNL     1     -11.771  13.967  22.358  1.00  0.00     0.005 A 
HETATM    4  C5  UNL     1     -11.085  12.987  21.682  1.00  0.00     0.035 A 
HETATM    5  C6  UNL     1      -9.930  13.337  21.038  1.00  0.00     0.112 A 
HETATM    6  C7  UNL     1      -9.424  14.648  21.043  1.00  0.00     0.114 A 
HETATM    7  N1  UNL     1      -8.278  14.915  20.384  1.00  0.00    -0.271 N 
HETATM    8  N4  UNL     1      -7.640  13.910  19.731  1.00  0.00    -0.128 N 
ATOM      9  H4  UNL     1      -6.772  14.098  19.229  1.00  0.00     0.206 HD
HETATM   10  C11 UNL     1      -8.144  12.685  19.746  1.00  0.00     0.717 A 
HETATM   11  N6  UNL     1      -9.272  12.376  20.384  1.00  0.00    -0.049 N 
ENDROOT
BRANCH   7  12
HETATM   12  C8  UNL     1      -7.676  16.224  20.336  1.00  0.00     0.176 C 
BRANCH  12  13
HETATM   13  C9  UNL     1      -6.205  16.079  20.031  1.00  0.00     0.200 C 
BRANCH  13  14
HETATM   14  O2  UNL     1      -5.987  15.912  18.620  1.00  0.00    -0.323 OA
BRANCH  14  15
HETATM   15  C10 UNL     1      -4.944  15.163  18.171  1.00  0.00     0.225 C 
HETATM   16  N2  UNL     1      -5.127  13.977  17.746  1.00  0.00    -0.368 N 
ATOM     17  H22 UNL     1      -6.059  13.563  17.732  1.00  0.00     0.159 HD
ATOM     18  H21 UNL     1      -4.345  13.415  17.410  1.00  0.00     0.159 HD
HETATM   19  N3  UNL     1      -3.637  15.742  18.191  1.00  0.00    -0.057 NA
ENDBRANCH  14  15
ENDBRANCH  13  14
ENDBRANCH  12  13
ENDBRANCH   7  12
BRANCH   1  20
HETATM   20  O1  UNL     1      -9.708  16.889  21.777  1.00  0.00    -0.354 OA
HETATM   21  C1  UNL     1     -10.291  17.976  21.099  1.00  0.00     0.210 C 
ENDBRANCH   1  20
BRANCH  10  22
HETATM   22  N5  UNL     1      -7.494  11.765  19.107  1.00  0.00    -0.231 N 
ATOM     23  H52 UNL     1      -6.797  12.029  18.410  1.00  0.00     0.174 HD
ATOM     24  H51 UNL     1      -7.711  10.794  19.332  1.00  0.00     0.174 HD
ENDBRANCH  10  22
BRANCH  11  25
HETATM   25  O3  UNL     1      -9.771  11.076  20.378  1.00  0.00    -0.269 OA
ATOM     26  H3  UNL     1      -9.727  10.557  19.583  1.00  0.00     0.245 HD
ENDBRANCH  11  25
TORSDOF 7
ENDMDL
MODEL 4
REMARK VINA RESULT: -7.605273019      2.146      5.063
REMARK  7 active torsions:
REMARK  status: ('A' for Active; 'I' for Inactive)
REMARK    1  A    between atoms: O1_2  and  C2_3 
REMARK    2  A    between atoms: N1_9  and  C8_10 
REMARK    3  A    between atoms: C8_10  and  C9_11 
REMARK    4  A    between atoms: C9_11  and  O2_12 
REMARK    5  A    between atoms: O2_12  and  C10_13 
REMARK    6  A    between atoms: C11_20  and  N5_21 
REMARK    7  A    between atoms: N6_24  and  O3_25 
ROOT
HETATM    1  C2  UNL     1      -8.354  13.767  21.172  1.00  0.00     0.098 A 
HETATM    2  C3  UNL     1      -8.872  12.535  20.814  1.00  0.00     0.039 A 
HETATM    3  C4  UNL     1      -8.385  11.841  19.745  1.00  0.00     0.005 A 
HETATM    4  C5  UNL     1      -7.360  12.356  18.989  1.00  0.00     0.035 A 
HETATM    5  C6  UNL     1      -6.848  13.574  19.342  1.00  0.00     0.112 A 
HETATM    6  C7  UNL     1      -7.327  14.311  20.438  1.00  0.00     0.114 A 
HETATM    7  N1  UNL     1      -6.771  15.506  20.722  1.00  0.00    -0.271 N 
HETATM    8  N4  UNL     1      -5.760  15.969  19.942  1.00  0.00    -0.128 N 
ATOM      9  H4  UNL     1      -5.330  16.871  20.146  1.00  0.00     0.206 HD
HETATM   10  C11 UNL     1      -5.332  15.248  18.916  1.00  0.00     0.717 A 
HETATM   11  N6  UNL     1      -5.852  14.064  18.599  1.00  0.00    -0.049 N 
ENDROOT
BRANCH   7  12
HETATM   12  C8  UNL     1      -7.186  16.334  21.827  1.00  0.00     0.176 C 
BRANCH  12  13
HETATM   13  C9  UNL     1      -7.478  17.725  21.319  1.00  0.00     0.200 C 
BRANCH  13  14
HETATM   14  O2  UNL     1      -8.386  17.686  20.206  1.00  0.00    -0.323 OA
BRANCH  14  15
HETATM   15  C10 UNL     1      -9.678  17.304  20.389  1.00  0.00     0.225 C 
HETATM   16  N2  UNL     1     -10.395  17.837  21.296  1.00  0.00    -0.368 N 
ATOM     17  H22 UNL     1     -10.016  18.562  21.904  1.00  0.00     0.159 HD
ATOM     18  H21 UNL     1     -11.365  17.551  21.433  1.00  0.00     0.159 HD
HETATM   19  N3  UNL     1     -10.211  16.288  19.535  1.00  0.00    -0.057 NA
ENDBRANCH  14  15
ENDBRANCH  13  14
ENDBRANCH  12  13
ENDBRANCH   7  12
BRANCH   1  20
HETATM   20  O1  UNL     1      -8.866  14.423  22.243  1.00  0.00    -0.354 OA
HETATM   21  C1  UNL     1     -10.221  14.445  22.623  1.00  0.00     0.210 C 
ENDBRANCH   1  20
BRANCH  10  22
HETATM   22  N5  UNL     1      -4.366  15.738  18.206  1.00  0.00    -0.231 N 
ATOM     23  H52 UNL     1      -4.141  16.731  18.272  1.00  0.00     0.174 HD
ATOM     24  H51 UNL     1      -3.858  15.096  17.597  1.00  0.00     0.174 HD
ENDBRANCH  10  22
BRANCH  11  25
HETATM   25  O3  UNL     1      -5.375  13.334  17.512  1.00  0.00    -0.269 OA
ATOM     26  H3  UNL     1      -4.687  13.696  16.966  1.00  0.00     0.245 HD
ENDBRANCH  11  25
TORSDOF 7
ENDMDL
MODEL 5
REMARK VINA RESULT: -7.247773095      2.113      4.656
REMARK  7 active torsions:
REMARK  status: ('A' for Active; 'I' for Inactive)
REMARK    1  A    between atoms: O1_2  and  C2_3 
REMARK    2  A    between atoms: N1_9  and  C8_10 
REMARK    3  A    between atoms: C8_10  and  C9_11 
REMARK    4  A    between atoms: C9_11  and  O2_12 
REMARK    5  A    between atoms: O2_12  and  C10_13 
REMARK    6  A    between atoms: C11_20  and  N5_21 
REMARK    7  A    between atoms: N6_24  and  O3_25 
ROOT
HETATM    1  C2  UNL     1      -6.527  15.661  20.584  1.00  0.00     0.098 A 
HETATM    2  C3  UNL     1      -5.554  15.888  19.626  1.00  0.00     0.039 A 
HETATM    3  C4  UNL     1      -5.315  14.989  18.627  1.00  0.00     0.005 A 
HETATM    4  C5  UNL     1      -6.041  13.827  18.548  1.00  0.00     0.035 A 
HETATM    5  C6  UNL     1      -7.004  13.601  19.493  1.00  0.00     0.112 A 
HETATM    6  C7  UNL     1      -7.273  14.507  20.533  1.00  0.00     0.114 A 
HETATM    7  N1  UNL     1      -8.237  14.214  21.429  1.00  0.00    -0.271 N 
HETATM    8  N4  UNL     1      -8.926  13.050  21.304  1.00  0.00    -0.128 N 
ATOM      9  H4  UNL     1      -9.658  12.816  21.975  1.00  0.00     0.206 HD
HETATM   10  C11 UNL     1      -8.646  12.218  20.312  1.00  0.00     0.717 A 
HETATM   11  N6  UNL     1      -7.703  12.467  19.406  1.00  0.00    -0.049 N 
ENDROOT
BRANCH   7  12
HETATM   12  C8  UNL     1      -8.593  15.080  22.526  1.00  0.00     0.176 C 
BRANCH  12  13
HETATM   13  C9  UNL     1     -10.097  15.142  22.637  1.00  0.00     0.200 C 
BRANCH  13  14
HETATM   14  O2  UNL     1     -10.693  15.465  21.370  1.00  0.00    -0.323 OA
BRANCH  14  15
HETATM   15  C10 UNL     1     -10.369  16.623  20.735  1.00  0.00     0.225 C 
HETATM   16  N2  UNL     1     -10.507  17.747  21.316  1.00  0.00    -0.368 N 
ATOM     17  H22 UNL     1     -10.864  17.804  22.269  1.00  0.00     0.159 HD
ATOM     18  H21 UNL     1     -10.264  18.616  20.839  1.00  0.00     0.159 HD
HETATM   19  N3  UNL     1      -9.869  16.544  19.397  1.00  0.00    -0.057 NA
ENDBRANCH  14  15
ENDBRANCH  13  14
ENDBRANCH  12  13
ENDBRANCH   7  12
BRANCH   1  20
HETATM   20  O1  UNL     1      -6.733  16.580  21.560  1.00  0.00    -0.354 OA
HETATM   21  C1  UNL     1      -6.966  17.953  21.360  1.00  0.00     0.210 C 
ENDBRANCH   1  20
BRANCH  10  22
HETATM   22  N5  UNL     1      -9.334  11.122  20.242  1.00  0.00    -0.231 N 
ATOM     23  H52 UNL     1      -9.566  10.728  19.330  1.00  0.00     0.174 HD
ATOM     24  H51 UNL     1      -9.620  10.691  21.120  1.00  0.00     0.174 HD
ENDBRANCH  10  22
BRANCH  11  25
HETATM   25  O3  UNL     1      -7.437  11.568  18.375  1.00  0.00    -0.269 OA
ATOM     26  H3  UNL     1      -7.275  11.891  17.497  1.00  0.00     0.245 HD
ENDBRANCH  11  25
TORSDOF 7
ENDMDL
