MODEL 1
REMARK VINA RESULT: -6.533484186      0.000      0.000
REMARK  9 active torsions:
REMARK  status: ('A' for Active; 'I' for Inactive)
REMARK    1  A    between atoms: N1_1  and  C1_5 
REMARK    2  A    between atoms: C1_5  and  C2_6 
REMARK    3  A    between atoms: C2_6  and  C3_7 
REMARK    4  A    between atoms: C3_7  and  N2_8 
REMARK    5  A    between atoms: N2_8  and  C4_10 
REMARK    6  A    between atoms: C5_13  and  S1_14 
REMARK    7  A    between atoms: S1_14  and  C6_15 
REMARK    8  A    between atoms: C6_15  and  C7_16 
REMARK    9  A    between atoms: C7_16  and  N4_17 
ROOT
HETATM    1  C4  UNL     1     -18.965   1.010 -11.018  1.00  0.00     0.694 A 
HETATM    2  N3  UNL     1     -20.201   1.515 -10.885  1.00  0.00    -0.168 N 
ATOM      3  H3  UNL     1     -20.484   2.470 -11.105  1.00  0.00     0.186 HD
HETATM    4  C5  UNL     1     -21.007   0.541 -10.409  1.00  0.00     0.174 A 
HETATM    5  N5  UNL     1     -20.233  -0.530 -10.267  1.00  0.00    -0.265 N 
ATOM      6  H5  UNL     1     -20.554  -1.434  -9.922  1.00  0.00     0.189 HD
HETATM    7  N6  UNL     1     -18.971  -0.260 -10.638  1.00  0.00    -0.130 N 
ATOM      8  H6  UNL     1     -18.178  -0.902 -10.629  1.00  0.00     0.205 HD
ENDROOT
BRANCH   1   9
HETATM    9  N2  UNL     1     -17.960   1.679 -11.451  1.00  0.00    -0.225 N 
ATOM     10  H2  UNL     1     -17.045   1.466 -11.054  1.00  0.00     0.177 HD
BRANCH   9  11
HETATM   11  C3  UNL     1     -18.029   2.697 -12.447  1.00  0.00     0.140 C 
BRANCH  11  12
HETATM   12  C2  UNL     1     -17.601   4.025 -11.871  1.00  0.00     0.047 C 
BRANCH  12  13
HETATM   13  C1  UNL     1     -17.668   5.063 -12.961  1.00  0.00     0.231 C 
BRANCH  13  14
HETATM   14  N1  UNL     1     -17.737   4.476 -14.271  1.00  0.00    -0.079 N 
ATOM     15  H13 UNL     1     -17.153   3.643 -14.332  1.00  0.00     0.274 HD
ATOM     16  H12 UNL     1     -18.648   4.047 -14.435  1.00  0.00     0.274 HD
ATOM     17  H11 UNL     1     -17.506   5.144 -15.008  1.00  0.00     0.274 HD
ENDBRANCH  13  14
ENDBRANCH  12  13
ENDBRANCH  11  12
ENDBRANCH   9  11
ENDBRANCH   1   9
BRANCH   4  18
HETATM   18  S1  UNL     1     -22.730   0.692 -10.076  1.00  0.00    -0.087 SA
BRANCH  18  19
HETATM   19  C6  UNL     1     -23.108   1.817  -8.737  1.00  0.00     0.127 C 
BRANCH  19  20
HETATM   20  C7  UNL     1     -24.541   1.684  -8.309  1.00  0.00     0.073 C 
BRANCH  20  21
HETATM   21  N4  UNL     1     -24.682   1.409  -6.967  1.00  0.00    -0.373 N 
HETATM   22  C8  UNL     1     -23.896   1.882  -5.932  1.00  0.00     0.063 C 
HETATM   23  C9  UNL     1     -24.232   1.054  -4.690  1.00  0.00     0.046 C 
HETATM   24  C10 UNL     1     -25.422   0.244  -5.060  1.00  0.00     0.025 C 
HETATM   25  C11 UNL     1     -25.784   0.672  -6.472  1.00  0.00     0.127 C 
ENDBRANCH  20  21
ENDBRANCH  19  20
ENDBRANCH  18  19
ENDBRANCH   4  18
TORSDOF 9
ENDMDL
MODEL 2
REMARK VINA RESULT: -6.497086834      2.060      3.387
REMARK  9 active torsions:
REMARK  status: ('A' for Active; 'I' for Inactive)
REMARK    1  A    between atoms: N1_1  and  C1_5 
REMARK    2  A    between atoms: C1_5  and  C2_6 
REMARK    3  A    between atoms: C2_6  and  C3_7 
REMARK    4  A    between atoms: C3_7  and  N2_8 
REMARK    5  A    between atoms: N2_8  and  C4_10 
REMARK    6  A    between atoms: C5_13  and  S1_14 
REMARK    7  A    between atoms: S1_14  and  C6_15 
REMARK    8  A    between atoms: C6_15  and  C7_16 
REMARK    9  A    between atoms: C7_16  and  N4_17 
ROOT
HETATM    1  C4  UNL     1     -20.066   3.188  -9.064  1.00  0.00     0.694 A 
HETATM    2  N3  UNL     1     -21.185   2.488  -9.305  1.00  0.00    -0.168 N 
ATOM      3  H3  UNL     1     -21.337   1.854 -10.090  1.00  0.00     0.186 HD
HETATM    4  C5  UNL     1     -22.077   2.767  -8.330  1.00  0.00     0.174 A 
HETATM    5  N5  UNL     1     -21.471   3.632  -7.524  1.00  0.00    -0.265 N 
ATOM      6  H5  UNL     1     -21.891   4.035  -6.687  1.00  0.00     0.189 HD
HETATM    7  N6  UNL     1     -20.229   3.902  -7.960  1.00  0.00    -0.130 N 
ATOM      8  H6  UNL     1     -19.551   4.531  -7.529  1.00  0.00     0.205 HD
ENDROOT
BRANCH   1   9
HETATM    9  N2  UNL     1     -19.020   3.146  -9.805  1.00  0.00    -0.225 N 
ATOM     10  H2  UNL     1     -18.113   3.233  -9.348  1.00  0.00     0.177 HD
BRANCH   9  11
HETATM   11  C3  UNL     1     -19.034   2.985 -11.222  1.00  0.00     0.140 C 
BRANCH  11  12
HETATM   12  C2  UNL     1     -18.305   1.723 -11.615  1.00  0.00     0.047 C 
BRANCH  12  13
HETATM   13  C1  UNL     1     -19.296   0.589 -11.655  1.00  0.00     0.231 C 
BRANCH  13  14
HETATM   14  N1  UNL     1     -19.111  -0.335 -10.570  1.00  0.00    -0.079 N 
ATOM     15  H13 UNL     1     -18.818   0.147  -9.721  1.00  0.00     0.274 HD
ATOM     16  H12 UNL     1     -20.004  -0.706 -10.245  1.00  0.00     0.274 HD
ATOM     17  H11 UNL     1     -18.465  -1.088 -10.808  1.00  0.00     0.274 HD
ENDBRANCH  13  14
ENDBRANCH  12  13
ENDBRANCH  11  12
ENDBRANCH   9  11
ENDBRANCH   1   9
BRANCH   4  18
HETATM   18  S1  UNL     1     -23.696   2.089  -8.181  1.00  0.00    -0.087 SA
BRANCH  18  19
HETATM   19  C6  UNL     1     -24.617   2.726  -6.786  1.00  0.00     0.127 C 
BRANCH  19  20
HETATM   20  C7  UNL     1     -24.374   1.898  -5.557  1.00  0.00     0.073 C 
BRANCH  20  21
HETATM   21  N4  UNL     1     -25.334   0.931  -5.359  1.00  0.00    -0.373 N 
HETATM   22  C8  UNL     1     -26.597   0.880  -5.920  1.00  0.00     0.063 C 
HETATM   23  C9  UNL     1     -27.393  -0.180  -5.157  1.00  0.00     0.046 C 
HETATM   24  C10 UNL     1     -26.407  -0.869  -4.284  1.00  0.00     0.025 C 
HETATM   25  C11 UNL     1     -25.063  -0.242  -4.614  1.00  0.00     0.127 C 
ENDBRANCH  20  21
ENDBRANCH  19  20
ENDBRANCH  18  19
ENDBRANCH   4  18
TORSDOF 9
ENDMDL
MODEL 3
REMARK VINA RESULT: -6.494545530      2.721      4.382
REMARK  9 active torsions:
REMARK  status: ('A' for Active; 'I' for Inactive)
REMARK    1  A    between atoms: N1_1  and  C1_5 
REMARK    2  A    between atoms: C1_5  and  C2_6 
REMARK    3  A    between atoms: C2_6  and  C3_7 
REMARK    4  A    between atoms: C3_7  and  N2_8 
REMARK    5  A    between atoms: N2_8  and  C4_10 
REMARK    6  A    between atoms: C5_13  and  S1_14 
REMARK    7  A    between atoms: S1_14  and  C6_15 
REMARK    8  A    between atoms: C6_15  and  C7_16 
REMARK    9  A    between atoms: C7_16  and  N4_17 
ROOT
HETATM    1  C4  UNL     1     -23.568   0.286  -9.315  1.00  0.00     0.694 A 
HETATM    2  N3  UNL     1     -24.635  -0.355  -8.814  1.00  0.00    -0.168 N 
ATOM      3  H3  UNL     1     -24.646  -1.312  -8.460  1.00  0.00     0.186 HD
HETATM    4  C5  UNL     1     -25.693   0.484  -8.860  1.00  0.00     0.174 A 
HETATM    5  N5  UNL     1     -25.235   1.613  -9.389  1.00  0.00    -0.265 N 
ATOM      6  H5  UNL     1     -25.800   2.446  -9.556  1.00  0.00     0.189 HD
HETATM    7  N6  UNL     1     -23.927   1.510  -9.676  1.00  0.00    -0.130 N 
ATOM      8  H6  UNL     1     -23.330   2.229 -10.087  1.00  0.00     0.205 HD
ENDROOT
BRANCH   1   9
HETATM    9  N2  UNL     1     -22.400  -0.233  -9.412  1.00  0.00    -0.225 N 
ATOM     10  H2  UNL     1     -22.051  -0.763  -8.613  1.00  0.00     0.177 HD
BRANCH   9  11
HETATM   11  C3  UNL     1     -21.554  -0.124 -10.554  1.00  0.00     0.140 C 
BRANCH  11  12
HETATM   12  C2  UNL     1     -20.762   1.160 -10.501  1.00  0.00     0.047 C 
BRANCH  12  13
HETATM   13  C1  UNL     1     -19.392   0.902 -11.073  1.00  0.00     0.231 C 
BRANCH  13  14
HETATM   14  N1  UNL     1     -18.883  -0.392 -10.706  1.00  0.00    -0.079 N 
ATOM     15  H13 UNL     1     -19.067  -1.080 -11.436  1.00  0.00     0.274 HD
ATOM     16  H12 UNL     1     -17.863  -0.405 -10.725  1.00  0.00     0.274 HD
ATOM     17  H11 UNL     1     -19.239  -0.707  -9.804  1.00  0.00     0.274 HD
ENDBRANCH  13  14
ENDBRANCH  12  13
ENDBRANCH  11  12
ENDBRANCH   9  11
ENDBRANCH   1   9
BRANCH   4  18
HETATM   18  S1  UNL     1     -27.326   0.124  -8.305  1.00  0.00    -0.087 SA
BRANCH  18  19
HETATM   19  C6  UNL     1     -27.466  -0.019  -6.527  1.00  0.00     0.127 C 
BRANCH  19  20
HETATM   20  C7  UNL     1     -26.951   1.216  -5.845  1.00  0.00     0.073 C 
BRANCH  20  21
HETATM   21  N4  UNL     1     -25.582   1.221  -5.697  1.00  0.00    -0.373 N 
HETATM   22  C8  UNL     1     -24.724   2.286  -5.903  1.00  0.00     0.063 C 
HETATM   23  C9  UNL     1     -23.301   1.725  -5.933  1.00  0.00     0.046 C 
HETATM   24  C10 UNL     1     -23.421   0.307  -5.502  1.00  0.00     0.025 C 
HETATM   25  C11 UNL     1     -24.889   0.106  -5.168  1.00  0.00     0.127 C 
ENDBRANCH  20  21
ENDBRANCH  19  20
ENDBRANCH  18  19
ENDBRANCH   4  18
TORSDOF 9
ENDMDL
MODEL 4
REMARK VINA RESULT: -6.493280650      1.011      1.126
REMARK  9 active torsions:
REMARK  status: ('A' for Active; 'I' for Inactive)
REMARK    1  A    between atoms: N1_1  and  C1_5 
REMARK    2  A    between atoms: C1_5  and  C2_6 
REMARK    3  A    between atoms: C2_6  and  C3_7 
REMARK    4  A    between atoms: C3_7  and  N2_8 
REMARK    5  A    between atoms: N2_8  and  C4_10 
REMARK    6  A    between atoms: C5_13  and  S1_14 
REMARK    7  A    between atoms: S1_14  and  C6_15 
REMARK    8  A    between atoms: C6_15  and  C7_16 
REMARK    9  A    between atoms: C7_16  and  N4_17 
ROOT
HETATM    1  C4  UNL     1     -19.008   0.993 -10.982  1.00  0.00     0.694 A 
HETATM    2  N3  UNL     1     -20.248   1.484 -10.836  1.00  0.00    -0.168 N 
ATOM      3  H3  UNL     1     -20.541   2.440 -11.041  1.00  0.00     0.186 HD
HETATM    4  C5  UNL     1     -21.043   0.496 -10.371  1.00  0.00     0.174 A 
HETATM    5  N5  UNL     1     -20.258  -0.569 -10.247  1.00  0.00    -0.265 N 
ATOM      6  H5  UNL     1     -20.569  -1.482  -9.915  1.00  0.00     0.189 HD
HETATM    7  N6  UNL     1     -19.000  -0.282 -10.620  1.00  0.00    -0.130 N 
ATOM      8  H6  UNL     1     -18.201  -0.916 -10.624  1.00  0.00     0.205 HD
ENDROOT
BRANCH   1   9
HETATM    9  N2  UNL     1     -18.012   1.678 -11.410  1.00  0.00    -0.225 N 
ATOM     10  H2  UNL     1     -17.100   1.498 -10.989  1.00  0.00     0.177 HD
BRANCH   9  11
HETATM   11  C3  UNL     1     -18.086   2.671 -12.430  1.00  0.00     0.140 C 
BRANCH  11  12
HETATM   12  C2  UNL     1     -17.617   4.005 -11.900  1.00  0.00     0.047 C 
BRANCH  12  13
HETATM   13  C1  UNL     1     -18.825   4.819 -11.513  1.00  0.00     0.231 C 
BRANCH  13  14
HETATM   14  N1  UNL     1     -19.043   4.831 -10.093  1.00  0.00    -0.079 N 
ATOM     15  H13 UNL     1     -18.201   4.555  -9.589  1.00  0.00     0.274 HD
ATOM     16  H12 UNL     1     -19.136   5.785  -9.743  1.00  0.00     0.274 HD
ATOM     17  H11 UNL     1     -19.841   4.258  -9.818  1.00  0.00     0.274 HD
ENDBRANCH  13  14
ENDBRANCH  12  13
ENDBRANCH  11  12
ENDBRANCH   9  11
ENDBRANCH   1   9
BRANCH   4  18
HETATM   18  S1  UNL     1     -22.766   0.625 -10.028  1.00  0.00    -0.087 SA
BRANCH  18  19
HETATM   19  C6  UNL     1     -23.157   1.809  -8.746  1.00  0.00     0.127 C 
BRANCH  19  20
HETATM   20  C7  UNL     1     -24.581   1.661  -8.291  1.00  0.00     0.073 C 
BRANCH  20  21
HETATM   21  N4  UNL     1     -24.693   1.389  -6.946  1.00  0.00    -0.373 N 
HETATM   22  C8  UNL     1     -23.885   1.862  -5.928  1.00  0.00     0.063 C 
HETATM   23  C9  UNL     1     -24.196   1.037  -4.678  1.00  0.00     0.046 C 
HETATM   24  C10 UNL     1     -25.395   0.227  -5.022  1.00  0.00     0.025 C 
HETATM   25  C11 UNL     1     -25.786   0.654  -6.426  1.00  0.00     0.127 C 
ENDBRANCH  20  21
ENDBRANCH  19  20
ENDBRANCH  18  19
ENDBRANCH   4  18
TORSDOF 9
ENDMDL
MODEL 5
REMARK VINA RESULT: -6.461157117      0.990      1.581
REMARK  9 active torsions:
REMARK  status: ('A' for Active; 'I' for Inactive)
REMARK    1  A    between atoms: N1_1  and  C1_5 
REMARK    2  A    between atoms: C1_5  and  C2_6 
REMARK    3  A    between atoms: C2_6  and  C3_7 
REMARK    4  A    between atoms: C3_7  and  N2_8 
REMARK    5  A    between atoms: N2_8  and  C4_10 
REMARK    6  A    between atoms: C5_13  and  S1_14 
REMARK    7  A    between atoms: S1_14  and  C6_15 
REMARK    8  A    between atoms: C6_15  and  C7_16 
REMARK    9  A    between atoms: C7_16  and  N4_17 
ROOT
HETATM    1  C4  UNL     1     -19.209   0.927 -10.849  1.00  0.00     0.694 A 
HETATM    2  N3  UNL     1     -20.471   1.382 -10.885  1.00  0.00    -0.168 N 
ATOM      3  H3  UNL     1     -20.764   2.310 -11.191  1.00  0.00     0.186 HD
HETATM    4  C5  UNL     1     -21.287   0.400 -10.445  1.00  0.00     0.174 A 
HETATM    5  N5  UNL     1     -20.494  -0.625 -10.154  1.00  0.00    -0.265 N 
ATOM      6  H5  UNL     1     -20.816  -1.524  -9.795  1.00  0.00     0.189 HD
HETATM    7  N6  UNL     1     -19.208  -0.319 -10.397  1.00  0.00    -0.130 N 
ATOM      8  H6  UNL     1     -18.397  -0.923 -10.262  1.00  0.00     0.205 HD
ENDROOT
BRANCH   1   9
HETATM    9  N2  UNL     1     -18.188   1.617 -11.205  1.00  0.00    -0.225 N 
ATOM     10  H2  UNL     1     -17.347   1.547 -10.632  1.00  0.00     0.177 HD
BRANCH   9  11
HETATM   11  C3  UNL     1     -18.143   2.474 -12.344  1.00  0.00     0.140 C 
BRANCH  11  12
HETATM   12  C2  UNL     1     -17.624   3.837 -11.956  1.00  0.00     0.047 C 
BRANCH  12  13
HETATM   13  C1  UNL     1     -18.001   4.819 -13.035  1.00  0.00     0.231 C 
BRANCH  13  14
HETATM   14  N1  UNL     1     -17.712   4.320 -14.352  1.00  0.00    -0.079 N 
ATOM     15  H13 UNL     1     -17.124   4.971 -14.871  1.00  0.00     0.274 HD
ATOM     16  H12 UNL     1     -17.076   3.523 -14.312  1.00  0.00     0.274 HD
ATOM     17  H11 UNL     1     -18.558   4.091 -14.874  1.00  0.00     0.274 HD
ENDBRANCH  13  14
ENDBRANCH  12  13
ENDBRANCH  11  12
ENDBRANCH   9  11
ENDBRANCH   1   9
BRANCH   4  18
HETATM   18  S1  UNL     1     -23.042   0.490 -10.317  1.00  0.00    -0.087 SA
BRANCH  18  19
HETATM   19  C6  UNL     1     -23.619   0.999  -8.702  1.00  0.00     0.127 C 
BRANCH  19  20
HETATM   20  C7  UNL     1     -25.003   1.578  -8.782  1.00  0.00     0.073 C 
BRANCH  20  21
HETATM   21  N4  UNL     1     -25.885   0.992  -7.902  1.00  0.00    -0.373 N 
HETATM   22  C8  UNL     1     -26.964   0.185  -8.215  1.00  0.00     0.063 C 
HETATM   23  C9  UNL     1     -27.817   0.054  -6.951  1.00  0.00     0.046 C 
HETATM   24  C10 UNL     1     -27.010   0.661  -5.860  1.00  0.00     0.025 C 
HETATM   25  C11 UNL     1     -25.692   1.060  -6.502  1.00  0.00     0.127 C 
ENDBRANCH  20  21
ENDBRANCH  19  20
ENDBRANCH  18  19
ENDBRANCH   4  18
TORSDOF 9
ENDMDL
