MODEL 1
REMARK VINA RESULT: -6.622715546      0.000      0.000
REMARK  4 active torsions:
REMARK  status: ('A' for Active; 'I' for Inactive)
REMARK    1  A    between atoms: C2_2  and  C3_4 
REMARK    2  A    between atoms: C3_4  and  N2_8 
REMARK    3  A    between atoms: N2_8  and  N3_10 
REMARK       I    between atoms: N3_10  and  C4_12 
REMARK    4  A    between atoms: C4_12  and  C5_14 
ROOT
HETATM    1  N3  UNL     1      34.928  -4.494 -79.094  1.00  0.00    -0.268 N 
ATOM      2  H3  UNL     1      35.835  -4.173 -79.433  1.00  0.00     0.190 HD
HETATM    3  C4  UNL     1      34.121  -3.663 -78.303  1.00  0.00     0.244 C 
HETATM    4  O1  UNL     1      32.988  -4.153 -77.915  1.00  0.00    -0.271 OA
ENDROOT
BRANCH   3   5
HETATM    5  C5  UNL     1      34.435  -2.281 -77.868  1.00  0.00     0.043 C 
HETATM    6  C6  UNL     1      34.803  -2.354 -76.399  1.00  0.00     0.020 C 
HETATM    7  C7  UNL     1      35.850  -1.386 -75.985  1.00  0.00     0.006 C 
HETATM    8  C8  UNL     1      35.497   0.045 -76.325  1.00  0.00    -0.014 C 
HETATM    9  C9  UNL     1      36.273   0.401 -77.551  1.00  0.00     0.009 C 
HETATM   10  C13 UNL     1      34.017   0.263 -76.424  1.00  0.00     0.009 C 
HETATM   11  C10 UNL     1      35.574  -0.194 -78.748  1.00  0.00    -0.013 C 
HETATM   12  C11 UNL     1      34.258   0.516 -78.866  1.00  0.00     0.009 C 
HETATM   13  C15 UNL     1      35.490  -1.683 -78.735  1.00  0.00     0.024 C 
HETATM   14  C12 UNL     1      33.390  -0.017 -77.733  1.00  0.00    -0.013 C 
HETATM   15  C14 UNL     1      33.150  -1.472 -78.042  1.00  0.00     0.024 C 
ENDBRANCH   3   5
BRANCH   1  16
HETATM   16  N2  UNL     1      34.460  -5.767 -79.404  1.00  0.00    -0.285 N 
ATOM     17  H2  UNL     1      33.690  -5.824 -80.070  1.00  0.00     0.188 HD
BRANCH  16  18
HETATM   18  C3  UNL     1      34.947  -6.988 -78.886  1.00  0.00     0.107 C 
HETATM   19  N1  UNL     1      34.173  -7.734 -78.189  1.00  0.00    -0.387 N 
ATOM     20  H12 UNL     1      34.524  -8.616 -77.815  1.00  0.00     0.157 HD
ATOM     21  H11 UNL     1      33.210  -7.424 -78.054  1.00  0.00     0.157 HD
BRANCH  18  22
HETATM   22  C2  UNL     1      36.350  -7.442 -79.082  1.00  0.00     0.146 C 
HETATM   23  C1  UNL     1      36.390  -8.473 -80.189  1.00  0.00     0.034 C 
HETATM   24 CL1  UNL     1      37.445  -6.123 -79.550  1.00  0.00    -0.117 Cl
ENDBRANCH  18  22
ENDBRANCH  16  18
ENDBRANCH   1  16
TORSDOF 4
ENDMDL
MODEL 2
REMARK VINA RESULT: -6.467177073      2.070      2.866
REMARK  4 active torsions:
REMARK  status: ('A' for Active; 'I' for Inactive)
REMARK    1  A    between atoms: C2_2  and  C3_4 
REMARK    2  A    between atoms: C3_4  and  N2_8 
REMARK    3  A    between atoms: N2_8  and  N3_10 
REMARK       I    between atoms: N3_10  and  C4_12 
REMARK    4  A    between atoms: C4_12  and  C5_14 
ROOT
HETATM    1  N3  UNL     1      33.684  -2.753 -78.119  1.00  0.00    -0.268 N 
ATOM      2  H3  UNL     1      32.695  -2.841 -77.889  1.00  0.00     0.190 HD
HETATM    3  C4  UNL     1      34.298  -1.493 -78.186  1.00  0.00     0.244 C 
HETATM    4  O1  UNL     1      35.557  -1.476 -78.488  1.00  0.00    -0.271 OA
ENDROOT
BRANCH   3   5
HETATM    5  C5  UNL     1      33.650  -0.182 -77.947  1.00  0.00     0.043 C 
HETATM    6  C6  UNL     1      34.297   0.411 -76.710  1.00  0.00     0.020 C 
HETATM    7  C7  UNL     1      34.428   1.889 -76.741  1.00  0.00     0.006 C 
HETATM    8  C8  UNL     1      33.110   2.592 -76.981  1.00  0.00    -0.014 C 
HETATM    9  C9  UNL     1      33.097   3.003 -78.418  1.00  0.00     0.009 C 
HETATM   10  C13 UNL     1      31.934   1.773 -76.544  1.00  0.00     0.009 C 
HETATM   11  C10 UNL     1      32.756   1.796 -79.255  1.00  0.00    -0.013 C 
HETATM   12  C11 UNL     1      31.342   1.428 -78.914  1.00  0.00     0.009 C 
HETATM   13  C15 UNL     1      33.740   0.680 -79.159  1.00  0.00     0.024 C 
HETATM   14  C12 UNL     1      31.396   0.806 -77.524  1.00  0.00    -0.013 C 
HETATM   15  C14 UNL     1      32.175  -0.475 -77.671  1.00  0.00     0.024 C 
ENDBRANCH   3   5
BRANCH   1  16
HETATM   16  N2  UNL     1      34.461  -3.879 -78.374  1.00  0.00    -0.285 N 
ATOM     17  H2  UNL     1      35.473  -3.754 -78.358  1.00  0.00     0.188 HD
BRANCH  16  18
HETATM   18  C3  UNL     1      33.984  -5.180 -78.653  1.00  0.00     0.107 C 
HETATM   19  N1  UNL     1      32.772  -5.485 -78.371  1.00  0.00    -0.387 N 
ATOM     20  H12 UNL     1      32.428  -6.423 -78.574  1.00  0.00     0.157 HD
ATOM     21  H11 UNL     1      32.181  -4.755 -77.973  1.00  0.00     0.157 HD
BRANCH  18  22
HETATM   22  C2  UNL     1      34.846  -6.243 -79.235  1.00  0.00     0.146 C 
HETATM   23  C1  UNL     1      36.296  -5.826 -79.124  1.00  0.00     0.034 C 
HETATM   24 CL1  UNL     1      34.681  -7.803 -78.400  1.00  0.00    -0.117 Cl
ENDBRANCH  18  22
ENDBRANCH  16  18
ENDBRANCH   1  16
TORSDOF 4
ENDMDL
MODEL 3
REMARK VINA RESULT: -6.452500536      5.217      6.958
REMARK  4 active torsions:
REMARK  status: ('A' for Active; 'I' for Inactive)
REMARK    1  A    between atoms: C2_2  and  C3_4 
REMARK    2  A    between atoms: C3_4  and  N2_8 
REMARK    3  A    between atoms: N2_8  and  N3_10 
REMARK       I    between atoms: N3_10  and  C4_12 
REMARK    4  A    between atoms: C4_12  and  C5_14 
ROOT
HETATM    1  N3  UNL     1      30.472  -0.159 -76.994  1.00  0.00    -0.268 N 
ATOM      2  H3  UNL     1      30.421  -0.295 -75.984  1.00  0.00     0.190 HD
HETATM    3  C4  UNL     1      30.312   1.116 -77.557  1.00  0.00     0.244 C 
HETATM    4  O1  UNL     1      30.389   1.195 -78.847  1.00  0.00    -0.271 OA
ENDROOT
BRANCH   3   5
HETATM    5  C5  UNL     1      30.065   2.380 -76.823  1.00  0.00     0.043 C 
HETATM    6  C6  UNL     1      30.652   3.499 -77.662  1.00  0.00     0.020 C 
HETATM    7  C7  UNL     1      29.892   4.773 -77.595  1.00  0.00     0.006 C 
HETATM    8  C8  UNL     1      29.707   5.274 -76.181  1.00  0.00    -0.014 C 
HETATM    9  C9  UNL     1      28.309   4.930 -75.780  1.00  0.00     0.009 C 
HETATM   10  C13 UNL     1      30.774   4.780 -75.251  1.00  0.00     0.009 C 
HETATM   11  C10 UNL     1      28.267   3.469 -75.407  1.00  0.00    -0.013 C 
HETATM   12  C11 UNL     1      29.103   3.323 -74.170  1.00  0.00     0.009 C 
HETATM   13  C15 UNL     1      28.615   2.538 -76.519  1.00  0.00     0.024 C 
HETATM   14  C12 UNL     1      30.550   3.460 -74.625  1.00  0.00    -0.013 C 
HETATM   15  C14 UNL     1      30.827   2.267 -75.502  1.00  0.00     0.024 C 
ENDBRANCH   3   5
BRANCH   1  16
HETATM   16  N2  UNL     1      30.702  -1.233 -77.848  1.00  0.00    -0.285 N 
ATOM     17  H2  UNL     1      29.977  -1.436 -78.537  1.00  0.00     0.188 HD
BRANCH  16  18
HETATM   18  C3  UNL     1      31.841  -2.069 -77.855  1.00  0.00     0.107 C 
HETATM   19  N1  UNL     1      31.697  -3.335 -77.988  1.00  0.00    -0.387 N 
ATOM     20  H12 UNL     1      32.519  -3.939 -77.994  1.00  0.00     0.157 HD
ATOM     21  H11 UNL     1      30.749  -3.694 -78.112  1.00  0.00     0.157 HD
BRANCH  18  22
HETATM   22  C2  UNL     1      33.222  -1.547 -77.676  1.00  0.00     0.146 C 
HETATM   23  C1  UNL     1      34.215  -2.612 -78.086  1.00  0.00     0.034 C 
HETATM   24 CL1  UNL     1      33.552  -0.108 -78.665  1.00  0.00    -0.117 Cl
ENDBRANCH  18  22
ENDBRANCH  16  18
ENDBRANCH   1  16
TORSDOF 4
ENDMDL
MODEL 4
REMARK VINA RESULT: -6.386838078      1.327      2.351
REMARK  4 active torsions:
REMARK  status: ('A' for Active; 'I' for Inactive)
REMARK    1  A    between atoms: C2_2  and  C3_4 
REMARK    2  A    between atoms: C3_4  and  N2_8 
REMARK    3  A    between atoms: N2_8  and  N3_10 
REMARK       I    between atoms: N3_10  and  C4_12 
REMARK    4  A    between atoms: C4_12  and  C5_14 
ROOT
HETATM    1  N3  UNL     1      35.488  -3.904 -78.914  1.00  0.00    -0.268 N 
ATOM      2  H3  UNL     1      36.282  -3.476 -79.390  1.00  0.00     0.190 HD
HETATM    3  C4  UNL     1      34.638  -3.137 -78.103  1.00  0.00     0.244 C 
HETATM    4  O1  UNL     1      33.658  -3.763 -77.535  1.00  0.00    -0.271 OA
ENDROOT
BRANCH   3   5
HETATM    5  C5  UNL     1      34.750  -1.684 -77.832  1.00  0.00     0.043 C 
HETATM    6  C6  UNL     1      33.459  -1.046 -78.307  1.00  0.00     0.020 C 
HETATM    7  C7  UNL     1      33.011   0.106 -77.484  1.00  0.00     0.006 C 
HETATM    8  C8  UNL     1      34.065   1.183 -77.357  1.00  0.00    -0.014 C 
HETATM    9  C9  UNL     1      34.683   1.024 -76.006  1.00  0.00     0.009 C 
HETATM   10  C13 UNL     1      35.032   1.180 -78.502  1.00  0.00     0.009 C 
HETATM   11  C10 UNL     1      35.669  -0.117 -76.065  1.00  0.00    -0.013 C 
HETATM   12  C11 UNL     1      36.773   0.324 -76.979  1.00  0.00     0.009 C 
HETATM   13  C15 UNL     1      35.063  -1.438 -76.396  1.00  0.00     0.024 C 
HETATM   14  C12 UNL     1      36.195   0.275 -78.388  1.00  0.00    -0.013 C 
HETATM   15  C14 UNL     1      35.921  -1.178 -78.676  1.00  0.00     0.024 C 
ENDBRANCH   3   5
BRANCH   1  16
HETATM   16  N2  UNL     1      35.220  -5.262 -79.052  1.00  0.00    -0.285 N 
ATOM     17  H2  UNL     1      34.252  -5.556 -78.921  1.00  0.00     0.188 HD
BRANCH  16  18
HETATM   18  C3  UNL     1      36.158  -6.275 -79.356  1.00  0.00     0.107 C 
HETATM   19  N1  UNL     1      37.401  -5.979 -79.452  1.00  0.00    -0.387 N 
ATOM     20  H12 UNL     1      38.078  -6.710 -79.671  1.00  0.00     0.157 HD
ATOM     21  H11 UNL     1      37.672  -5.011 -79.277  1.00  0.00     0.157 HD
BRANCH  18  22
HETATM   22  C2  UNL     1      35.762  -7.685 -79.610  1.00  0.00     0.146 C 
HETATM   23  C1  UNL     1      37.006  -8.525 -79.803  1.00  0.00     0.034 C 
HETATM   24 CL1  UNL     1      34.847  -8.401 -78.265  1.00  0.00    -0.117 Cl
ENDBRANCH  18  22
ENDBRANCH  16  18
ENDBRANCH   1  16
TORSDOF 4
ENDMDL
MODEL 5
REMARK VINA RESULT: -6.385167089      2.216      3.484
REMARK  4 active torsions:
REMARK  status: ('A' for Active; 'I' for Inactive)
REMARK    1  A    between atoms: C2_2  and  C3_4 
REMARK    2  A    between atoms: C3_4  and  N2_8 
REMARK    3  A    between atoms: N2_8  and  N3_10 
REMARK       I    between atoms: N3_10  and  C4_12 
REMARK    4  A    between atoms: C4_12  and  C5_14 
ROOT
HETATM    1  N3  UNL     1      33.932  -2.774 -77.725  1.00  0.00    -0.268 N 
ATOM      2  H3  UNL     1      32.973  -3.011 -77.470  1.00  0.00     0.190 HD
HETATM    3  C4  UNL     1      34.299  -1.445 -77.985  1.00  0.00     0.244 C 
HETATM    4  O1  UNL     1      35.536  -1.237 -78.305  1.00  0.00    -0.271 OA
ENDROOT
BRANCH   3   5
HETATM    5  C5  UNL     1      33.413  -0.258 -77.931  1.00  0.00     0.043 C 
HETATM    6  C6  UNL     1      31.988  -0.765 -78.040  1.00  0.00     0.020 C 
HETATM    7  C7  UNL     1      31.002   0.019 -77.254  1.00  0.00     0.006 C 
HETATM    8  C8  UNL     1      31.017   1.492 -77.592  1.00  0.00    -0.014 C 
HETATM    9  C9  UNL     1      31.773   2.178 -76.500  1.00  0.00     0.009 C 
HETATM   10  C13 UNL     1      31.523   1.759 -78.978  1.00  0.00     0.009 C 
HETATM   11  C10 UNL     1      33.248   1.973 -76.740  1.00  0.00    -0.013 C 
HETATM   12  C11 UNL     1      33.579   2.712 -78.002  1.00  0.00     0.009 C 
HETATM   13  C15 UNL     1      33.686   0.548 -76.708  1.00  0.00     0.024 C 
HETATM   14  C12 UNL     1      32.988   1.886 -79.138  1.00  0.00    -0.013 C 
HETATM   15  C14 UNL     1      33.757   0.591 -79.156  1.00  0.00     0.024 C 
ENDBRANCH   3   5
BRANCH   1  16
HETATM   16  N2  UNL     1      34.909  -3.759 -77.823  1.00  0.00    -0.285 N 
ATOM     17  H2  UNL     1      35.458  -3.948 -76.984  1.00  0.00     0.188 HD
BRANCH  16  18
HETATM   18  C3  UNL     1      35.214  -4.525 -78.971  1.00  0.00     0.107 C 
HETATM   19  N1  UNL     1      36.112  -4.112 -79.787  1.00  0.00    -0.387 N 
ATOM     20  H12 UNL     1      36.333  -4.665 -80.616  1.00  0.00     0.157 HD
ATOM     21  H11 UNL     1      36.597  -3.244 -79.559  1.00  0.00     0.157 HD
BRANCH  18  22
HETATM   22  C2  UNL     1      34.508  -5.791 -79.304  1.00  0.00     0.146 C 
HETATM   23  C1  UNL     1      35.423  -6.962 -79.020  1.00  0.00     0.034 C 
HETATM   24 CL1  UNL     1      33.030  -6.031 -78.348  1.00  0.00    -0.117 Cl
ENDBRANCH  18  22
ENDBRANCH  16  18
ENDBRANCH   1  16
TORSDOF 4
ENDMDL
