MODEL 1
REMARK VINA RESULT: -7.083514138      0.000      0.000
REMARK  2 active torsions:
REMARK  status: ('A' for Active; 'I' for Inactive)
REMARK       I    between atoms: C1_2  and  N1_3 
REMARK    1  A    between atoms: C1_2  and  C4_13 
REMARK    2  A    between atoms: N1_3  and  C2_5 
ROOT
HETATM    1  O1  UNL     1      52.860   0.443   2.232  1.00  0.00    -0.265 OA
HETATM    2  C1  UNL     1      53.464   0.898   3.233  1.00  0.00     0.281 C 
HETATM    3  N1  UNL     1      54.102   0.031   4.109  1.00  0.00    -0.300 N 
ATOM      4  H1  UNL     1      53.512  -0.554   4.700  1.00  0.00     0.171 HD
ENDROOT
BRANCH   3   5
HETATM    5  C2  UNL     1      55.387  -0.097   4.240  1.00  0.00     0.170 A 
HETATM    6  N2  UNL     1      56.212   0.333   5.177  1.00  0.00    -0.311 N 
HETATM    7  C3  UNL     1      57.494   0.052   5.054  1.00  0.00     0.187 A 
ATOM      8  H2  UNL     1      55.867   0.869   5.973  1.00  0.00     0.170 HD
HETATM    9 CL1  UNL     1      58.757   0.556   6.228  1.00  0.00    -0.044 Cl
HETATM   10  N3  UNL     1      57.873  -0.651   3.988  1.00  0.00    -0.300 N 
HETATM   11  S1  UNL     1      56.430  -0.912   3.168  1.00  0.00     0.025 SA
ATOM     12  H3  UNL     1      58.812  -0.957   3.732  1.00  0.00     0.177 HD
ENDBRANCH   3   5
BRANCH   2  13
HETATM   13  C4  UNL     1      53.493   2.334   3.468  1.00  0.00     0.146 A 
HETATM   14  C5  UNL     1      52.409   3.121   3.816  1.00  0.00     0.066 A 
HETATM   15  C6  UNL     1      52.834   4.421   3.950  1.00  0.00     0.059 A 
HETATM   16 BR1  UNL     1      51.776   5.960   4.420  1.00  0.00    -0.047 Br
HETATM   17  C7  UNL     1      54.183   4.387   3.676  1.00  0.00     0.163 A 
HETATM   18 CL2  UNL     1      55.202   5.816   3.713  1.00  0.00    -0.055 Cl
HETATM   19  O2  UNL     1      54.520   3.157   3.402  1.00  0.00    -0.291 OA
ENDBRANCH   2  13
TORSDOF 2
ENDMDL
MODEL 2
REMARK VINA RESULT: -6.882391101      1.409      1.420
REMARK  2 active torsions:
REMARK  status: ('A' for Active; 'I' for Inactive)
REMARK       I    between atoms: C1_2  and  N1_3 
REMARK    1  A    between atoms: C1_2  and  C4_13 
REMARK    2  A    between atoms: N1_3  and  C2_5 
ROOT
HETATM    1  O1  UNL     1      52.602   0.577   2.123  1.00  0.00    -0.265 OA
HETATM    2  C1  UNL     1      53.251   0.973   3.120  1.00  0.00     0.281 C 
HETATM    3  N1  UNL     1      53.849   0.051   3.968  1.00  0.00    -0.300 N 
ATOM      4  H1  UNL     1      53.234  -0.508   4.559  1.00  0.00     0.171 HD
ENDROOT
BRANCH   3   5
HETATM    5  C2  UNL     1      55.125  -0.160   4.071  1.00  0.00     0.170 A 
HETATM    6  N2  UNL     1      55.896  -1.096   3.548  1.00  0.00    -0.311 N 
HETATM    7  C3  UNL     1      57.184  -1.068   3.825  1.00  0.00     0.187 A 
ATOM      8  H2  UNL     1      55.506  -1.820   2.945  1.00  0.00     0.170 HD
HETATM    9 CL1  UNL     1      58.379  -2.258   3.203  1.00  0.00    -0.044 Cl
HETATM   10  N3  UNL     1      57.624  -0.094   4.620  1.00  0.00    -0.300 N 
HETATM   11  S1  UNL     1      56.230   0.774   4.970  1.00  0.00     0.025 SA
ATOM     12  H3  UNL     1      58.577   0.082   4.939  1.00  0.00     0.177 HD
ENDBRANCH   3   5
BRANCH   2  13
HETATM   13  C4  UNL     1      53.374   2.399   3.382  1.00  0.00     0.146 A 
HETATM   14  C5  UNL     1      52.353   3.241   3.787  1.00  0.00     0.066 A 
HETATM   15  C6  UNL     1      52.860   4.511   3.928  1.00  0.00     0.059 A 
HETATM   16 BR1  UNL     1      51.914   6.099   4.468  1.00  0.00    -0.047 Br
HETATM   17  C7  UNL     1      54.193   4.404   3.601  1.00  0.00     0.163 A 
HETATM   18 CL2  UNL     1      55.297   5.769   3.625  1.00  0.00    -0.055 Cl
HETATM   19  O2  UNL     1      54.446   3.161   3.291  1.00  0.00    -0.291 OA
ENDBRANCH   2  13
TORSDOF 2
ENDMDL
MODEL 3
REMARK VINA RESULT: -6.877398901      1.757      1.865
REMARK  2 active torsions:
REMARK  status: ('A' for Active; 'I' for Inactive)
REMARK       I    between atoms: C1_2  and  N1_3 
REMARK    1  A    between atoms: C1_2  and  C4_13 
REMARK    2  A    between atoms: N1_3  and  C2_5 
ROOT
HETATM    1  O1  UNL     1      53.664   0.180   2.265  1.00  0.00    -0.265 OA
HETATM    2  C1  UNL     1      53.907   0.747   3.356  1.00  0.00     0.281 C 
HETATM    3  N1  UNL     1      54.668   0.098   4.319  1.00  0.00    -0.300 N 
ATOM      4  H1  UNL     1      54.239  -0.694   4.798  1.00  0.00     0.171 HD
ENDROOT
BRANCH   3   5
HETATM    5  C2  UNL     1      55.879   0.414   4.662  1.00  0.00     0.170 A 
HETATM    6  N2  UNL     1      56.520   0.281   5.808  1.00  0.00    -0.311 N 
HETATM    7  C3  UNL     1      57.769   0.696   5.875  1.00  0.00     0.187 A 
ATOM      8  H2  UNL     1      56.061  -0.131   6.621  1.00  0.00     0.170 HD
HETATM    9 CL1  UNL     1      58.792   0.595   7.349  1.00  0.00    -0.044 Cl
HETATM   10  N3  UNL     1      58.304   1.224   4.775  1.00  0.00    -0.300 N 
HETATM   11  S1  UNL     1      57.052   1.134   3.659  1.00  0.00     0.025 SA
ATOM     12  H3  UNL     1      59.246   1.593   4.643  1.00  0.00     0.177 HD
ENDBRANCH   3   5
BRANCH   2  13
HETATM   13  C4  UNL     1      53.391   2.085   3.606  1.00  0.00     0.146 A 
HETATM   14  C5  UNL     1      54.088   3.268   3.433  1.00  0.00     0.066 A 
HETATM   15  C6  UNL     1      53.265   4.316   3.772  1.00  0.00     0.059 A 
HETATM   16 BR1  UNL     1      53.681   6.195   3.732  1.00  0.00    -0.047 Br
HETATM   17  C7  UNL     1      52.076   3.732   4.147  1.00  0.00     0.163 A 
HETATM   18 CL2  UNL     1      50.681   4.657   4.676  1.00  0.00    -0.055 Cl
HETATM   19  O2  UNL     1      52.196   2.437   4.035  1.00  0.00    -0.291 OA
ENDBRANCH   2  13
TORSDOF 2
ENDMDL
MODEL 4
REMARK VINA RESULT: -6.876155159      1.375      1.403
REMARK  2 active torsions:
REMARK  status: ('A' for Active; 'I' for Inactive)
REMARK       I    between atoms: C1_2  and  N1_3 
REMARK    1  A    between atoms: C1_2  and  C4_13 
REMARK    2  A    between atoms: N1_3  and  C2_5 
ROOT
HETATM    1  O1  UNL     1      53.987  -0.171   2.623  1.00  0.00    -0.265 OA
HETATM    2  C1  UNL     1      54.217   0.517   3.646  1.00  0.00     0.281 C 
HETATM    3  N1  UNL     1      55.016   0.006   4.659  1.00  0.00    -0.300 N 
ATOM      4  H1  UNL     1      54.629  -0.750   5.224  1.00  0.00     0.171 HD
ENDROOT
BRANCH   3   5
HETATM    5  C2  UNL     1      56.216   0.408   4.947  1.00  0.00     0.170 A 
HETATM    6  N2  UNL     1      56.947   0.250   6.034  1.00  0.00    -0.311 N 
HETATM    7  C3  UNL     1      58.156   0.775   6.054  1.00  0.00     0.187 A 
ATOM      8  H2  UNL     1      56.587  -0.264   6.838  1.00  0.00     0.170 HD
HETATM    9 CL1  UNL     1      59.287   0.660   7.445  1.00  0.00    -0.044 Cl
HETATM   10  N3  UNL     1      58.561   1.433   4.969  1.00  0.00    -0.300 N 
HETATM   11  S1  UNL     1      57.245   1.310   3.932  1.00  0.00     0.025 SA
ATOM     12  H3  UNL     1      59.454   1.899   4.806  1.00  0.00     0.177 HD
ENDBRANCH   3   5
BRANCH   2  13
HETATM   13  C4  UNL     1      53.644   1.850   3.764  1.00  0.00     0.146 A 
HETATM   14  C5  UNL     1      52.317   2.142   4.027  1.00  0.00     0.066 A 
HETATM   15  C6  UNL     1      52.166   3.507   4.062  1.00  0.00     0.059 A 
HETATM   16 BR1  UNL     1      50.549   4.502   4.386  1.00  0.00    -0.047 Br
HETATM   17  C7  UNL     1      53.422   4.014   3.815  1.00  0.00     0.163 A 
HETATM   18 CL2  UNL     1      53.765   5.735   3.753  1.00  0.00    -0.055 Cl
HETATM   19  O2  UNL     1      54.247   3.016   3.649  1.00  0.00    -0.291 OA
ENDBRANCH   2  13
TORSDOF 2
ENDMDL
MODEL 5
REMARK VINA RESULT: -6.747815810      1.893      2.091
REMARK  2 active torsions:
REMARK  status: ('A' for Active; 'I' for Inactive)
REMARK       I    between atoms: C1_2  and  N1_3 
REMARK    1  A    between atoms: C1_2  and  C4_13 
REMARK    2  A    between atoms: N1_3  and  C2_5 
ROOT
HETATM    1  O1  UNL     1      55.057   0.114   2.572  1.00  0.00    -0.265 OA
HETATM    2  C1  UNL     1      55.005   0.761   3.645  1.00  0.00     0.281 C 
HETATM    3  N1  UNL     1      55.697   0.309   4.760  1.00  0.00    -0.300 N 
ATOM      4  H1  UNL     1      55.346  -0.531   5.220  1.00  0.00     0.171 HD
ENDROOT
BRANCH   3   5
HETATM    5  C2  UNL     1      56.755   0.866   5.267  1.00  0.00     0.170 A 
HETATM    6  N2  UNL     1      57.977   0.402   5.451  1.00  0.00    -0.311 N 
HETATM    7  C3  UNL     1      58.871   1.201   5.997  1.00  0.00     0.187 A 
ATOM      8  H2  UNL     1      58.223  -0.550   5.179  1.00  0.00     0.170 HD
HETATM    9 CL1  UNL     1      60.576   0.740   6.323  1.00  0.00    -0.044 Cl
HETATM   10  N3  UNL     1      58.479   2.431   6.328  1.00  0.00    -0.300 N 
HETATM   11  S1  UNL     1      56.863   2.455   5.871  1.00  0.00     0.025 SA
ATOM     12  H3  UNL     1      59.027   3.177   6.756  1.00  0.00     0.177 HD
ENDBRANCH   3   5
BRANCH   2  13
HETATM   13  C4  UNL     1      54.218   1.983   3.715  1.00  0.00     0.146 A 
HETATM   14  C5  UNL     1      52.890   2.072   4.096  1.00  0.00     0.066 A 
HETATM   15  C6  UNL     1      52.502   3.389   4.034  1.00  0.00     0.059 A 
HETATM   16 BR1  UNL     1      50.772   4.125   4.448  1.00  0.00    -0.047 Br
HETATM   17  C7  UNL     1      53.620   4.073   3.612  1.00  0.00     0.163 A 
HETATM   18 CL2  UNL     1      53.645   5.812   3.372  1.00  0.00    -0.055 Cl
HETATM   19  O2  UNL     1      54.590   3.216   3.440  1.00  0.00    -0.291 OA
ENDBRANCH   2  13
TORSDOF 2
ENDMDL
