MODEL 1
REMARK VINA RESULT: -7.680858472      0.000      0.000
REMARK  11 active torsions:
REMARK  status: ('A' for Active; 'I' for Inactive)
REMARK    1  A    between atoms: C2_2  and  O1_3 
REMARK    2  A    between atoms: C2_2  and  C10_30 
REMARK    3  A    between atoms: O1_3  and  N1_4 
REMARK    4  A    between atoms: N1_4  and  C3_6 
REMARK    5  A    between atoms: C4_9  and  N3_10 
REMARK    6  A    between atoms: C8_16  and  O2_17 
REMARK    7  A    between atoms: C8_16  and  N4_19 
REMARK    8  A    between atoms: N4_19  and  N5_21 
REMARK    9  A    between atoms: C10_30  and  O3_31 
REMARK   10  A    between atoms: C10_30  and  C11_33 
REMARK   11  A    between atoms: C11_33  and  O4_34 
ROOT
HETATM    1  C3  UNL     1       9.139   0.576   2.642  1.00  0.00     0.706 A 
HETATM    2  N2  UNL     1       8.031  -0.050   2.354  1.00  0.00    -0.173 N 
ATOM      3  H2  UNL     1       7.617   0.116   1.437  1.00  0.00     0.186 HD
HETATM    4  C4  UNL     1       7.387  -0.910   3.194  1.00  0.00     0.147 A 
HETATM    5  C5  UNL     1       7.948  -1.130   4.421  1.00  0.00     0.143 A 
HETATM    6  C6  UNL     1       9.158  -0.467   4.768  1.00  0.00     0.117 A 
HETATM    7  C7  UNL     1       9.509  -0.832   6.028  1.00  0.00     0.131 A 
HETATM    8  C8  UNL     1      10.678  -0.557   6.821  1.00  0.00     0.185 C 
HETATM    9  N6  UNL     1       8.525  -1.701   6.452  1.00  0.00    -0.277 N 
ATOM     10  H6  UNL     1       8.495  -2.154   7.365  1.00  0.00     0.189 HD
HETATM   11  N7  UNL     1       7.631  -1.858   5.503  1.00  0.00    -0.189 N 
HETATM   12 CL1  UNL     1       6.200  -2.878   5.600  1.00  0.00     0.036 Cl
HETATM   13  N8  UNL     1       9.720   0.373   3.863  1.00  0.00    -0.181 N 
HETATM   14  C9  UNL     1      10.906   1.112   4.225  1.00  0.00     0.176 C 
ENDROOT
BRANCH   1  15
HETATM   15  N1  UNL     1       9.763   1.395   1.852  1.00  0.00    -0.096 N 
ATOM     16  H1  UNL     1      10.738   1.610   2.059  1.00  0.00     0.213 HD
BRANCH  15  17
HETATM   17  O1  UNL     1       9.202   1.982   0.771  1.00  0.00    -0.259 OA
BRANCH  17  18
HETATM   18  C2  UNL     1       9.802   2.922  -0.064  1.00  0.00     0.179 C 
HETATM   19  C1  UNL     1       8.944   3.215  -1.262  1.00  0.00     0.045 C 
BRANCH  18  20
HETATM   20  C10 UNL     1       9.994   4.220   0.708  1.00  0.00     0.172 C 
BRANCH  20  21
HETATM   21  O3  UNL     1      10.837   4.035   1.805  1.00  0.00    -0.391 OA
ATOM     22  H3  UNL     1      11.125   4.868   2.161  1.00  0.00     0.210 HD
ENDBRANCH  20  21
BRANCH  20  23
HETATM   23  C11 UNL     1       8.652   4.747   1.174  1.00  0.00     0.198 C 
BRANCH  23  24
HETATM   24  O4  UNL     1       8.333   4.110   2.373  1.00  0.00    -0.398 OA
ATOM     25  H4  UNL     1       8.974   4.373   3.023  1.00  0.00     0.209 HD
ENDBRANCH  23  24
ENDBRANCH  20  23
ENDBRANCH  18  20
ENDBRANCH  17  18
ENDBRANCH  15  17
ENDBRANCH   1  15
BRANCH   4  26
HETATM   26  N3  UNL     1       6.317  -1.473   2.834  1.00  0.00    -0.383 N 
ATOM     27  H32 UNL     1       5.592  -1.739   3.501  1.00  0.00     0.157 HD
ATOM     28  H31 UNL     1       6.148  -1.680   1.850  1.00  0.00     0.157 HD
ENDBRANCH   4  26
BRANCH   8  29
HETATM   29  O2  UNL     1      10.450  -0.049   7.995  1.00  0.00    -0.343 OA
ATOM     30  H2  UNL     1      11.011   0.677   8.243  1.00  0.00     0.219 HD
ENDBRANCH   8  29
BRANCH   8  31
HETATM   31  N4  UNL     1      12.026  -0.761   6.536  1.00  0.00    -0.285 N 
ATOM     32  H4  UNL     1      12.263  -1.151   5.624  1.00  0.00     0.188 HD
BRANCH  31  33
HETATM   33  N5  UNL     1      13.077  -0.467   7.412  1.00  0.00    -0.343 N 
ATOM     34  H52 UNL     1      12.910   0.272   8.094  1.00  0.00     0.176 HD
ATOM     35  H51 UNL     1      13.983  -0.938   7.409  1.00  0.00     0.176 HD
ENDBRANCH  31  33
ENDBRANCH   8  31
TORSDOF 11
ENDMDL
MODEL 2
REMARK VINA RESULT: -7.669985659      0.796      1.123
REMARK  11 active torsions:
REMARK  status: ('A' for Active; 'I' for Inactive)
REMARK    1  A    between atoms: C2_2  and  O1_3 
REMARK    2  A    between atoms: C2_2  and  C10_30 
REMARK    3  A    between atoms: O1_3  and  N1_4 
REMARK    4  A    between atoms: N1_4  and  C3_6 
REMARK    5  A    between atoms: C4_9  and  N3_10 
REMARK    6  A    between atoms: C8_16  and  O2_17 
REMARK    7  A    between atoms: C8_16  and  N4_19 
REMARK    8  A    between atoms: N4_19  and  N5_21 
REMARK    9  A    between atoms: C10_30  and  O3_31 
REMARK   10  A    between atoms: C10_30  and  C11_33 
REMARK   11  A    between atoms: C11_33  and  O4_34 
ROOT
HETATM    1  C3  UNL     1       9.040   0.623   2.637  1.00  0.00     0.706 A 
HETATM    2  N2  UNL     1       7.942  -0.029   2.370  1.00  0.00    -0.173 N 
ATOM      3  H2  UNL     1       7.506   0.129   1.461  1.00  0.00     0.186 HD
HETATM    4  C4  UNL     1       7.337  -0.908   3.219  1.00  0.00     0.147 A 
HETATM    5  C5  UNL     1       7.928  -1.118   4.434  1.00  0.00     0.143 A 
HETATM    6  C6  UNL     1       9.128  -0.426   4.759  1.00  0.00     0.117 A 
HETATM    7  C7  UNL     1       9.513  -0.785   6.010  1.00  0.00     0.131 A 
HETATM    8  C8  UNL     1      10.690  -0.484   6.781  1.00  0.00     0.185 C 
HETATM    9  N6  UNL     1       8.559  -1.680   6.450  1.00  0.00    -0.277 N 
ATOM     10  H6  UNL     1       8.559  -2.136   7.363  1.00  0.00     0.189 HD
HETATM   11  N7  UNL     1       7.650  -1.857   5.519  1.00  0.00    -0.189 N 
HETATM   12 CL1  UNL     1       6.247  -2.912   5.642  1.00  0.00     0.036 Cl
HETATM   13  N8  UNL     1       9.650   0.431   3.846  1.00  0.00    -0.181 N 
HETATM   14  C9  UNL     1      10.824   1.199   4.186  1.00  0.00     0.176 C 
ENDROOT
BRANCH   1  15
HETATM   15  N1  UNL     1       9.627   1.460   1.838  1.00  0.00    -0.096 N 
ATOM     16  H1  UNL     1      10.614   1.310   1.629  1.00  0.00     0.213 HD
BRANCH  15  17
HETATM   17  O1  UNL     1       9.013   2.519   1.263  1.00  0.00    -0.259 OA
BRANCH  17  18
HETATM   18  C2  UNL     1       9.461   3.838   1.272  1.00  0.00     0.179 C 
HETATM   19  C1  UNL     1       9.283   4.483  -0.073  1.00  0.00     0.045 C 
BRANCH  18  20
HETATM   20  C10 UNL     1       8.648   4.630   2.287  1.00  0.00     0.172 C 
BRANCH  20  21
HETATM   21  O3  UNL     1       7.681   3.828   2.895  1.00  0.00    -0.391 OA
ATOM     22  H3  UNL     1       7.736   3.883   3.843  1.00  0.00     0.210 HD
ENDBRANCH  20  21
BRANCH  20  23
HETATM   23  C11 UNL     1       7.984   5.811   1.609  1.00  0.00     0.198 C 
BRANCH  23  24
HETATM   24  O4  UNL     1       6.811   6.104   2.307  1.00  0.00    -0.398 OA
ATOM     25  H4  UNL     1       6.115   6.221   1.671  1.00  0.00     0.209 HD
ENDBRANCH  23  24
ENDBRANCH  20  23
ENDBRANCH  18  20
ENDBRANCH  17  18
ENDBRANCH  15  17
ENDBRANCH   1  15
BRANCH   4  26
HETATM   26  N3  UNL     1       6.274  -1.496   2.878  1.00  0.00    -0.383 N 
ATOM     27  H32 UNL     1       5.962  -1.535   1.908  1.00  0.00     0.157 HD
ATOM     28  H31 UNL     1       5.690  -1.953   3.578  1.00  0.00     0.157 HD
ENDBRANCH   4  26
BRANCH   8  29
HETATM   29  O2  UNL     1      10.473   0.015   7.961  1.00  0.00    -0.343 OA
ATOM     30  H2  UNL     1      11.214  -0.002   8.555  1.00  0.00     0.219 HD
ENDBRANCH   8  29
BRANCH   8  31
HETATM   31  N4  UNL     1      12.036  -0.653   6.468  1.00  0.00    -0.285 N 
ATOM     32  H4  UNL     1      12.271  -0.918   5.512  1.00  0.00     0.188 HD
BRANCH  31  33
HETATM   33  N5  UNL     1      13.090  -0.485   7.373  1.00  0.00    -0.343 N 
ATOM     34  H52 UNL     1      12.896  -0.714   8.348  1.00  0.00     0.176 HD
ATOM     35  H51 UNL     1      14.023  -0.154   7.124  1.00  0.00     0.176 HD
ENDBRANCH  31  33
ENDBRANCH   8  31
TORSDOF 11
ENDMDL
MODEL 3
REMARK VINA RESULT: -7.378310909      1.006      1.565
REMARK  11 active torsions:
REMARK  status: ('A' for Active; 'I' for Inactive)
REMARK    1  A    between atoms: C2_2  and  O1_3 
REMARK    2  A    between atoms: C2_2  and  C10_30 
REMARK    3  A    between atoms: O1_3  and  N1_4 
REMARK    4  A    between atoms: N1_4  and  C3_6 
REMARK    5  A    between atoms: C4_9  and  N3_10 
REMARK    6  A    between atoms: C8_16  and  O2_17 
REMARK    7  A    between atoms: C8_16  and  N4_19 
REMARK    8  A    between atoms: N4_19  and  N5_21 
REMARK    9  A    between atoms: C10_30  and  O3_31 
REMARK   10  A    between atoms: C10_30  and  C11_33 
REMARK   11  A    between atoms: C11_33  and  O4_34 
ROOT
HETATM    1  C3  UNL     1       9.221   0.644   2.644  1.00  0.00     0.706 A 
HETATM    2  N2  UNL     1       8.114   0.024   2.337  1.00  0.00    -0.173 N 
ATOM      3  H2  UNL     1       7.711   0.200   1.417  1.00  0.00     0.186 HD
HETATM    4  C4  UNL     1       7.459  -0.844   3.160  1.00  0.00     0.147 A 
HETATM    5  C5  UNL     1       8.006  -1.080   4.391  1.00  0.00     0.143 A 
HETATM    6  C6  UNL     1       9.213  -0.423   4.759  1.00  0.00     0.117 A 
HETATM    7  C7  UNL     1       9.549  -0.802   6.019  1.00  0.00     0.131 A 
HETATM    8  C8  UNL     1      10.709  -0.539   6.827  1.00  0.00     0.185 C 
HETATM    9  N6  UNL     1       8.558  -1.674   6.421  1.00  0.00    -0.277 N 
ATOM     10  H6  UNL     1       8.518  -2.137   7.329  1.00  0.00     0.189 HD
HETATM   11  N7  UNL     1       7.675  -1.819   5.460  1.00  0.00    -0.189 N 
HETATM   12 CL1  UNL     1       6.241  -2.837   5.530  1.00  0.00     0.036 Cl
HETATM   13  N8  UNL     1       9.787   0.427   3.870  1.00  0.00    -0.181 N 
HETATM   14  C9  UNL     1      10.970   1.159   4.253  1.00  0.00     0.176 C 
ENDROOT
BRANCH   1  15
HETATM   15  N1  UNL     1       9.854   1.471   1.870  1.00  0.00    -0.096 N 
ATOM     16  H1  UNL     1      10.861   1.569   1.999  1.00  0.00     0.213 HD
BRANCH  15  17
HETATM   17  O1  UNL     1       9.265   2.211   0.904  1.00  0.00    -0.259 OA
BRANCH  17  18
HETATM   18  C2  UNL     1       8.966   3.570   0.972  1.00  0.00     0.179 C 
HETATM   19  C1  UNL     1       9.394   4.158   2.286  1.00  0.00     0.045 C 
BRANCH  18  20
HETATM   20  C10 UNL     1       9.714   4.297  -0.137  1.00  0.00     0.172 C 
BRANCH  20  21
HETATM   21  O3  UNL     1       8.835   5.002  -0.961  1.00  0.00    -0.391 OA
ATOM     22  H3  UNL     1       9.271   5.305  -1.749  1.00  0.00     0.210 HD
ENDBRANCH  20  21
BRANCH  20  23
HETATM   23  C11 UNL     1      10.508   3.305  -0.963  1.00  0.00     0.198 C 
BRANCH  23  24
HETATM   24  O4  UNL     1      11.665   2.985  -0.253  1.00  0.00    -0.398 OA
ATOM     25  H4  UNL     1      11.625   2.062  -0.029  1.00  0.00     0.209 HD
ENDBRANCH  23  24
ENDBRANCH  20  23
ENDBRANCH  18  20
ENDBRANCH  17  18
ENDBRANCH  15  17
ENDBRANCH   1  15
BRANCH   4  26
HETATM   26  N3  UNL     1       6.392  -1.401   2.781  1.00  0.00    -0.383 N 
ATOM     27  H32 UNL     1       5.678  -0.902   2.251  1.00  0.00     0.157 HD
ATOM     28  H31 UNL     1       6.214  -2.380   3.002  1.00  0.00     0.157 HD
ENDBRANCH   4  26
BRANCH   8  29
HETATM   29  O2  UNL     1      10.469  -0.043   8.005  1.00  0.00    -0.343 OA
ATOM     30  H2  UNL     1      11.223   0.036   8.577  1.00  0.00     0.219 HD
ENDBRANCH   8  29
BRANCH   8  31
HETATM   31  N4  UNL     1      12.060  -0.742   6.556  1.00  0.00    -0.285 N 
ATOM     32  H4  UNL     1      12.307  -1.126   5.644  1.00  0.00     0.188 HD
BRANCH  31  33
HETATM   33  N5  UNL     1      13.102  -0.456   7.445  1.00  0.00    -0.343 N 
ATOM     34  H52 UNL     1      13.820  -1.173   7.551  1.00  0.00     0.176 HD
ATOM     35  H51 UNL     1      13.187   0.407   7.982  1.00  0.00     0.176 HD
ENDBRANCH  31  33
ENDBRANCH   8  31
TORSDOF 11
ENDMDL
MODEL 4
REMARK VINA RESULT: -7.257296703      0.997      1.605
REMARK  11 active torsions:
REMARK  status: ('A' for Active; 'I' for Inactive)
REMARK    1  A    between atoms: C2_2  and  O1_3 
REMARK    2  A    between atoms: C2_2  and  C10_30 
REMARK    3  A    between atoms: O1_3  and  N1_4 
REMARK    4  A    between atoms: N1_4  and  C3_6 
REMARK    5  A    between atoms: C4_9  and  N3_10 
REMARK    6  A    between atoms: C8_16  and  O2_17 
REMARK    7  A    between atoms: C8_16  and  N4_19 
REMARK    8  A    between atoms: N4_19  and  N5_21 
REMARK    9  A    between atoms: C10_30  and  O3_31 
REMARK   10  A    between atoms: C10_30  and  C11_33 
REMARK   11  A    between atoms: C11_33  and  O4_34 
ROOT
HETATM    1  C3  UNL     1       8.571   0.319   2.816  1.00  0.00     0.706 A 
HETATM    2  N2  UNL     1       7.480  -0.378   2.655  1.00  0.00    -0.173 N 
ATOM      3  H2  UNL     1       6.964  -0.257   1.784  1.00  0.00     0.186 HD
HETATM    4  C4  UNL     1       6.982  -1.259   3.569  1.00  0.00     0.147 A 
HETATM    5  C5  UNL     1       7.679  -1.420   4.733  1.00  0.00     0.143 A 
HETATM    6  C6  UNL     1       8.875  -0.678   4.943  1.00  0.00     0.117 A 
HETATM    7  C7  UNL     1       9.377  -0.995   6.164  1.00  0.00     0.131 A 
HETATM    8  C8  UNL     1      10.602  -0.634   6.826  1.00  0.00     0.185 C 
HETATM    9  N6  UNL     1       8.498  -1.914   6.700  1.00  0.00    -0.277 N 
ATOM     10  H6  UNL     1       8.592  -2.349   7.618  1.00  0.00     0.189 HD
HETATM   11  N7  UNL     1       7.522  -2.144   5.852  1.00  0.00    -0.189 N 
HETATM   12 CL1  UNL     1       6.175  -3.247   6.113  1.00  0.00     0.036 Cl
HETATM   13  N8  UNL     1       9.286   0.177   3.973  1.00  0.00    -0.181 N 
HETATM   14  C9  UNL     1      10.455   0.994   4.198  1.00  0.00     0.176 C 
ENDROOT
BRANCH   1  15
HETATM   15  N1  UNL     1       9.057   1.159   1.954  1.00  0.00    -0.096 N 
ATOM     16  H1  UNL     1       9.807   0.836   1.344  1.00  0.00     0.213 HD
BRANCH  15  17
HETATM   17  O1  UNL     1       8.630   2.434   1.813  1.00  0.00    -0.259 OA
BRANCH  17  18
HETATM   18  C2  UNL     1       9.249   3.434   1.065  1.00  0.00     0.179 C 
HETATM   19  C1  UNL     1       9.424   4.689   1.873  1.00  0.00     0.045 C 
BRANCH  18  20
HETATM   20  C10 UNL     1      10.628   2.951   0.637  1.00  0.00     0.172 C 
BRANCH  20  21
HETATM   21  O3  UNL     1      11.600   3.307   1.573  1.00  0.00    -0.391 OA
ATOM     22  H3  UNL     1      12.474   3.116   1.251  1.00  0.00     0.210 HD
ENDBRANCH  20  21
BRANCH  20  23
HETATM   23  C11 UNL     1      10.982   3.530  -0.717  1.00  0.00     0.198 C 
BRANCH  23  24
HETATM   24  O4  UNL     1      12.266   3.097  -1.048  1.00  0.00    -0.398 OA
ATOM     25  H4  UNL     1      12.575   3.627  -1.773  1.00  0.00     0.209 HD
ENDBRANCH  23  24
ENDBRANCH  20  23
ENDBRANCH  18  20
ENDBRANCH  17  18
ENDBRANCH  15  17
ENDBRANCH   1  15
BRANCH   4  26
HETATM   26  N3  UNL     1       5.917  -1.893   3.331  1.00  0.00    -0.383 N 
ATOM     27  H32 UNL     1       5.039  -1.419   3.117  1.00  0.00     0.157 HD
ATOM     28  H31 UNL     1       5.909  -2.912   3.347  1.00  0.00     0.157 HD
ENDBRANCH   4  26
BRANCH   8  29
HETATM   29  O2  UNL     1      10.466  -0.117   8.011  1.00  0.00    -0.343 OA
ATOM     30  H2  UNL     1      11.080   0.574   8.229  1.00  0.00     0.219 HD
ENDBRANCH   8  29
BRANCH   8  31
HETATM   31  N4  UNL     1      11.923  -0.761   6.405  1.00  0.00    -0.285 N 
ATOM     32  H4  UNL     1      12.087  -1.011   5.429  1.00  0.00     0.188 HD
BRANCH  31  33
HETATM   33  N5  UNL     1      13.041  -0.570   7.224  1.00  0.00    -0.343 N 
ATOM     34  H52 UNL     1      12.896  -0.679   8.227  1.00  0.00     0.176 HD
ATOM     35  H51 UNL     1      13.975  -0.333   6.886  1.00  0.00     0.176 HD
ENDBRANCH  31  33
ENDBRANCH   8  31
TORSDOF 11
ENDMDL
MODEL 5
REMARK VINA RESULT: -7.178723189      2.111      3.627
REMARK  11 active torsions:
REMARK  status: ('A' for Active; 'I' for Inactive)
REMARK    1  A    between atoms: C2_2  and  O1_3 
REMARK    2  A    between atoms: C2_2  and  C10_30 
REMARK    3  A    between atoms: O1_3  and  N1_4 
REMARK    4  A    between atoms: N1_4  and  C3_6 
REMARK    5  A    between atoms: C4_9  and  N3_10 
REMARK    6  A    between atoms: C8_16  and  O2_17 
REMARK    7  A    between atoms: C8_16  and  N4_19 
REMARK    8  A    between atoms: N4_19  and  N5_21 
REMARK    9  A    between atoms: C10_30  and  O3_31 
REMARK   10  A    between atoms: C10_30  and  C11_33 
REMARK   11  A    between atoms: C11_33  and  O4_34 
ROOT
HETATM    1  C3  UNL     1       9.245   0.369   2.551  1.00  0.00     0.706 A 
HETATM    2  N2  UNL     1      10.412   0.646   3.067  1.00  0.00    -0.173 N 
ATOM      3  H2  UNL     1      11.060   1.198   2.505  1.00  0.00     0.186 HD
HETATM    4  C4  UNL     1      10.825   0.250   4.305  1.00  0.00     0.147 A 
HETATM    5  C5  UNL     1       9.951  -0.486   5.055  1.00  0.00     0.143 A 
HETATM    6  C6  UNL     1       8.669  -0.805   4.526  1.00  0.00     0.117 A 
HETATM    7  C7  UNL     1       7.992  -1.547   5.440  1.00  0.00     0.131 A 
HETATM    8  C8  UNL     1       6.640  -2.034   5.474  1.00  0.00     0.185 C 
HETATM    9  N6  UNL     1       8.849  -1.687   6.512  1.00  0.00    -0.277 N 
ATOM     10  H6  UNL     1       8.638  -2.199   7.369  1.00  0.00     0.189 HD
HETATM   11  N7  UNL     1       9.978  -1.063   6.265  1.00  0.00    -0.189 N 
HETATM   12 CL1  UNL     1      11.360  -0.975   7.352  1.00  0.00     0.036 Cl
HETATM   13  N8  UNL     1       8.354  -0.368   3.281  1.00  0.00    -0.181 N 
HETATM   14  C9  UNL     1       7.088  -0.744   2.697  1.00  0.00     0.176 C 
ENDROOT
BRANCH   1  15
HETATM   15  N1  UNL     1       8.840   0.741   1.375  1.00  0.00    -0.096 N 
ATOM     16  H1  UNL     1       8.526   0.018   0.728  1.00  0.00     0.213 HD
BRANCH  15  17
HETATM   17  O1  UNL     1       8.807   2.025   0.954  1.00  0.00    -0.259 OA
BRANCH  17  18
HETATM   18  C2  UNL     1       9.799   2.683   0.231  1.00  0.00     0.179 C 
HETATM   19  C1  UNL     1       9.227   3.375  -0.974  1.00  0.00     0.045 C 
BRANCH  18  20
HETATM   20  C10 UNL     1      10.444   3.738   1.120  1.00  0.00     0.172 C 
BRANCH  20  21
HETATM   21  O3  UNL     1      11.552   3.221   1.793  1.00  0.00    -0.391 OA
ATOM     22  H3  UNL     1      12.346   3.685   1.553  1.00  0.00     0.210 HD
ENDBRANCH  20  21
BRANCH  20  23
HETATM   23  C11 UNL     1       9.432   4.259   2.120  1.00  0.00     0.198 C 
BRANCH  23  24
HETATM   24  O4  UNL     1       9.691   3.651   3.349  1.00  0.00    -0.398 OA
ATOM     25  H4  UNL     1      10.359   4.161   3.792  1.00  0.00     0.209 HD
ENDBRANCH  23  24
ENDBRANCH  20  23
ENDBRANCH  18  20
ENDBRANCH  17  18
ENDBRANCH  15  17
ENDBRANCH   1  15
BRANCH   4  26
HETATM   26  N3  UNL     1      11.973   0.563   4.725  1.00  0.00    -0.383 N 
ATOM     27  H32 UNL     1      12.559   1.247   4.246  1.00  0.00     0.157 HD
ATOM     28  H31 UNL     1      12.349   0.131   5.568  1.00  0.00     0.157 HD
ENDBRANCH   4  26
BRANCH   8  29
HETATM   29  O2  UNL     1       6.511  -3.313   5.670  1.00  0.00    -0.343 OA
ATOM     30  H2  UNL     1       5.620  -3.642   5.653  1.00  0.00     0.219 HD
ENDBRANCH   8  29
BRANCH   8  31
HETATM   31  N4  UNL     1       5.434  -1.351   5.343  1.00  0.00    -0.285 N 
ATOM     32  H4  UNL     1       5.298  -0.787   4.503  1.00  0.00     0.188 HD
BRANCH  31  33
HETATM   33  N5  UNL     1       4.395  -1.382   6.280  1.00  0.00    -0.343 N 
ATOM     34  H52 UNL     1       4.316  -2.227   6.846  1.00  0.00     0.176 HD
ATOM     35  H51 UNL     1       3.725  -0.627   6.429  1.00  0.00     0.176 HD
ENDBRANCH  31  33
ENDBRANCH   8  31
TORSDOF 11
ENDMDL
