MODEL 1
REMARK VINA RESULT: -7.813334798      0.000      0.000
REMARK  8 active torsions:
REMARK  status: ('A' for Active; 'I' for Inactive)
REMARK    1  A    between atoms: C2_2  and  O1_3 
REMARK    2  A    between atoms: O1_3  and  C3_4 
REMARK    3  A    between atoms: C3_4  and  C4_6 
REMARK    4  A    between atoms: C4_6  and  O3_7 
REMARK    5  A    between atoms: N1_11  and  N2_13 
REMARK       I    between atoms: N2_13  and  C6_14 
REMARK       I    between atoms: C6_14  and  N3_16 
REMARK    6  A    between atoms: N3_16  and  N4_18 
REMARK       I    between atoms: N5_22  and  C7_23 
REMARK    7  A    between atoms: C8_26  and  C9_27 
REMARK    8  A    between atoms: C9_27  and  O8_28 
ROOT
HETATM    1  C4  UNL     1       9.421   0.890   2.578  1.00  0.00     0.286 C 
HETATM    2  O4  UNL     1      10.804   1.056   2.643  1.00  0.00    -0.263 OA
HETATM    3  C5  UNL     1      11.576   0.479   3.638  1.00  0.00     0.316 C 
HETATM    4  N1  UNL     1      12.846   0.643   3.552  1.00  0.00    -0.185 N 
ATOM      5  H1  UNL     1      13.346   0.188   4.316  1.00  0.00     0.206 HD
HETATM    6  O6  UNL     1      10.987  -0.239   4.671  1.00  0.00    -0.185 OA
HETATM    7  N5  UNL     1       9.590  -0.325   4.621  1.00  0.00    -0.188 N 
HETATM    8  C7  UNL     1       8.804  -0.346   5.787  1.00  0.00     0.355 C 
HETATM    9  N6  UNL     1       9.425  -0.254   7.072  1.00  0.00    -0.038 NA
HETATM   10  O7  UNL     1       7.553  -0.440   5.827  1.00  0.00    -0.249 OA
HETATM   11  C8  UNL     1       9.052  -0.393   3.304  1.00  0.00     0.217 C 
ENDROOT
BRANCH   4  12
HETATM   12  N2  UNL     1      13.649   1.248   2.729  1.00  0.00    -0.260 NA
HETATM   13  C6  UNL     1      14.489   1.881   1.869  1.00  0.00     0.430 C 
HETATM   14  O5  UNL     1      14.377   1.975   0.628  1.00  0.00    -0.227 OA
HETATM   15  N3  UNL     1      15.688   2.559   2.380  1.00  0.00    -0.245 N 
ATOM     16  H3  UNL     1      15.893   2.558   3.379  1.00  0.00     0.192 HD
BRANCH  15  17
HETATM   17  N4  UNL     1      16.534   3.197   1.499  1.00  0.00    -0.340 N 
ATOM     18  H42 UNL     1      16.832   4.152   1.696  1.00  0.00     0.177 HD
ATOM     19  H41 UNL     1      16.850   2.706   0.662  1.00  0.00     0.177 HD
ENDBRANCH  15  17
ENDBRANCH   4  12
BRANCH   1  20
HETATM   20  C3  UNL     1       8.771   2.088   3.159  1.00  0.00     0.325 C 
HETATM   21  O2  UNL     1       7.594   2.078   3.577  1.00  0.00    -0.259 OA
BRANCH  20  22
HETATM   22  O1  UNL     1       9.468   3.286   3.259  1.00  0.00    -0.318 OA
BRANCH  22  23
HETATM   23  C2  UNL     1       9.125   4.375   2.385  1.00  0.00     0.174 C 
HETATM   24  C1  UNL     1       9.827   4.264   1.059  1.00  0.00     0.034 C 
ENDBRANCH  22  23
ENDBRANCH  20  22
ENDBRANCH   1  20
BRANCH   1  25
HETATM   25  O3  UNL     1       9.091   0.766   1.212  1.00  0.00    -0.356 OA
ATOM     26  H3  UNL     1       9.832   1.009   0.670  1.00  0.00     0.213 HD
ENDBRANCH   1  25
BRANCH  11  27
HETATM   27  C9  UNL     1       7.604  -0.709   3.173  1.00  0.00     0.198 C 
BRANCH  27  28
HETATM   28  O8  UNL     1       7.431  -2.114   3.163  1.00  0.00    -0.399 OA
ATOM     29  H8  UNL     1       7.119  -2.385   2.307  1.00  0.00     0.209 HD
ENDBRANCH  27  28
ENDBRANCH  11  27
TORSDOF 8
ENDMDL
MODEL 2
REMARK VINA RESULT: -6.920281462      3.043      4.994
REMARK  8 active torsions:
REMARK  status: ('A' for Active; 'I' for Inactive)
REMARK    1  A    between atoms: C2_2  and  O1_3 
REMARK    2  A    between atoms: O1_3  and  C3_4 
REMARK    3  A    between atoms: C3_4  and  C4_6 
REMARK    4  A    between atoms: C4_6  and  O3_7 
REMARK    5  A    between atoms: N1_11  and  N2_13 
REMARK       I    between atoms: N2_13  and  C6_14 
REMARK       I    between atoms: C6_14  and  N3_16 
REMARK    6  A    between atoms: N3_16  and  N4_18 
REMARK       I    between atoms: N5_22  and  C7_23 
REMARK    7  A    between atoms: C8_26  and  C9_27 
REMARK    8  A    between atoms: C9_27  and  O8_28 
ROOT
HETATM    1  C4  UNL     1       8.409  -0.458   4.134  1.00  0.00     0.286 C 
HETATM    2  O4  UNL     1       8.685   0.845   3.724  1.00  0.00    -0.263 OA
HETATM    3  C5  UNL     1       9.844   1.509   4.089  1.00  0.00     0.316 C 
HETATM    4  N1  UNL     1      10.021   2.679   3.591  1.00  0.00    -0.185 N 
ATOM      5  H1  UNL     1      10.895   3.103   3.902  1.00  0.00     0.206 HD
HETATM    6  O6  UNL     1      10.760   0.924   4.954  1.00  0.00    -0.185 OA
HETATM    7  N5  UNL     1      10.419  -0.356   5.411  1.00  0.00    -0.188 N 
HETATM    8  C7  UNL     1      10.753  -0.797   6.703  1.00  0.00     0.355 C 
HETATM    9  N6  UNL     1      11.439   0.076   7.604  1.00  0.00    -0.038 NA
HETATM   10  O7  UNL     1      10.501  -1.931   7.179  1.00  0.00    -0.249 OA
HETATM   11  C8  UNL     1       9.721  -1.153   4.458  1.00  0.00     0.217 C 
ENDROOT
BRANCH   4  12
HETATM   12  N2  UNL     1       9.357   3.455   2.787  1.00  0.00    -0.260 NA
HETATM   13  C6  UNL     1       8.663   4.265   1.946  1.00  0.00     0.430 C 
HETATM   14  O5  UNL     1       8.852   4.433   0.722  1.00  0.00    -0.227 OA
HETATM   15  N3  UNL     1       7.544   5.068   2.458  1.00  0.00    -0.245 N 
ATOM     16  H3  UNL     1       7.284   5.019   3.444  1.00  0.00     0.192 HD
BRANCH  15  17
HETATM   17  N4  UNL     1       6.847   5.888   1.598  1.00  0.00    -0.340 N 
ATOM     18  H42 UNL     1       6.278   6.644   1.979  1.00  0.00     0.177 HD
ATOM     19  H41 UNL     1       6.909   5.728   0.592  1.00  0.00     0.177 HD
ENDBRANCH  15  17
ENDBRANCH   4  12
BRANCH   1  20
HETATM   20  C3  UNL     1       7.484  -0.406   5.292  1.00  0.00     0.325 C 
HETATM   21  O2  UNL     1       7.837   0.010   6.415  1.00  0.00    -0.259 OA
BRANCH  20  22
HETATM   22  O1  UNL     1       6.166  -0.827   5.157  1.00  0.00    -0.318 OA
BRANCH  22  23
HETATM   23  C2  UNL     1       5.559  -1.585   6.218  1.00  0.00     0.174 C 
HETATM   24  C1  UNL     1       6.032  -3.014   6.220  1.00  0.00     0.034 C 
ENDBRANCH  22  23
ENDBRANCH  20  22
ENDBRANCH   1  20
BRANCH   1  25
HETATM   25  O3  UNL     1       7.793  -1.106   3.044  1.00  0.00    -0.356 OA
ATOM     26  H3  UNL     1       7.496  -0.468   2.405  1.00  0.00     0.213 HD
ENDBRANCH   1  25
BRANCH  11  27
HETATM   27  C9  UNL     1       9.523  -2.591   4.787  1.00  0.00     0.198 C 
BRANCH  27  28
HETATM   28  O8  UNL     1      10.744  -3.284   4.607  1.00  0.00    -0.399 OA
ATOM     29  H8  UNL     1      11.301  -3.139   5.362  1.00  0.00     0.209 HD
ENDBRANCH  27  28
ENDBRANCH  11  27
TORSDOF 8
ENDMDL
MODEL 3
REMARK VINA RESULT: -6.613876838      2.704      3.957
REMARK  8 active torsions:
REMARK  status: ('A' for Active; 'I' for Inactive)
REMARK    1  A    between atoms: C2_2  and  O1_3 
REMARK    2  A    between atoms: O1_3  and  C3_4 
REMARK    3  A    between atoms: C3_4  and  C4_6 
REMARK    4  A    between atoms: C4_6  and  O3_7 
REMARK    5  A    between atoms: N1_11  and  N2_13 
REMARK       I    between atoms: N2_13  and  C6_14 
REMARK       I    between atoms: C6_14  and  N3_16 
REMARK    6  A    between atoms: N3_16  and  N4_18 
REMARK       I    between atoms: N5_22  and  C7_23 
REMARK    7  A    between atoms: C8_26  and  C9_27 
REMARK    8  A    between atoms: C9_27  and  O8_28 
ROOT
HETATM    1  C4  UNL     1       9.037  -0.396   3.375  1.00  0.00     0.286 C 
HETATM    2  O4  UNL     1       9.686   0.676   2.762  1.00  0.00    -0.263 OA
HETATM    3  C5  UNL     1      10.792   1.292   3.322  1.00  0.00     0.316 C 
HETATM    4  N1  UNL     1      11.347   2.221   2.631  1.00  0.00    -0.185 N 
ATOM      5  H1  UNL     1      12.155   2.624   3.105  1.00  0.00     0.206 HD
HETATM    6  O6  UNL     1      11.266   0.912   4.571  1.00  0.00    -0.185 OA
HETATM    7  N5  UNL     1      10.549  -0.116   5.197  1.00  0.00    -0.188 N 
HETATM    8  C7  UNL     1      10.381  -0.164   6.591  1.00  0.00     0.355 C 
HETATM    9  N6  UNL     1      10.930   0.868   7.415  1.00  0.00    -0.038 NA
HETATM   10  O7  UNL     1       9.771  -1.058   7.227  1.00  0.00    -0.249 OA
HETATM   11  C8  UNL     1      10.019  -1.091   4.302  1.00  0.00     0.217 C 
ENDROOT
BRANCH   4  12
HETATM   12  N2  UNL     1      11.129   2.772   1.475  1.00  0.00    -0.260 NA
HETATM   13  C6  UNL     1      10.901   3.349   0.266  1.00  0.00     0.430 C 
HETATM   14  O5  UNL     1      11.592   3.241  -0.770  1.00  0.00    -0.227 OA
HETATM   15  N3  UNL     1       9.726   4.210   0.073  1.00  0.00    -0.245 N 
ATOM     16  H3  UNL     1       9.079   4.377   0.844  1.00  0.00     0.192 HD
BRANCH  15  17
HETATM   17  N4  UNL     1       9.505   4.791  -1.156  1.00  0.00    -0.340 N 
ATOM     18  H42 UNL     1       8.590   4.693  -1.596  1.00  0.00     0.177 HD
ATOM     19  H41 UNL     1      10.257   5.310  -1.609  1.00  0.00     0.177 HD
ENDBRANCH  15  17
ENDBRANCH   4  12
BRANCH   1  20
HETATM   20  C3  UNL     1       7.839   0.115   4.083  1.00  0.00     0.325 C 
HETATM   21  O2  UNL     1       7.336   1.230   3.832  1.00  0.00    -0.259 OA
BRANCH  20  22
HETATM   22  O1  UNL     1       7.228  -0.649   5.070  1.00  0.00    -0.318 OA
BRANCH  22  23
HETATM   23  C2  UNL     1       5.981  -1.304   4.780  1.00  0.00     0.174 C 
HETATM   24  C1  UNL     1       5.172  -1.535   6.027  1.00  0.00     0.034 C 
ENDBRANCH  22  23
ENDBRANCH  20  22
ENDBRANCH   1  20
BRANCH   1  25
HETATM   25  O3  UNL     1       8.657  -1.282   2.346  1.00  0.00    -0.356 OA
ATOM     26  H3  UNL     1       9.223  -2.046   2.342  1.00  0.00     0.213 HD
ENDBRANCH   1  25
BRANCH  11  27
HETATM   27  C9  UNL     1       9.441  -2.324   4.902  1.00  0.00     0.198 C 
BRANCH  27  28
HETATM   28  O8  UNL     1      10.480  -3.102   5.466  1.00  0.00    -0.399 OA
ATOM     29  H8  UNL     1      11.292  -2.610   5.437  1.00  0.00     0.209 HD
ENDBRANCH  27  28
ENDBRANCH  11  27
TORSDOF 8
ENDMDL
MODEL 4
REMARK VINA RESULT: -6.519109910      3.279      5.014
REMARK  8 active torsions:
REMARK  status: ('A' for Active; 'I' for Inactive)
REMARK    1  A    between atoms: C2_2  and  O1_3 
REMARK    2  A    between atoms: O1_3  and  C3_4 
REMARK    3  A    between atoms: C3_4  and  C4_6 
REMARK    4  A    between atoms: C4_6  and  O3_7 
REMARK    5  A    between atoms: N1_11  and  N2_13 
REMARK       I    between atoms: N2_13  and  C6_14 
REMARK       I    between atoms: C6_14  and  N3_16 
REMARK    6  A    between atoms: N3_16  and  N4_18 
REMARK       I    between atoms: N5_22  and  C7_23 
REMARK    7  A    between atoms: C8_26  and  C9_27 
REMARK    8  A    between atoms: C9_27  and  O8_28 
ROOT
HETATM    1  C4  UNL     1      10.347   1.343   4.174  1.00  0.00     0.286 C 
HETATM    2  O4  UNL     1       9.421   2.232   3.630  1.00  0.00    -0.263 OA
HETATM    3  C5  UNL     1       8.064   1.956   3.584  1.00  0.00     0.316 C 
HETATM    4  N1  UNL     1       7.302   2.881   3.126  1.00  0.00    -0.185 N 
ATOM      5  H1  UNL     1       6.319   2.607   3.127  1.00  0.00     0.206 HD
HETATM    6  O6  UNL     1       7.570   0.732   4.018  1.00  0.00    -0.185 OA
HETATM    7  N5  UNL     1       8.532  -0.170   4.490  1.00  0.00    -0.188 N 
HETATM    8  C7  UNL     1       8.403  -1.557   4.305  1.00  0.00     0.355 C 
HETATM    9  N6  UNL     1       7.278  -2.086   3.599  1.00  0.00    -0.038 NA
HETATM   10  O7  UNL     1       9.209  -2.429   4.713  1.00  0.00    -0.249 OA
HETATM   11  C8  UNL     1       9.629   0.441   5.164  1.00  0.00     0.217 C 
ENDROOT
BRANCH   4  12
HETATM   12  N2  UNL     1       7.477   4.082   2.660  1.00  0.00    -0.260 NA
HETATM   13  C6  UNL     1       7.661   5.336   2.174  1.00  0.00     0.430 C 
HETATM   14  O5  UNL     1       7.119   6.392   2.567  1.00  0.00    -0.227 OA
HETATM   15  N3  UNL     1       8.590   5.563   1.058  1.00  0.00    -0.245 N 
ATOM     16  H3  UNL     1       9.099   4.780   0.646  1.00  0.00     0.192 HD
BRANCH  15  17
HETATM   17  N4  UNL     1       8.768   6.839   0.571  1.00  0.00    -0.340 N 
ATOM     18  H42 UNL     1       9.411   7.470   1.049  1.00  0.00     0.177 HD
ATOM     19  H41 UNL     1       8.254   7.136  -0.259  1.00  0.00     0.177 HD
ENDBRANCH  15  17
ENDBRANCH   4  12
BRANCH   1  20
HETATM   20  C3  UNL     1      10.989   0.591   3.070  1.00  0.00     0.325 C 
HETATM   21  O2  UNL     1      10.331  -0.020   2.202  1.00  0.00    -0.259 OA
BRANCH  20  22
HETATM   22  O1  UNL     1      12.374   0.543   2.966  1.00  0.00    -0.318 OA
BRANCH  22  23
HETATM   23  C2  UNL     1      13.087   1.708   2.517  1.00  0.00     0.174 C 
HETATM   24  C1  UNL     1      14.544   1.413   2.285  1.00  0.00     0.034 C 
ENDBRANCH  22  23
ENDBRANCH  20  22
ENDBRANCH   1  20
BRANCH   1  25
HETATM   25  O3  UNL     1      11.302   2.121   4.859  1.00  0.00    -0.356 OA
ATOM     26  H3  UNL     1      10.948   2.980   5.058  1.00  0.00     0.213 HD
ENDBRANCH   1  25
BRANCH  11  27
HETATM   27  C9  UNL     1      10.573  -0.458   5.883  1.00  0.00     0.198 C 
BRANCH  27  28
HETATM   28  O8  UNL     1      10.083  -0.701   7.189  1.00  0.00    -0.399 OA
ATOM     29  H8  UNL     1       9.485  -1.438   7.167  1.00  0.00     0.209 HD
ENDBRANCH  27  28
ENDBRANCH  11  27
TORSDOF 8
ENDMDL
MODEL 5
REMARK VINA RESULT: -6.461054457      2.084      6.069
REMARK  8 active torsions:
REMARK  status: ('A' for Active; 'I' for Inactive)
REMARK    1  A    between atoms: C2_2  and  O1_3 
REMARK    2  A    between atoms: O1_3  and  C3_4 
REMARK    3  A    between atoms: C3_4  and  C4_6 
REMARK    4  A    between atoms: C4_6  and  O3_7 
REMARK    5  A    between atoms: N1_11  and  N2_13 
REMARK       I    between atoms: N2_13  and  C6_14 
REMARK       I    between atoms: C6_14  and  N3_16 
REMARK    6  A    between atoms: N3_16  and  N4_18 
REMARK       I    between atoms: N5_22  and  C7_23 
REMARK    7  A    between atoms: C8_26  and  C9_27 
REMARK    8  A    between atoms: C9_27  and  O8_28 
ROOT
HETATM    1  C4  UNL     1       8.947   1.918   2.874  1.00  0.00     0.286 C 
HETATM    2  O4  UNL     1       8.746   0.908   3.815  1.00  0.00    -0.263 OA
HETATM    3  C5  UNL     1       9.769   0.415   4.606  1.00  0.00     0.316 C 
HETATM    4  N1  UNL     1       9.448  -0.462   5.486  1.00  0.00    -0.185 N 
ATOM      5  H1  UNL     1      10.251  -0.774   6.032  1.00  0.00     0.206 HD
HETATM    6  O6  UNL     1      11.076   0.859   4.443  1.00  0.00    -0.185 OA
HETATM    7  N5  UNL     1      11.261   1.818   3.438  1.00  0.00    -0.188 N 
HETATM    8  C7  UNL     1      12.435   1.868   2.666  1.00  0.00     0.355 C 
HETATM    9  N6  UNL     1      13.474   0.909   2.877  1.00  0.00    -0.038 NA
HETATM   10  O7  UNL     1      12.684   2.705   1.765  1.00  0.00    -0.249 OA
HETATM   11  C8  UNL     1      10.171   2.722   3.281  1.00  0.00     0.217 C 
ENDROOT
BRANCH   4  12
HETATM   12  N2  UNL     1       8.348  -1.049   5.851  1.00  0.00    -0.260 NA
HETATM   13  C6  UNL     1       7.198  -1.664   6.233  1.00  0.00     0.430 C 
HETATM   14  O5  UNL     1       7.078  -2.654   6.986  1.00  0.00    -0.227 OA
HETATM   15  N3  UNL     1       5.903  -1.164   5.749  1.00  0.00    -0.245 N 
ATOM     16  H3  UNL     1       5.864  -0.356   5.127  1.00  0.00     0.192 HD
BRANCH  15  17
HETATM   17  N4  UNL     1       4.743  -1.794   6.141  1.00  0.00    -0.340 N 
ATOM     18  H42 UNL     1       4.063  -2.072   5.434  1.00  0.00     0.177 HD
ATOM     19  H41 UNL     1       4.579  -1.974   7.132  1.00  0.00     0.177 HD
ENDBRANCH  15  17
ENDBRANCH   4  12
BRANCH   1  20
HETATM   20  C3  UNL     1       9.084   1.298   1.535  1.00  0.00     0.325 C 
HETATM   21  O2  UNL     1       8.661   0.151   1.279  1.00  0.00    -0.259 OA
BRANCH  20  22
HETATM   22  O1  UNL     1       9.702   1.990   0.500  1.00  0.00    -0.318 OA
BRANCH  22  23
HETATM   23  C2  UNL     1       8.921   2.404  -0.634  1.00  0.00     0.174 C 
HETATM   24  C1  UNL     1       9.453   3.674  -1.240  1.00  0.00     0.034 C 
ENDBRANCH  22  23
ENDBRANCH  20  22
ENDBRANCH   1  20
BRANCH   1  25
HETATM   25  O3  UNL     1       7.807   2.746   2.917  1.00  0.00    -0.356 OA
ATOM     26  H3  UNL     1       7.734   3.249   2.114  1.00  0.00     0.213 HD
ENDBRANCH   1  25
BRANCH  11  27
HETATM   27  C9  UNL     1      10.383   3.898   2.394  1.00  0.00     0.198 C 
BRANCH  27  28
HETATM   28  O8  UNL     1       9.432   4.899   2.709  1.00  0.00    -0.399 OA
ATOM     29  H8  UNL     1       9.584   5.660   2.161  1.00  0.00     0.209 HD
ENDBRANCH  27  28
ENDBRANCH  11  27
TORSDOF 8
ENDMDL
