MODEL 1
REMARK VINA RESULT: -7.044213270      0.000      0.000
REMARK  5 active torsions:
REMARK  status: ('A' for Active; 'I' for Inactive)
REMARK       I    between atoms: C1_4  and  N3_6 
REMARK    1  A    between atoms: N3_6  and  N4_8 
REMARK    2  A    between atoms: C2_10  and  C3_11 
REMARK       I    between atoms: C3_11  and  N5_13 
REMARK    3  A    between atoms: N5_13  and  N6_15 
REMARK    4  A    between atoms: C5_20  and  N9_21 
REMARK    5  A    between atoms: C9_29  and  N11_30 
ROOT
HETATM    1  N6  UNL     1      11.273   1.214   3.484  1.00  0.00    -0.158 N 
HETATM    2  N7  UNL     1      10.260   1.263   2.637  1.00  0.00     0.003 NA
HETATM    3  N8  UNL     1       9.254   0.531   3.081  1.00  0.00    -0.275 N 
ATOM      4  H8  UNL     1       8.356   0.401   2.615  1.00  0.00     0.184 HD
HETATM    5  C4  UNL     1       9.621  -0.014   4.255  1.00  0.00     0.139 A 
HETATM    6  C5  UNL     1       8.964  -0.849   5.134  1.00  0.00     0.158 A 
HETATM    7  N10 UNL     1       9.647  -1.210   6.244  1.00  0.00    -0.174 N 
ATOM      8  H10 UNL     1       9.196  -1.827   6.919  1.00  0.00     0.186 HD
HETATM    9  C9  UNL     1      10.893  -0.788   6.491  1.00  0.00     0.679 A 
HETATM   10  N12 UNL     1      11.505   0.022   5.621  1.00  0.00    -0.171 N 
ATOM     11  H12 UNL     1      12.454   0.340   5.814  1.00  0.00     0.186 HD
HETATM   12  C10 UNL     1      10.889   0.423   4.495  1.00  0.00     0.190 A 
ENDROOT
BRANCH   1  13
HETATM   13  N5  UNL     1      12.516   1.835   3.402  1.00  0.00    -0.244 N 
HETATM   14  C3  UNL     1      13.575   1.224   2.691  1.00  0.00     0.278 C 
HETATM   15  O1  UNL     1      13.381   0.117   2.137  1.00  0.00    -0.265 OA
ATOM     16  H5  UNL     1      12.663   2.736   3.856  1.00  0.00     0.192 HD
BRANCH  14  17
HETATM   17  C2  UNL     1      14.876   1.850   2.591  1.00  0.00     0.182 C 
HETATM   18  N4  UNL     1      15.281   2.348   1.485  1.00  0.00    -0.304 N 
ATOM     19  H4  UNL     1      14.682   2.307   0.660  1.00  0.00     0.186 HD
BRANCH  18  20
HETATM   20  N3  UNL     1      16.532   2.946   1.402  1.00  0.00    -0.274 N 
HETATM   21  C1  UNL     1      16.704   4.243   1.936  1.00  0.00     0.200 C 
HETATM   22  N1  UNL     1      16.838   4.447   3.195  1.00  0.00    -0.372 N 
HETATM   23  N2  UNL     1      16.725   5.342   1.044  1.00  0.00    -0.062 NA
ATOM     24  H12 UNL     1      16.962   5.383   3.581  1.00  0.00     0.158 HD
ATOM     25  H11 UNL     1      16.823   3.656   3.838  1.00  0.00     0.158 HD
ATOM     26  H3  UNL     1      17.313   2.458   0.964  1.00  0.00     0.189 HD
ENDBRANCH  18  20
ENDBRANCH  14  17
ENDBRANCH   1  13
BRANCH   6  27
HETATM   27  N9  UNL     1       7.641  -1.300   4.874  1.00  0.00    -0.296 N 
HETATM   28  C6  UNL     1       6.413  -1.521   5.566  1.00  0.00     0.180 C 
HETATM   29  C7  UNL     1       5.652  -1.673   4.277  1.00  0.00     0.280 C 
HETATM   30  F1  UNL     1       5.012  -2.886   4.109  1.00  0.00    -0.238 F 
HETATM   31  C8  UNL     1       7.008  -1.747   3.666  1.00  0.00     0.261 C 
HETATM   32  O2  UNL     1       7.384  -2.082   2.515  1.00  0.00    -0.270 OA
ENDBRANCH   6  27
BRANCH   9  33
HETATM   33  N11 UNL     1      11.523  -1.141   7.549  1.00  0.00    -0.234 N 
ATOM     34 2H11 UNL     1      12.310  -0.572   7.864  1.00  0.00     0.174 HD
ATOM     35 1H11 UNL     1      11.255  -1.971   8.078  1.00  0.00     0.174 HD
ENDBRANCH   9  33
TORSDOF 5
ENDMDL
MODEL 2
REMARK VINA RESULT: -7.035728012      0.958      1.061
REMARK  5 active torsions:
REMARK  status: ('A' for Active; 'I' for Inactive)
REMARK       I    between atoms: C1_4  and  N3_6 
REMARK    1  A    between atoms: N3_6  and  N4_8 
REMARK    2  A    between atoms: C2_10  and  C3_11 
REMARK       I    between atoms: C3_11  and  N5_13 
REMARK    3  A    between atoms: N5_13  and  N6_15 
REMARK    4  A    between atoms: C5_20  and  N9_21 
REMARK    5  A    between atoms: C9_29  and  N11_30 
ROOT
HETATM    1  N6  UNL     1      11.351   1.297   3.497  1.00  0.00    -0.158 N 
HETATM    2  N7  UNL     1      10.308   1.398   2.691  1.00  0.00     0.003 NA
HETATM    3  N8  UNL     1       9.301   0.676   3.150  1.00  0.00    -0.275 N 
ATOM      4  H8  UNL     1       8.383   0.583   2.716  1.00  0.00     0.184 HD
HETATM    5  C4  UNL     1       9.698   0.085   4.291  1.00  0.00     0.139 A 
HETATM    6  C5  UNL     1       9.054  -0.763   5.168  1.00  0.00     0.158 A 
HETATM    7  N10 UNL     1       9.770  -1.177   6.239  1.00  0.00    -0.174 N 
ATOM      8  H10 UNL     1       9.329  -1.805   6.910  1.00  0.00     0.186 HD
HETATM    9  C9  UNL     1      11.034  -0.793   6.450  1.00  0.00     0.679 A 
HETATM   10  N12 UNL     1      11.633   0.030   5.583  1.00  0.00    -0.171 N 
ATOM     11  H12 UNL     1      12.597   0.319   5.750  1.00  0.00     0.186 HD
HETATM   12  C10 UNL     1      10.985   0.483   4.496  1.00  0.00     0.190 A 
ENDROOT
BRANCH   1  13
HETATM   13  N5  UNL     1      12.605   1.891   3.386  1.00  0.00    -0.244 N 
HETATM   14  C3  UNL     1      13.644   1.241   2.681  1.00  0.00     0.278 C 
HETATM   15  O1  UNL     1      13.422   0.124   2.157  1.00  0.00    -0.265 OA
ATOM     16  H5  UNL     1      12.775   2.800   3.816  1.00  0.00     0.192 HD
BRANCH  14  17
HETATM   17  C2  UNL     1      14.956   1.838   2.552  1.00  0.00     0.182 C 
HETATM   18  N4  UNL     1      15.248   2.569   1.544  1.00  0.00    -0.304 N 
ATOM     19  H4  UNL     1      14.550   2.737   0.820  1.00  0.00     0.186 HD
BRANCH  18  20
HETATM   20  N3  UNL     1      16.512   3.135   1.433  1.00  0.00    -0.274 N 
HETATM   21  C1  UNL     1      16.714   4.447   1.916  1.00  0.00     0.200 C 
HETATM   22  N1  UNL     1      16.861   4.696   3.166  1.00  0.00    -0.372 N 
HETATM   23  N2  UNL     1      16.754   5.511   0.982  1.00  0.00    -0.062 NA
ATOM     24  H12 UNL     1      17.007   5.643   3.515  1.00  0.00     0.158 HD
ATOM     25  H11 UNL     1      16.833   3.930   3.838  1.00  0.00     0.158 HD
ATOM     26  H3  UNL     1      17.279   2.614   1.009  1.00  0.00     0.189 HD
ENDBRANCH  18  20
ENDBRANCH  14  17
ENDBRANCH   1  13
BRANCH   6  27
HETATM   27  N9  UNL     1       7.711  -1.174   4.945  1.00  0.00    -0.296 N 
HETATM   28  C6  UNL     1       6.630  -0.913   4.052  1.00  0.00     0.180 C 
HETATM   29  C7  UNL     1       5.863  -2.110   4.546  1.00  0.00     0.280 C 
HETATM   30  F1  UNL     1       4.620  -1.835   5.081  1.00  0.00    -0.238 F 
HETATM   31  C8  UNL     1       6.877  -2.114   5.637  1.00  0.00     0.261 C 
HETATM   32  O2  UNL     1       6.921  -2.735   6.729  1.00  0.00    -0.270 OA
ENDBRANCH   6  27
BRANCH   9  33
HETATM   33  N11 UNL     1      11.695  -1.196   7.472  1.00  0.00    -0.234 N 
ATOM     34 2H11 UNL     1      12.706  -1.303   7.389  1.00  0.00     0.174 HD
ATOM     35 1H11 UNL     1      11.233  -1.408   8.356  1.00  0.00     0.174 HD
ENDBRANCH   9  33
TORSDOF 5
ENDMDL
MODEL 3
REMARK VINA RESULT: -5.500564779      1.820      2.921
REMARK  5 active torsions:
REMARK  status: ('A' for Active; 'I' for Inactive)
REMARK       I    between atoms: C1_4  and  N3_6 
REMARK    1  A    between atoms: N3_6  and  N4_8 
REMARK    2  A    between atoms: C2_10  and  C3_11 
REMARK       I    between atoms: C3_11  and  N5_13 
REMARK    3  A    between atoms: N5_13  and  N6_15 
REMARK    4  A    between atoms: C5_20  and  N9_21 
REMARK    5  A    between atoms: C9_29  and  N11_30 
ROOT
HETATM    1  N6  UNL     1      12.177   1.373   3.377  1.00  0.00    -0.158 N 
HETATM    2  N7  UNL     1      12.113   0.209   4.000  1.00  0.00     0.003 NA
HETATM    3  N8  UNL     1      10.853  -0.147   4.179  1.00  0.00    -0.275 N 
ATOM      4  H8  UNL     1      10.530  -1.002   4.634  1.00  0.00     0.184 HD
HETATM    5  C4  UNL     1      10.070   0.814   3.658  1.00  0.00     0.139 A 
HETATM    6  C5  UNL     1       8.699   0.948   3.574  1.00  0.00     0.158 A 
HETATM    7  N10 UNL     1       8.241   2.068   2.970  1.00  0.00    -0.174 N 
ATOM      8  H10 UNL     1       7.234   2.205   2.888  1.00  0.00     0.186 HD
HETATM    9  C9  UNL     1       9.060   3.005   2.476  1.00  0.00     0.679 A 
HETATM   10  N12 UNL     1      10.384   2.848   2.572  1.00  0.00    -0.171 N 
ATOM     11  H12 UNL     1      11.002   3.565   2.194  1.00  0.00     0.186 HD
HETATM   12  C10 UNL     1      10.913   1.760   3.159  1.00  0.00     0.190 A 
ENDROOT
BRANCH   1  13
HETATM   13  N5  UNL     1      13.299   2.102   2.996  1.00  0.00    -0.244 N 
HETATM   14  C3  UNL     1      14.323   1.493   2.234  1.00  0.00     0.278 C 
HETATM   15  O1  UNL     1      14.207   0.288   1.906  1.00  0.00    -0.265 OA
ATOM     16  H5  UNL     1      13.384   3.081   3.268  1.00  0.00     0.192 HD
BRANCH  14  17
HETATM   17  C2  UNL     1      15.500   2.230   1.826  1.00  0.00     0.182 C 
HETATM   18  N4  UNL     1      15.680   3.438   2.202  1.00  0.00    -0.304 N 
ATOM     19  H4  UNL     1      14.989   3.893   2.798  1.00  0.00     0.186 HD
BRANCH  18  20
HETATM   20  N3  UNL     1      16.815   4.134   1.803  1.00  0.00    -0.274 N 
HETATM   21  C1  UNL     1      16.792   5.546   1.834  1.00  0.00     0.200 C 
HETATM   22  N1  UNL     1      16.936   6.205   2.925  1.00  0.00    -0.372 N 
HETATM   23  N2  UNL     1      16.604   6.245   0.616  1.00  0.00    -0.062 NA
ATOM     24  H12 UNL     1      16.920   7.225   2.947  1.00  0.00     0.158 HD
ATOM     25  H11 UNL     1      17.072   5.703   3.801  1.00  0.00     0.158 HD
ATOM     26  H3  UNL     1      17.648   3.635   1.493  1.00  0.00     0.189 HD
ENDBRANCH  18  20
ENDBRANCH  14  17
ENDBRANCH   1  13
BRANCH   6  27
HETATM   27  N9  UNL     1       7.827  -0.045   4.099  1.00  0.00    -0.296 N 
HETATM   28  C6  UNL     1       6.627  -0.731   3.749  1.00  0.00     0.180 C 
HETATM   29  C7  UNL     1       6.821  -1.741   4.846  1.00  0.00     0.280 C 
HETATM   30  F1  UNL     1       5.803  -1.803   5.779  1.00  0.00    -0.238 F 
HETATM   31  C8  UNL     1       7.865  -0.793   5.323  1.00  0.00     0.261 C 
HETATM   32  O2  UNL     1       8.501  -0.731   6.405  1.00  0.00    -0.270 OA
ENDBRANCH   6  27
BRANCH   9  33
HETATM   33  N11 UNL     1       8.605   4.059   1.907  1.00  0.00    -0.234 N 
ATOM     34 2H11 UNL     1       8.513   4.912   2.459  1.00  0.00     0.174 HD
ATOM     35 1H11 UNL     1       8.338   4.061   0.923  1.00  0.00     0.174 HD
ENDBRANCH   9  33
TORSDOF 5
ENDMDL
MODEL 4
REMARK VINA RESULT: -5.334277217      1.494      1.548
REMARK  5 active torsions:
REMARK  status: ('A' for Active; 'I' for Inactive)
REMARK       I    between atoms: C1_4  and  N3_6 
REMARK    1  A    between atoms: N3_6  and  N4_8 
REMARK    2  A    between atoms: C2_10  and  C3_11 
REMARK       I    between atoms: C3_11  and  N5_13 
REMARK    3  A    between atoms: N5_13  and  N6_15 
REMARK    4  A    between atoms: C5_20  and  N9_21 
REMARK    5  A    between atoms: C9_29  and  N11_30 
ROOT
HETATM    1  N6  UNL     1      11.122   0.504   3.299  1.00  0.00    -0.158 N 
HETATM    2  N7  UNL     1      10.025   0.505   2.561  1.00  0.00     0.003 NA
HETATM    3  N8  UNL     1       9.006   0.023   3.252  1.00  0.00    -0.275 N 
ATOM      4  H8  UNL     1       8.050  -0.083   2.914  1.00  0.00     0.184 HD
HETATM    5  C4  UNL     1       9.451  -0.303   4.478  1.00  0.00     0.139 A 
HETATM    6  C5  UNL     1       8.819  -0.839   5.581  1.00  0.00     0.158 A 
HETATM    7  N10 UNL     1       9.588  -1.042   6.675  1.00  0.00    -0.174 N 
ATOM      8  H10 UNL     1       9.158  -1.437   7.511  1.00  0.00     0.186 HD
HETATM    9  C9  UNL     1      10.893  -0.745   6.702  1.00  0.00     0.679 A 
HETATM   10  N12 UNL     1      11.479  -0.227   5.618  1.00  0.00    -0.171 N 
ATOM     11  H12 UNL     1      12.474  -0.003   5.644  1.00  0.00     0.186 HD
HETATM   12  C10 UNL     1      10.779   0.004   4.494  1.00  0.00     0.190 A 
ENDROOT
BRANCH   1  13
HETATM   13  N5  UNL     1      12.405   0.924   2.962  1.00  0.00    -0.244 N 
HETATM   14  C3  UNL     1      12.592   2.054   2.133  1.00  0.00     0.278 C 
HETATM   15  O1  UNL     1      11.589   2.673   1.705  1.00  0.00    -0.265 OA
ATOM     16  H5  UNL     1      13.214   0.414   3.315  1.00  0.00     0.192 HD
BRANCH  14  17
HETATM   17  C2  UNL     1      13.916   2.511   1.768  1.00  0.00     0.182 C 
HETATM   18  N4  UNL     1      14.949   1.807   2.035  1.00  0.00    -0.304 N 
ATOM     19  H4  UNL     1      14.844   0.911   2.511  1.00  0.00     0.186 HD
BRANCH  18  20
HETATM   20  N3  UNL     1      16.215   2.257   1.679  1.00  0.00    -0.274 N 
HETATM   21  C1  UNL     1      16.601   3.565   2.050  1.00  0.00     0.200 C 
HETATM   22  N1  UNL     1      16.983   3.849   3.241  1.00  0.00    -0.372 N 
HETATM   23  N2  UNL     1      16.562   4.584   1.067  1.00  0.00    -0.062 NA
ATOM     24  H12 UNL     1      17.262   4.793   3.509  1.00  0.00     0.158 HD
ATOM     25  H11 UNL     1      17.012   3.115   3.948  1.00  0.00     0.158 HD
ATOM     26  H3  UNL     1      16.853   1.655   1.159  1.00  0.00     0.189 HD
ENDBRANCH  18  20
ENDBRANCH  14  17
ENDBRANCH   1  13
BRANCH   6  27
HETATM   27  N9  UNL     1       7.433  -1.156   5.555  1.00  0.00    -0.296 N 
HETATM   28  C6  UNL     1       6.235  -0.739   4.903  1.00  0.00     0.180 C 
HETATM   29  C7  UNL     1       5.486  -1.950   5.388  1.00  0.00     0.280 C 
HETATM   30  F1  UNL     1       4.373  -1.685   6.162  1.00  0.00    -0.238 F 
HETATM   31  C8  UNL     1       6.668  -2.133   6.275  1.00  0.00     0.261 C 
HETATM   32  O2  UNL     1       6.855  -2.884   7.265  1.00  0.00    -0.270 OA
ENDBRANCH   6  27
BRANCH   9  33
HETATM   33  N11 UNL     1      11.604  -0.945   7.749  1.00  0.00    -0.234 N 
ATOM     34 2H11 UNL     1      11.444  -1.792   8.295  1.00  0.00     0.174 HD
ATOM     35 1H11 UNL     1      12.320  -0.281   8.042  1.00  0.00     0.174 HD
ENDBRANCH   9  33
TORSDOF 5
ENDMDL
MODEL 5
REMARK VINA RESULT: -5.178015092      1.366      2.680
REMARK  5 active torsions:
REMARK  status: ('A' for Active; 'I' for Inactive)
REMARK       I    between atoms: C1_4  and  N3_6 
REMARK    1  A    between atoms: N3_6  and  N4_8 
REMARK    2  A    between atoms: C2_10  and  C3_11 
REMARK       I    between atoms: C3_11  and  N5_13 
REMARK    3  A    between atoms: N5_13  and  N6_15 
REMARK    4  A    between atoms: C5_20  and  N9_21 
REMARK    5  A    between atoms: C9_29  and  N11_30 
ROOT
HETATM    1  N6  UNL     1      12.313   1.205   3.784  1.00  0.00    -0.158 N 
HETATM    2  N7  UNL     1      12.247   0.435   4.857  1.00  0.00     0.003 NA
HETATM    3  N8  UNL     1      11.036  -0.078   4.980  1.00  0.00    -0.275 N 
ATOM      4  H8  UNL     1      10.724  -0.705   5.721  1.00  0.00     0.184 HD
HETATM    5  C4  UNL     1      10.287   0.370   3.957  1.00  0.00     0.139 A 
HETATM    6  C5  UNL     1       8.972   0.150   3.605  1.00  0.00     0.158 A 
HETATM    7  N10 UNL     1       8.536   0.774   2.487  1.00  0.00    -0.174 N 
ATOM      8  H10 UNL     1       7.569   0.637   2.194  1.00  0.00     0.186 HD
HETATM    9  C9  UNL     1       9.325   1.566   1.752  1.00  0.00     0.679 A 
HETATM   10  N12 UNL     1      10.596   1.761   2.116  1.00  0.00    -0.171 N 
ATOM     11  H12 UNL     1      11.192   2.366   1.552  1.00  0.00     0.186 HD
HETATM   12  C10 UNL     1      11.101   1.173   3.215  1.00  0.00     0.190 A 
ENDROOT
BRANCH   1  13
HETATM   13  N5  UNL     1      13.394   1.930   3.291  1.00  0.00    -0.244 N 
HETATM   14  C3  UNL     1      14.277   1.348   2.353  1.00  0.00     0.278 C 
HETATM   15  O1  UNL     1      14.075   0.171   1.971  1.00  0.00    -0.265 OA
ATOM     16  H5  UNL     1      13.550   2.887   3.608  1.00  0.00     0.192 HD
BRANCH  14  17
HETATM   17  C2  UNL     1      15.408   2.081   1.825  1.00  0.00     0.182 C 
HETATM   18  N4  UNL     1      15.724   3.227   2.295  1.00  0.00    -0.304 N 
ATOM     19  H4  UNL     1      15.175   3.634   3.052  1.00  0.00     0.186 HD
BRANCH  18  20
HETATM   20  N3  UNL     1      16.812   3.920   1.780  1.00  0.00    -0.274 N 
HETATM   21  C1  UNL     1      16.778   5.333   1.773  1.00  0.00     0.200 C 
HETATM   22  N1  UNL     1      17.008   6.024   2.828  1.00  0.00    -0.372 N 
HETATM   23  N2  UNL     1      16.477   5.994   0.557  1.00  0.00    -0.062 NA
ATOM     24  H12 UNL     1      16.983   7.044   2.823  1.00  0.00     0.158 HD
ATOM     25  H11 UNL     1      17.225   5.548   3.704  1.00  0.00     0.158 HD
ATOM     26  H3  UNL     1      17.621   3.419   1.413  1.00  0.00     0.189 HD
ENDBRANCH  18  20
ENDBRANCH  14  17
ENDBRANCH   1  13
BRANCH   6  27
HETATM   27  N9  UNL     1       8.131  -0.690   4.385  1.00  0.00    -0.296 N 
HETATM   28  C6  UNL     1       8.167  -1.439   5.598  1.00  0.00     0.180 C 
HETATM   29  C7  UNL     1       6.677  -1.639   5.584  1.00  0.00     0.280 C 
HETATM   30  F1  UNL     1       6.257  -2.954   5.558  1.00  0.00    -0.238 F 
HETATM   31  C8  UNL     1       6.779  -1.129   4.188  1.00  0.00     0.261 C 
HETATM   32  O2  UNL     1       5.949  -1.118   3.244  1.00  0.00    -0.270 OA
ENDBRANCH   6  27
BRANCH   9  33
HETATM   33  N11 UNL     1       8.892   2.149   0.695  1.00  0.00    -0.234 N 
ATOM     34 2H11 UNL     1       9.569   2.538   0.039  1.00  0.00     0.174 HD
ATOM     35 1H11 UNL     1       7.894   2.228   0.501  1.00  0.00     0.174 HD
ENDBRANCH   9  33
TORSDOF 5
ENDMDL
