MODEL 1
REMARK VINA RESULT: -5.142173131      0.000      0.000
REMARK  5 active torsions:
REMARK  status: ('A' for Active; 'I' for Inactive)
REMARK    1  A    between atoms: C1_2  and  N1_3 
REMARK    2  A    between atoms: C1_2  and  N2_8 
REMARK    3  A    between atoms: N1_3  and  C2_5 
REMARK    4  A    between atoms: C2_5  and  C3_6 
REMARK    5  A    between atoms: N2_8  and  N3_10 
ROOT
HETATM    1  N2  UNL     1      20.578  42.089  94.225  1.00  0.00    -0.277 N 
ATOM      2  H2  UNL     1      19.970  42.820  94.595  1.00  0.00     0.189 HD
ENDROOT
BRANCH   1   3
HETATM    3  C1  UNL     1      20.588  41.823  92.833  1.00  0.00     0.186 C 
HETATM    4  S1  UNL     1      19.767  42.814  91.835  1.00  0.00    -0.040 SA
BRANCH   3   5
HETATM    5  N1  UNL     1      21.298  40.712  92.303  1.00  0.00    -0.365 N 
ATOM      6  H1  UNL     1      22.302  40.783  92.137  1.00  0.00     0.161 HD
BRANCH   5   7
HETATM    7  C2  UNL     1      20.601  39.479  92.000  1.00  0.00     0.137 C 
BRANCH   7   8
HETATM    8  C3  UNL     1      20.908  39.092  90.567  1.00  0.00     0.134 C 
HETATM    9 CL1  UNL     1      19.696  39.867  89.527  1.00  0.00    -0.129 Cl
ENDBRANCH   7   8
ENDBRANCH   5   7
ENDBRANCH   3   5
ENDBRANCH   1   3
BRANCH   1  10
HETATM   10  N3  UNL     1      21.390  41.363  95.094  1.00  0.00    -0.307 N 
HETATM   11  C4  UNL     1      22.471  41.855  95.597  1.00  0.00     0.004 C 
HETATM   12  C5  UNL     1      22.887  43.219  95.266  1.00  0.00     0.054 C 
HETATM   13  C9  UNL     1      23.287  41.021  96.517  1.00  0.00     0.054 C 
HETATM   14  C6  UNL     1      24.375  43.345  95.041  1.00  0.00     0.006 C 
HETATM   15  C7  UNL     1      25.175  42.455  95.944  1.00  0.00     0.001 C 
HETATM   16  C8  UNL     1      24.708  41.029  95.948  1.00  0.00     0.006 C 
ATOM     17  H3  UNL     1      21.121  40.411  95.340  1.00  0.00     0.186 HD
ENDBRANCH   1  10
TORSDOF 5
ENDMDL
MODEL 2
REMARK VINA RESULT: -5.125031483      1.712      1.995
REMARK  5 active torsions:
REMARK  status: ('A' for Active; 'I' for Inactive)
REMARK    1  A    between atoms: C1_2  and  N1_3 
REMARK    2  A    between atoms: C1_2  and  N2_8 
REMARK    3  A    between atoms: N1_3  and  C2_5 
REMARK    4  A    between atoms: C2_5  and  C3_6 
REMARK    5  A    between atoms: N2_8  and  N3_10 
ROOT
HETATM    1  N2  UNL     1      20.510  40.295  93.230  1.00  0.00    -0.277 N 
ATOM      2  H2  UNL     1      19.586  40.594  93.543  1.00  0.00     0.189 HD
ENDROOT
BRANCH   1   3
HETATM    3  C1  UNL     1      20.748  40.088  91.848  1.00  0.00     0.186 C 
HETATM    4  S1  UNL     1      21.239  41.344  90.935  1.00  0.00    -0.040 SA
BRANCH   3   5
HETATM    5  N1  UNL     1      20.563  38.809  91.256  1.00  0.00    -0.365 N 
ATOM      6  H1  UNL     1      20.328  38.008  91.841  1.00  0.00     0.161 HD
BRANCH   5   7
HETATM    7  C2  UNL     1      20.708  38.641  89.824  1.00  0.00     0.137 C 
BRANCH   7   8
HETATM    8  C3  UNL     1      21.635  37.470  89.568  1.00  0.00     0.134 C 
HETATM    9 CL1  UNL     1      20.757  36.294  88.569  1.00  0.00    -0.129 Cl
ENDBRANCH   7   8
ENDBRANCH   5   7
ENDBRANCH   3   5
ENDBRANCH   1   3
BRANCH   1  10
HETATM   10  N3  UNL     1      21.524  40.096  94.165  1.00  0.00    -0.307 N 
HETATM   11  C4  UNL     1      22.115  41.076  94.757  1.00  0.00     0.004 C 
HETATM   12  C5  UNL     1      21.732  42.459  94.462  1.00  0.00     0.054 C 
HETATM   13  C9  UNL     1      23.189  40.787  95.742  1.00  0.00     0.054 C 
HETATM   14  C6  UNL     1      22.915  43.392  94.363  1.00  0.00     0.006 C 
HETATM   15  C7  UNL     1      24.007  43.048  95.330  1.00  0.00     0.001 C 
HETATM   16  C8  UNL     1      24.405  41.602  95.296  1.00  0.00     0.006 C 
ATOM     17  H3  UNL     1      21.808  39.143  94.387  1.00  0.00     0.186 HD
ENDBRANCH   1  10
TORSDOF 5
ENDMDL
MODEL 3
REMARK VINA RESULT: -5.096591728      2.581      3.278
REMARK  5 active torsions:
REMARK  status: ('A' for Active; 'I' for Inactive)
REMARK    1  A    between atoms: C1_2  and  N1_3 
REMARK    2  A    between atoms: C1_2  and  N2_8 
REMARK    3  A    between atoms: N1_3  and  C2_5 
REMARK    4  A    between atoms: C2_5  and  C3_6 
REMARK    5  A    between atoms: N2_8  and  N3_10 
ROOT
HETATM    1  N2  UNL     1      23.722  40.618  94.904  1.00  0.00    -0.277 N 
ATOM      2  H2  UNL     1      23.915  39.886  94.220  1.00  0.00     0.189 HD
ENDROOT
BRANCH   1   3
HETATM    3  C1  UNL     1      22.453  41.250  94.915  1.00  0.00     0.186 C 
HETATM    4  S1  UNL     1      22.329  42.759  95.513  1.00  0.00    -0.040 SA
BRANCH   3   5
HETATM    5  N1  UNL     1      21.299  40.587  94.415  1.00  0.00    -0.365 N 
ATOM      6  H1  UNL     1      20.734  40.012  95.039  1.00  0.00     0.161 HD
BRANCH   5   7
HETATM    7  C2  UNL     1      20.924  40.727  93.023  1.00  0.00     0.137 C 
BRANCH   7   8
HETATM    8  C3  UNL     1      20.258  39.442  92.573  1.00  0.00     0.134 C 
HETATM    9 CL1  UNL     1      20.913  39.025  90.977  1.00  0.00    -0.129 Cl
ENDBRANCH   7   8
ENDBRANCH   5   7
ENDBRANCH   3   5
ENDBRANCH   1   3
BRANCH   1  10
HETATM   10  N3  UNL     1      24.708  40.986  95.817  1.00  0.00    -0.307 N 
HETATM   11  C4  UNL     1      25.852  41.449  95.445  1.00  0.00     0.004 C 
HETATM   12  C5  UNL     1      26.157  41.608  94.021  1.00  0.00     0.054 C 
HETATM   13  C9  UNL     1      26.855  41.819  96.476  1.00  0.00     0.054 C 
HETATM   14  C6  UNL     1      27.568  41.200  93.670  1.00  0.00     0.006 C 
HETATM   15  C7  UNL     1      28.554  41.536  94.748  1.00  0.00     0.001 C 
HETATM   16  C8  UNL     1      28.137  41.066  96.111  1.00  0.00     0.006 C 
ATOM     17  H3  UNL     1      24.518  40.884  96.814  1.00  0.00     0.186 HD
ENDBRANCH   1  10
TORSDOF 5
ENDMDL
MODEL 4
REMARK VINA RESULT: -5.024626164      2.835      5.350
REMARK  5 active torsions:
REMARK  status: ('A' for Active; 'I' for Inactive)
REMARK    1  A    between atoms: C1_2  and  N1_3 
REMARK    2  A    between atoms: C1_2  and  N2_8 
REMARK    3  A    between atoms: N1_3  and  C2_5 
REMARK    4  A    between atoms: C2_5  and  C3_6 
REMARK    5  A    between atoms: N2_8  and  N3_10 
ROOT
HETATM    1  N2  UNL     1      21.127  41.324  95.068  1.00  0.00    -0.277 N 
ATOM      2  H2  UNL     1      20.241  41.481  95.549  1.00  0.00     0.189 HD
ENDROOT
BRANCH   1   3
HETATM    3  C1  UNL     1      22.327  41.829  95.631  1.00  0.00     0.186 C 
HETATM    4  S1  UNL     1      23.329  40.802  96.401  1.00  0.00    -0.040 SA
BRANCH   3   5
HETATM    5  N1  UNL     1      22.661  43.206  95.531  1.00  0.00    -0.365 N 
ATOM      6  H1  UNL     1      21.974  43.916  95.783  1.00  0.00     0.161 HD
BRANCH   5   7
HETATM    7  C2  UNL     1      23.976  43.606  95.071  1.00  0.00     0.137 C 
BRANCH   7   8
HETATM    8  C3  UNL     1      24.054  43.372  93.575  1.00  0.00     0.134 C 
HETATM    9 CL1  UNL     1      23.390  44.807  92.769  1.00  0.00    -0.129 Cl
ENDBRANCH   7   8
ENDBRANCH   5   7
ENDBRANCH   3   5
ENDBRANCH   1   3
BRANCH   1  10
HETATM   10  N3  UNL     1      21.146  40.618  93.868  1.00  0.00    -0.307 N 
HETATM   11  C4  UNL     1      20.882  41.177  92.737  1.00  0.00     0.004 C 
HETATM   12  C5  UNL     1      20.550  42.602  92.676  1.00  0.00     0.054 C 
HETATM   13  C9  UNL     1      20.920  40.359  91.497  1.00  0.00     0.054 C 
HETATM   14  C6  UNL     1      19.427  42.906  91.712  1.00  0.00     0.006 C 
HETATM   15  C7  UNL     1      19.456  42.032  90.494  1.00  0.00     0.001 C 
HETATM   16  C8  UNL     1      19.570  40.570  90.807  1.00  0.00     0.006 C 
ATOM     17  H3  UNL     1      21.375  39.624  93.885  1.00  0.00     0.186 HD
ENDBRANCH   1  10
TORSDOF 5
ENDMDL
MODEL 5
REMARK VINA RESULT: -4.994111253      3.515      6.299
REMARK  5 active torsions:
REMARK  status: ('A' for Active; 'I' for Inactive)
REMARK    1  A    between atoms: C1_2  and  N1_3 
REMARK    2  A    between atoms: C1_2  and  N2_8 
REMARK    3  A    between atoms: N1_3  and  C2_5 
REMARK    4  A    between atoms: C2_5  and  C3_6 
REMARK    5  A    between atoms: N2_8  and  N3_10 
ROOT
HETATM    1  N2  UNL     1      21.944  40.582  93.947  1.00  0.00    -0.277 N 
ATOM      2  H2  UNL     1      22.084  39.581  93.810  1.00  0.00     0.189 HD
ENDROOT
BRANCH   1   3
HETATM    3  C1  UNL     1      22.782  41.291  94.844  1.00  0.00     0.186 C 
HETATM    4  S1  UNL     1      22.182  42.586  95.627  1.00  0.00    -0.040 SA
BRANCH   3   5
HETATM    5  N1  UNL     1      24.127  40.888  95.066  1.00  0.00    -0.365 N 
ATOM      6  H1  UNL     1      24.558  40.197  94.452  1.00  0.00     0.161 HD
BRANCH   5   7
HETATM    7  C2  UNL     1      24.887  41.456  96.161  1.00  0.00     0.137 C 
BRANCH   7   8
HETATM    8  C3  UNL     1      26.362  41.261  95.874  1.00  0.00     0.134 C 
HETATM    9 CL1  UNL     1      27.272  41.933  97.242  1.00  0.00    -0.129 Cl
ENDBRANCH   7   8
ENDBRANCH   5   7
ENDBRANCH   3   5
ENDBRANCH   1   3
BRANCH   1  10
HETATM   10  N3  UNL     1      20.932  41.238  93.249  1.00  0.00    -0.307 N 
HETATM   11  C4  UNL     1      20.334  40.703  92.241  1.00  0.00     0.004 C 
HETATM   12  C5  UNL     1      20.705  39.361  91.787  1.00  0.00     0.054 C 
HETATM   13  C9  UNL     1      19.263  41.464  91.545  1.00  0.00     0.054 C 
HETATM   14  C6  UNL     1      20.751  39.237  90.283  1.00  0.00     0.006 C 
HETATM   15  C7  UNL     1      19.695  40.055  89.602  1.00  0.00     0.001 C 
HETATM   16  C8  UNL     1      19.649  41.481  90.064  1.00  0.00     0.006 C 
ATOM     17  H3  UNL     1      20.656  42.174  93.547  1.00  0.00     0.186 HD
ENDBRANCH   1  10
TORSDOF 5
ENDMDL
