MODEL 1
REMARK VINA RESULT: -7.109954533      0.000      0.000
REMARK  4 active torsions:
REMARK  status: ('A' for Active; 'I' for Inactive)
REMARK    1  A    between atoms: O1_2  and  C2_3 
REMARK    2  A    between atoms: C7_8  and  O2_9 
REMARK    3  A    between atoms: O2_9  and  C8_10 
REMARK    4  A    between atoms: C12_18  and  C13_19 
ROOT
HETATM    1  C2  UNL     1      -5.540  53.387  13.548  1.00  0.00     0.103 A 
HETATM    2  C3  UNL     1      -4.194  53.180  13.210  1.00  0.00     0.052 A 
HETATM    3  C4  UNL     1      -3.839  52.175  12.350  1.00  0.00     0.017 A 
HETATM    4  C5  UNL     1      -4.797  51.323  11.783  1.00  0.00     0.084 A 
HETATM    5  C6  UNL     1      -6.101  51.533  12.117  1.00  0.00     0.077 A 
HETATM    6  C7  UNL     1      -6.462  52.548  12.987  1.00  0.00     0.118 A 
HETATM    7  O5  UNL     1      -4.316  50.346  10.928  1.00  0.00    -0.314 OA
HETATM    8  C9  UNL     1      -3.160  50.623  10.122  1.00  0.00     0.164 C 
HETATM    9  C10 UNL     1      -3.560  50.832   8.676  1.00  0.00     0.079 C 
HETATM   10  C11 UNL     1      -2.289  49.404  10.192  1.00  0.00     0.079 C 
HETATM   11  O6  UNL     1      -2.506  51.783  10.532  1.00  0.00    -0.335 OA
HETATM   12  C12 UNL     1      -2.442  51.871  11.926  1.00  0.00     0.261 C 
ENDROOT
BRANCH   6  13
HETATM   13  O2  UNL     1      -7.797  52.754  13.323  1.00  0.00    -0.250 OA
BRANCH  13  14
HETATM   14  C8  UNL     1      -8.663  53.249  12.351  1.00  0.00     0.338 C 
HETATM   15  O3  UNL     1      -8.624  54.458  11.962  1.00  0.00    -0.623 OA
HETATM   16  O4  UNL     1      -9.609  52.405  11.775  1.00  0.00    -0.623 OA
ENDBRANCH  13  14
ENDBRANCH   6  13
BRANCH   1  17
HETATM   17  O1  UNL     1      -5.821  54.405  14.409  1.00  0.00    -0.353 OA
HETATM   18  C1  UNL     1      -5.997  55.744  14.105  1.00  0.00     0.210 C 
ENDBRANCH   1  17
BRANCH  12  19
HETATM   19  C13 UNL     1      -1.461  52.906  12.266  1.00  0.00     0.208 C 
HETATM   20  O7  UNL     1      -0.993  53.673  11.395  1.00  0.00    -0.646 OA
HETATM   21  O8  UNL     1      -1.030  53.051  13.573  1.00  0.00    -0.646 OA
ENDBRANCH  12  19
TORSDOF 4
ENDMDL
MODEL 2
REMARK VINA RESULT: -6.737837850      1.163      1.327
REMARK  4 active torsions:
REMARK  status: ('A' for Active; 'I' for Inactive)
REMARK    1  A    between atoms: O1_2  and  C2_3 
REMARK    2  A    between atoms: C7_8  and  O2_9 
REMARK    3  A    between atoms: O2_9  and  C8_10 
REMARK    4  A    between atoms: C12_18  and  C13_19 
ROOT
HETATM    1  C2  UNL     1      -5.723  54.275  13.241  1.00  0.00     0.103 A 
HETATM    2  C3  UNL     1      -4.419  53.782  13.088  1.00  0.00     0.052 A 
HETATM    3  C4  UNL     1      -4.206  52.493  12.678  1.00  0.00     0.017 A 
HETATM    4  C5  UNL     1      -5.273  51.627  12.400  1.00  0.00     0.084 A 
HETATM    5  C6  UNL     1      -6.535  52.116  12.552  1.00  0.00     0.077 A 
HETATM    6  C7  UNL     1      -6.752  53.418  12.967  1.00  0.00     0.118 A 
HETATM    7  O5  UNL     1      -4.931  50.348  11.992  1.00  0.00    -0.314 OA
HETATM    8  C9  UNL     1      -3.740  50.152  11.216  1.00  0.00     0.164 C 
HETATM    9  C10 UNL     1      -4.090  49.863   9.771  1.00  0.00     0.079 C 
HETATM   10  C11 UNL     1      -3.057  48.941  11.780  1.00  0.00     0.079 C 
HETATM   11  O6  UNL     1      -2.927  51.283  11.215  1.00  0.00    -0.335 OA
HETATM   12  C12 UNL     1      -2.865  51.871  12.483  1.00  0.00     0.261 C 
ENDROOT
BRANCH   6  13
HETATM   13  O2  UNL     1      -8.046  53.909  13.120  1.00  0.00    -0.250 OA
BRANCH  13  14
HETATM   14  C8  UNL     1      -8.526  54.831  12.192  1.00  0.00     0.338 C 
HETATM   15  O3  UNL     1      -8.534  54.591  10.943  1.00  0.00    -0.623 OA
HETATM   16  O4  UNL     1      -9.016  56.059  12.628  1.00  0.00    -0.623 OA
ENDBRANCH  13  14
ENDBRANCH   6  13
BRANCH   1  17
HETATM   17  O1  UNL     1      -5.860  55.567  13.653  1.00  0.00    -0.353 OA
HETATM   18  C1  UNL     1      -5.862  56.044  14.952  1.00  0.00     0.210 C 
ENDBRANCH   1  17
BRANCH  12  19
HETATM   19  C13 UNL     1      -1.746  52.818  12.484  1.00  0.00     0.208 C 
HETATM   20  O7  UNL     1      -1.431  53.458  11.456  1.00  0.00    -0.646 OA
HETATM   21  O8  UNL     1      -1.010  53.021  13.638  1.00  0.00    -0.646 OA
ENDBRANCH  12  19
TORSDOF 4
ENDMDL
MODEL 3
REMARK VINA RESULT: -6.494582510      1.589      2.413
REMARK  4 active torsions:
REMARK  status: ('A' for Active; 'I' for Inactive)
REMARK    1  A    between atoms: O1_2  and  C2_3 
REMARK    2  A    between atoms: C7_8  and  O2_9 
REMARK    3  A    between atoms: O2_9  and  C8_10 
REMARK    4  A    between atoms: C12_18  and  C13_19 
ROOT
HETATM    1  C2  UNL     1      -7.887  53.299  12.471  1.00  0.00     0.103 A 
HETATM    2  C3  UNL     1      -6.512  53.198  12.731  1.00  0.00     0.052 A 
HETATM    3  C4  UNL     1      -5.806  52.097  12.325  1.00  0.00     0.017 A 
HETATM    4  C5  UNL     1      -6.425  51.041  11.641  1.00  0.00     0.084 A 
HETATM    5  C6  UNL     1      -7.760  51.150  11.393  1.00  0.00     0.077 A 
HETATM    6  C7  UNL     1      -8.475  52.261  11.804  1.00  0.00     0.118 A 
HETATM    7  O5  UNL     1      -5.606  49.984  11.281  1.00  0.00    -0.314 OA
HETATM    8  C9  UNL     1      -4.235  50.240  10.940  1.00  0.00     0.164 C 
HETATM    9  C10 UNL     1      -4.029  50.116   9.445  1.00  0.00     0.079 C 
HETATM   10  C11 UNL     1      -3.421  49.173  11.612  1.00  0.00     0.079 C 
HETATM   11  O6  UNL     1      -3.843  51.528  11.296  1.00  0.00    -0.335 OA
HETATM   12  C12 UNL     1      -4.347  51.890  12.549  1.00  0.00     0.261 C 
ENDROOT
BRANCH   6  13
HETATM   13  O2  UNL     1      -9.840  52.363  11.547  1.00  0.00    -0.250 OA
BRANCH  13  14
HETATM   14  C8  UNL     1     -10.253  52.903  10.331  1.00  0.00     0.338 C 
HETATM   15  O3  UNL     1     -10.107  52.283   9.231  1.00  0.00    -0.623 OA
HETATM   16  O4  UNL     1     -10.845  54.162  10.301  1.00  0.00    -0.623 OA
ENDBRANCH  13  14
ENDBRANCH   6  13
BRANCH   1  17
HETATM   17  O1  UNL     1      -8.526  54.422  12.905  1.00  0.00    -0.353 OA
HETATM   18  C1  UNL     1      -8.428  55.702  12.388  1.00  0.00     0.210 C 
ENDBRANCH   1  17
BRANCH  12  19
HETATM   19  C13 UNL     1      -3.622  53.083  12.996  1.00  0.00     0.208 C 
HETATM   20  O7  UNL     1      -3.884  53.638  14.087  1.00  0.00    -0.646 OA
HETATM   21  O8  UNL     1      -2.621  53.624  12.207  1.00  0.00    -0.646 OA
ENDBRANCH  12  19
TORSDOF 4
ENDMDL
MODEL 4
REMARK VINA RESULT: -6.333725323      2.145      3.613
REMARK  4 active torsions:
REMARK  status: ('A' for Active; 'I' for Inactive)
REMARK    1  A    between atoms: O1_2  and  C2_3 
REMARK    2  A    between atoms: C7_8  and  O2_9 
REMARK    3  A    between atoms: O2_9  and  C8_10 
REMARK    4  A    between atoms: C12_18  and  C13_19 
ROOT
HETATM    1  C2  UNL     1      -5.069  52.836  13.011  1.00  0.00     0.103 A 
HETATM    2  C3  UNL     1      -4.771  51.610  12.398  1.00  0.00     0.052 A 
HETATM    3  C4  UNL     1      -5.749  50.897  11.756  1.00  0.00     0.017 A 
HETATM    4  C5  UNL     1      -7.070  51.362  11.689  1.00  0.00     0.084 A 
HETATM    5  C6  UNL     1      -7.348  52.554  12.287  1.00  0.00     0.077 A 
HETATM    6  C7  UNL     1      -6.361  53.275  12.937  1.00  0.00     0.118 A 
HETATM    7  O5  UNL     1      -7.968  50.554  11.012  1.00  0.00    -0.314 OA
HETATM    8  C9  UNL     1      -7.512  49.781   9.891  1.00  0.00     0.164 C 
HETATM    9  C10 UNL     1      -8.011  50.384   8.594  1.00  0.00     0.079 C 
HETATM   10  C11 UNL     1      -8.123  48.419  10.035  1.00  0.00     0.079 C 
HETATM   11  O6  UNL     1      -6.122  49.749   9.812  1.00  0.00    -0.335 OA
HETATM   12  C12 UNL     1      -5.541  49.588  11.074  1.00  0.00     0.261 C 
ENDROOT
BRANCH   6  13
HETATM   13  O2  UNL     1      -6.655  54.493  13.546  1.00  0.00    -0.250 OA
BRANCH  13  14
HETATM   14  C8  UNL     1      -7.634  55.305  12.979  1.00  0.00     0.338 C 
HETATM   15  O3  UNL     1      -7.494  55.831  11.830  1.00  0.00    -0.623 OA
HETATM   16  O4  UNL     1      -8.811  55.558  13.679  1.00  0.00    -0.623 OA
ENDBRANCH  13  14
ENDBRANCH   6  13
BRANCH   1  17
HETATM   17  O1  UNL     1      -4.047  53.490  13.632  1.00  0.00    -0.353 OA
HETATM   18  C1  UNL     1      -2.804  53.805  13.110  1.00  0.00     0.210 C 
ENDBRANCH   1  17
BRANCH  12  19
HETATM   19  C13 UNL     1      -4.136  49.218  10.877  1.00  0.00     0.208 C 
HETATM   20  O7  UNL     1      -3.564  48.399  11.630  1.00  0.00    -0.646 OA
HETATM   21  O8  UNL     1      -3.411  49.778   9.839  1.00  0.00    -0.646 OA
ENDBRANCH  12  19
TORSDOF 4
ENDMDL
MODEL 5
REMARK VINA RESULT: -6.184359940      1.938      3.097
REMARK  4 active torsions:
REMARK  status: ('A' for Active; 'I' for Inactive)
REMARK    1  A    between atoms: O1_2  and  C2_3 
REMARK    2  A    between atoms: C7_8  and  O2_9 
REMARK    3  A    between atoms: O2_9  and  C8_10 
REMARK    4  A    between atoms: C12_18  and  C13_19 
ROOT
HETATM    1  C2  UNL     1      -8.250  53.969  11.498  1.00  0.00     0.103 A 
HETATM    2  C3  UNL     1      -7.073  53.773  12.235  1.00  0.00     0.052 A 
HETATM    3  C4  UNL     1      -6.265  52.697  11.981  1.00  0.00     0.017 A 
HETATM    4  C5  UNL     1      -6.580  51.762  10.985  1.00  0.00     0.084 A 
HETATM    5  C6  UNL     1      -7.725  51.963  10.275  1.00  0.00     0.077 A 
HETATM    6  C7  UNL     1      -8.544  53.049  10.531  1.00  0.00     0.118 A 
HETATM    7  O5  UNL     1      -5.685  50.719  10.822  1.00  0.00    -0.314 OA
HETATM    8  C9  UNL     1      -4.286  50.948  11.052  1.00  0.00     0.164 C 
HETATM    9  C10 UNL     1      -3.534  50.997   9.739  1.00  0.00     0.079 C 
HETATM   10  C11 UNL     1      -3.783  49.771  11.834  1.00  0.00     0.079 C 
HETATM   11  O6  UNL     1      -4.058  52.164  11.693  1.00  0.00    -0.335 OA
HETATM   12  C12 UNL     1      -4.996  52.395  12.704  1.00  0.00     0.261 C 
ENDROOT
BRANCH   6  13
HETATM   13  O2  UNL     1      -9.712  53.246   9.799  1.00  0.00    -0.250 OA
BRANCH  13  14
HETATM   14  C8  UNL     1     -10.792  52.396  10.022  1.00  0.00     0.338 C 
HETATM   15  O3  UNL     1     -11.360  52.306  11.156  1.00  0.00    -0.623 OA
HETATM   16  O4  UNL     1     -11.279  51.610   8.981  1.00  0.00    -0.623 OA
ENDBRANCH  13  14
ENDBRANCH   6  13
BRANCH   1  17
HETATM   17  O1  UNL     1      -9.007  55.061  11.805  1.00  0.00    -0.353 OA
HETATM   18  C1  UNL     1      -8.864  56.351  11.323  1.00  0.00     0.210 C 
ENDBRANCH   1  17
BRANCH  12  19
HETATM   19  C13 UNL     1      -4.493  53.490  13.540  1.00  0.00     0.208 C 
HETATM   20  O7  UNL     1      -4.741  53.543  14.765  1.00  0.00    -0.646 OA
HETATM   21  O8  UNL     1      -3.727  54.496  12.978  1.00  0.00    -0.646 OA
ENDBRANCH  12  19
TORSDOF 4
ENDMDL
