MODEL 1
REMARK VINA RESULT: -5.892597058      0.000      0.000
REMARK  3 active torsions:
REMARK  status: ('A' for Active; 'I' for Inactive)
REMARK    1  A    between atoms: C3_5  and  N2_6 
REMARK    2  A    between atoms: C6_9  and  N3_10 
REMARK    3  A    between atoms: C7_13  and  C8_14 
ROOT
HETATM    1  C1  UNL     1      -4.274  49.134  10.601  1.00  0.00     0.069 C 
HETATM    2  C2  UNL     1      -4.330  50.476  11.274  1.00  0.00     0.016 A 
HETATM    3  N1  UNL     1      -5.419  50.880  11.974  1.00  0.00    -0.344 N 
ATOM      4  H1  UNL     1      -6.286  50.349  12.058  1.00  0.00     0.167 HD
HETATM    5  C3  UNL     1      -5.198  52.073  12.540  1.00  0.00     0.137 A 
HETATM    6  C6  UNL     1      -3.899  52.420  12.160  1.00  0.00     0.155 A 
HETATM    7  C7  UNL     1      -3.335  51.417  11.364  1.00  0.00     0.008 A 
ENDROOT
BRANCH   7   8
HETATM    8  C8  UNL     1      -2.084  51.271  10.645  1.00  0.00     0.069 C 
HETATM    9  C9  UNL     1      -0.909  51.116  11.666  1.00  0.00     0.243 C 
HETATM   10  N4  UNL     1       0.188  51.145  10.702  1.00  0.00    -0.073 N 
HETATM   11  C10 UNL     1      -0.087  52.439  10.075  1.00  0.00     0.253 C 
ATOM     12  H42 UNL     1       1.126  51.019  11.083  1.00  0.00     0.277 HD
ATOM     13  H41 UNL     1       0.255  50.345  10.073  1.00  0.00     0.277 HD
HETATM   14  C11 UNL     1      -1.600  52.415   9.820  1.00  0.00     0.118 C 
HETATM   15 CL1  UNL     1      -1.766  52.096   8.072  1.00  0.00    -0.122 Cl
ENDBRANCH   7   8
BRANCH   6  16
HETATM   16  N3  UNL     1      -3.334  53.671  12.416  1.00  0.00    -0.111 N 
HETATM   17  O1  UNL     1      -3.641  54.763  11.960  1.00  0.00    -0.532 OA
HETATM   18  O2  UNL     1      -2.273  53.682  13.345  1.00  0.00    -0.532 OA
ENDBRANCH   6  16
BRANCH   5  19
HETATM   19  N2  UNL     1      -6.133  52.772  13.340  1.00  0.00    -0.374 N 
HETATM   20  C4  UNL     1      -7.486  53.113  12.840  1.00  0.00     0.150 C 
HETATM   21  C5  UNL     1      -5.915  53.223  14.689  1.00  0.00     0.150 C 
ENDBRANCH   5  19
TORSDOF 3
ENDMDL
MODEL 2
REMARK VINA RESULT: -5.628601201      3.663      5.115
REMARK  3 active torsions:
REMARK  status: ('A' for Active; 'I' for Inactive)
REMARK    1  A    between atoms: C3_5  and  N2_6 
REMARK    2  A    between atoms: C6_9  and  N3_10 
REMARK    3  A    between atoms: C7_13  and  C8_14 
ROOT
HETATM    1  C1  UNL     1      -7.642  50.830  10.822  1.00  0.00     0.069 C 
HETATM    2  C2  UNL     1      -7.929  52.270  11.140  1.00  0.00     0.016 A 
HETATM    3  N1  UNL     1      -8.873  52.977  10.469  1.00  0.00    -0.344 N 
ATOM      4  H1  UNL     1      -9.413  52.622   9.681  1.00  0.00     0.167 HD
HETATM    5  C3  UNL     1      -8.994  54.206  10.986  1.00  0.00     0.137 A 
HETATM    6  C6  UNL     1      -8.068  54.255  12.029  1.00  0.00     0.155 A 
HETATM    7  C7  UNL     1      -7.391  53.036  12.144  1.00  0.00     0.008 A 
ENDROOT
BRANCH   7   8
HETATM    8  C8  UNL     1      -6.304  52.549  12.972  1.00  0.00     0.069 C 
HETATM    9  C9  UNL     1      -6.246  53.376  14.299  1.00  0.00     0.243 C 
HETATM   10  N4  UNL     1      -5.019  52.793  14.834  1.00  0.00    -0.073 N 
HETATM   11  C10 UNL     1      -4.112  53.100  13.726  1.00  0.00     0.253 C 
ATOM     12  H42 UNL     1      -4.730  53.121  15.757  1.00  0.00     0.277 HD
ATOM     13  H41 UNL     1      -5.071  51.814  15.116  1.00  0.00     0.277 HD
HETATM   14  C11 UNL     1      -4.907  52.703  12.475  1.00  0.00     0.118 C 
HETATM   15 CL1  UNL     1      -4.204  51.146  11.960  1.00  0.00    -0.122 Cl
ENDBRANCH   7   8
BRANCH   6  16
HETATM   16  N3  UNL     1      -7.767  55.423  12.733  1.00  0.00    -0.111 N 
HETATM   17  O1  UNL     1      -6.816  56.180  12.600  1.00  0.00    -0.532 OA
HETATM   18  O2  UNL     1      -8.698  55.794  13.725  1.00  0.00    -0.532 OA
ENDBRANCH   6  16
BRANCH   5  19
HETATM   19  N2  UNL     1      -9.893  55.193  10.515  1.00  0.00    -0.374 N 
HETATM   20  C4  UNL     1     -11.299  54.869  10.174  1.00  0.00     0.150 C 
HETATM   21  C5  UNL     1      -9.585  56.584  10.317  1.00  0.00     0.150 C 
ENDBRANCH   5  19
TORSDOF 3
ENDMDL
MODEL 3
REMARK VINA RESULT: -5.593001273      2.124      2.494
REMARK  3 active torsions:
REMARK  status: ('A' for Active; 'I' for Inactive)
REMARK    1  A    between atoms: C3_5  and  N2_6 
REMARK    2  A    between atoms: C6_9  and  N3_10 
REMARK    3  A    between atoms: C7_13  and  C8_14 
ROOT
HETATM    1  C1  UNL     1      -5.413  51.311   9.287  1.00  0.00     0.069 C 
HETATM    2  C2  UNL     1      -5.358  52.340  10.380  1.00  0.00     0.016 A 
HETATM    3  N1  UNL     1      -6.306  53.303  10.503  1.00  0.00    -0.344 N 
ATOM      4  H1  UNL     1      -7.082  53.441   9.856  1.00  0.00     0.167 HD
HETATM    5  C3  UNL     1      -6.080  54.047  11.593  1.00  0.00     0.137 A 
HETATM    6  C6  UNL     1      -4.924  53.512  12.166  1.00  0.00     0.155 A 
HETATM    7  C7  UNL     1      -4.459  52.427  11.414  1.00  0.00     0.008 A 
ENDROOT
BRANCH   7   8
HETATM    8  C8  UNL     1      -3.298  51.561  11.485  1.00  0.00     0.069 C 
HETATM    9  C9  UNL     1      -3.402  50.653  12.755  1.00  0.00     0.243 C 
HETATM   10  N4  UNL     1      -2.084  50.031  12.653  1.00  0.00    -0.073 N 
HETATM   11  C10 UNL     1      -1.255  51.237  12.666  1.00  0.00     0.253 C 
ATOM     12  H42 UNL     1      -1.864  49.325  13.356  1.00  0.00     0.277 HD
ATOM     13  H41 UNL     1      -1.945  49.398  11.865  1.00  0.00     0.277 HD
HETATM   14  C11 UNL     1      -1.958  52.183  11.684  1.00  0.00     0.118 C 
HETATM   15 CL1  UNL     1      -0.967  52.123  10.201  1.00  0.00    -0.122 Cl
ENDBRANCH   7   8
BRANCH   6  16
HETATM   16  N3  UNL     1      -4.259  54.100  13.243  1.00  0.00    -0.111 N 
HETATM   17  O1  UNL     1      -4.247  53.763  14.418  1.00  0.00    -0.532 OA
HETATM   18  O2  UNL     1      -3.475  55.231  12.932  1.00  0.00    -0.532 OA
ENDBRANCH   6  16
BRANCH   5  19
HETATM   19  N2  UNL     1      -6.886  55.134  12.008  1.00  0.00    -0.374 N 
HETATM   20  C4  UNL     1      -7.507  56.062  11.034  1.00  0.00     0.150 C 
HETATM   21  C5  UNL     1      -7.206  55.471  13.370  1.00  0.00     0.150 C 
ENDBRANCH   5  19
TORSDOF 3
ENDMDL
MODEL 4
REMARK VINA RESULT: -5.574150895      0.873      1.149
REMARK  3 active torsions:
REMARK  status: ('A' for Active; 'I' for Inactive)
REMARK    1  A    between atoms: C3_5  and  N2_6 
REMARK    2  A    between atoms: C6_9  and  N3_10 
REMARK    3  A    between atoms: C7_13  and  C8_14 
ROOT
HETATM    1  C1  UNL     1      -3.943  49.485   9.571  1.00  0.00     0.069 C 
HETATM    2  C2  UNL     1      -3.834  50.633  10.534  1.00  0.00     0.016 A 
HETATM    3  N1  UNL     1      -4.861  50.984  11.348  1.00  0.00    -0.344 N 
ATOM      4  H1  UNL     1      -5.783  50.548  11.340  1.00  0.00     0.167 HD
HETATM    5  C3  UNL     1      -4.495  51.981  12.163  1.00  0.00     0.137 A 
HETATM    6  C6  UNL     1      -3.169  52.259  11.824  1.00  0.00     0.155 A 
HETATM    7  C7  UNL     1      -2.734  51.410  10.800  1.00  0.00     0.008 A 
ENDROOT
BRANCH   7   8
HETATM    8  C8  UNL     1      -1.516  51.295  10.021  1.00  0.00     0.069 C 
HETATM    9  C9  UNL     1      -0.347  50.822  10.947  1.00  0.00     0.243 C 
HETATM   10  N4  UNL     1       0.732  50.942   9.969  1.00  0.00    -0.073 N 
HETATM   11  C10 UNL     1       0.580  52.357   9.626  1.00  0.00     0.253 C 
ATOM     12  H42 UNL     1       1.658  50.651  10.283  1.00  0.00     0.277 HD
ATOM     13  H41 UNL     1       0.707  50.284   9.190  1.00  0.00     0.277 HD
HETATM   14  C11 UNL     1      -0.932  52.531   9.427  1.00  0.00     0.118 C 
HETATM   15 CL1  UNL     1      -1.157  52.594   7.658  1.00  0.00    -0.122 Cl
ENDBRANCH   7   8
BRANCH   6  16
HETATM   16  N3  UNL     1      -2.458  53.346  12.338  1.00  0.00    -0.111 N 
HETATM   17  O1  UNL     1      -1.448  53.349  13.027  1.00  0.00    -0.532 OA
HETATM   18  O2  UNL     1      -2.963  54.619  12.002  1.00  0.00    -0.532 OA
ENDBRANCH   6  16
BRANCH   5  19
HETATM   19  N2  UNL     1      -5.334  52.577  13.134  1.00  0.00    -0.374 N 
HETATM   20  C4  UNL     1      -6.765  52.854  12.865  1.00  0.00     0.150 C 
HETATM   21  C5  UNL     1      -4.936  52.973  14.459  1.00  0.00     0.150 C 
ENDBRANCH   5  19
TORSDOF 3
ENDMDL
MODEL 5
REMARK VINA RESULT: -5.545768039      1.857      2.138
REMARK  3 active torsions:
REMARK  status: ('A' for Active; 'I' for Inactive)
REMARK    1  A    between atoms: C3_5  and  N2_6 
REMARK    2  A    between atoms: C6_9  and  N3_10 
REMARK    3  A    between atoms: C7_13  and  C8_14 
ROOT
HETATM    1  C1  UNL     1      -6.534  50.222  10.468  1.00  0.00     0.069 C 
HETATM    2  C2  UNL     1      -6.013  51.490  11.082  1.00  0.00     0.016 A 
HETATM    3  N1  UNL     1      -6.809  52.573  11.269  1.00  0.00    -0.344 N 
ATOM      4  H1  UNL     1      -7.782  52.637  10.970  1.00  0.00     0.167 HD
HETATM    5  C3  UNL     1      -6.139  53.545  11.901  1.00  0.00     0.137 A 
HETATM    6  C6  UNL     1      -4.858  53.028  12.107  1.00  0.00     0.155 A 
HETATM    7  C7  UNL     1      -4.765  51.726  11.601  1.00  0.00     0.008 A 
ENDROOT
BRANCH   7   8
HETATM    8  C8  UNL     1      -3.692  50.759  11.471  1.00  0.00     0.069 C 
HETATM    9  C9  UNL     1      -3.131  50.407  12.888  1.00  0.00     0.243 C 
HETATM   10  N4  UNL     1      -2.015  49.573  12.450  1.00  0.00    -0.073 N 
HETATM   11  C10 UNL     1      -1.323  50.539  11.594  1.00  0.00     0.253 C 
ATOM     12  H42 UNL     1      -1.456  49.144  13.188  1.00  0.00     0.277 HD
ATOM     13  H41 UNL     1      -2.261  48.683  12.017  1.00  0.00     0.277 HD
HETATM   14  C11 UNL     1      -2.448  51.168  10.761  1.00  0.00     0.118 C 
HETATM   15 CL1  UNL     1      -2.311  50.403   9.154  1.00  0.00    -0.122 Cl
ENDBRANCH   7   8
BRANCH   6  16
HETATM   16  N3  UNL     1      -3.796  53.787  12.603  1.00  0.00    -0.111 N 
HETATM   17  O1  UNL     1      -3.018  54.511  11.998  1.00  0.00    -0.532 OA
HETATM   18  O2  UNL     1      -3.602  53.726  13.998  1.00  0.00    -0.532 OA
ENDBRANCH   6  16
BRANCH   5  19
HETATM   19  N2  UNL     1      -6.683  54.805  12.248  1.00  0.00    -0.374 N 
HETATM   20  C4  UNL     1      -7.403  55.642  11.260  1.00  0.00     0.150 C 
HETATM   21  C5  UNL     1      -6.621  55.417  13.548  1.00  0.00     0.150 C 
ENDBRANCH   5  19
TORSDOF 3
ENDMDL
