MODEL 1
REMARK VINA RESULT: -7.891552182      0.000      0.000
REMARK  8 active torsions:
REMARK  status: ('A' for Active; 'I' for Inactive)
REMARK    1  A    between atoms: O1_2  and  C2_3 
REMARK    2  A    between atoms: C4_5  and  C5_6 
REMARK    3  A    between atoms: C5_6  and  C6_8 
REMARK    4  A    between atoms: C6_8  and  S1_9 
REMARK    5  A    between atoms: S1_9  and  C7_10 
REMARK    6  A    between atoms: C8_13  and  C9_14 
REMARK    7  A    between atoms: C15_25  and  O3_26 
REMARK    8  A    between atoms: C17_28  and  O4_29 
ROOT
HETATM    1  C6  UNL     1       3.967 -37.930  -4.333  1.00  0.00     0.161 C 
ENDROOT
BRANCH   1   2
HETATM    2  C5  UNL     1       3.790 -36.463  -4.374  1.00  0.00     0.169 C 
HETATM    3  O2  UNL     1       3.927 -35.819  -3.308  1.00  0.00    -0.291 OA
BRANCH   2   4
HETATM    4  C4  UNL     1       3.467 -35.831  -5.639  1.00  0.00     0.016 A 
HETATM    5  C3  UNL     1       2.761 -34.649  -5.677  1.00  0.00     0.055 A 
HETATM    6  C2  UNL     1       2.443 -34.040  -6.876  1.00  0.00     0.105 A 
HETATM    7  C17 UNL     1       2.823 -34.596  -8.056  1.00  0.00     0.135 A 
HETATM    8  C15 UNL     1       3.545 -35.800  -8.033  1.00  0.00     0.105 A 
HETATM    9  C14 UNL     1       3.864 -36.412  -6.844  1.00  0.00     0.055 A 
BRANCH   6  10
HETATM   10  O1  UNL     1       1.724 -32.841  -6.877  1.00  0.00    -0.353 OA
HETATM   11  C1  UNL     1       2.303 -31.577  -6.772  1.00  0.00     0.210 C 
ENDBRANCH   6  10
BRANCH   7  12
HETATM   12  O4  UNL     1       2.507 -33.988  -9.271  1.00  0.00    -0.351 OA
HETATM   13  C18 UNL     1       1.336 -34.236  -9.989  1.00  0.00     0.210 C 
ENDBRANCH   7  12
BRANCH   8  14
HETATM   14  O3  UNL     1       3.887 -36.290  -9.263  1.00  0.00    -0.353 OA
HETATM   15  C16 UNL     1       5.004 -35.912  -9.974  1.00  0.00     0.210 C 
ENDBRANCH   8  14
ENDBRANCH   2   4
ENDBRANCH   1   2
BRANCH   1  16
HETATM   16  S1  UNL     1       4.657 -38.521  -2.786  1.00  0.00    -0.111 SA
BRANCH  16  17
HETATM   17  C7  UNL     1       5.752 -39.912  -3.132  1.00  0.00     0.358 C 
HETATM   18  N1  UNL     1       6.786 -40.032  -2.092  1.00  0.00    -0.102 NA
HETATM   19  N2  UNL     1       7.687 -39.025  -2.506  1.00  0.00    -0.106 NA
HETATM   20  C8  UNL     1       7.817 -39.335  -3.921  1.00  0.00     0.338 C 
HETATM   21  N3  UNL     1       6.489 -39.698  -4.364  1.00  0.00    -0.023 N 
ATOM     22  H32 UNL     1       6.464 -40.487  -5.009  1.00  0.00     0.282 HD
ATOM     23  H31 UNL     1       6.059 -39.023  -4.996  1.00  0.00     0.282 HD
BRANCH  20  24
HETATM   24  C9  UNL     1       8.276 -38.050  -4.574  1.00  0.00     0.048 A 
HETATM   25  S2  UNL     1       7.367 -36.915  -5.471  1.00  0.00    -0.095 SA
HETATM   26  C10 UNL     1       8.603 -35.798  -5.830  1.00  0.00    -0.019 A 
HETATM   27  C11 UNL     1       8.515 -34.516  -6.613  1.00  0.00     0.056 C 
HETATM   28  C12 UNL     1       9.700 -36.352  -5.231  1.00  0.00     0.034 A 
HETATM   29  C13 UNL     1       9.535 -37.510  -4.584  1.00  0.00     0.028 A 
HETATM   30 BR1  UNL     1      10.978 -38.446  -3.672  1.00  0.00    -0.050 Br
ENDBRANCH  20  24
ENDBRANCH  16  17
ENDBRANCH   1  16
TORSDOF 8
ENDMDL
MODEL 2
REMARK VINA RESULT: -7.866840994      0.040      2.241
REMARK  8 active torsions:
REMARK  status: ('A' for Active; 'I' for Inactive)
REMARK    1  A    between atoms: O1_2  and  C2_3 
REMARK    2  A    between atoms: C4_5  and  C5_6 
REMARK    3  A    between atoms: C5_6  and  C6_8 
REMARK    4  A    between atoms: C6_8  and  S1_9 
REMARK    5  A    between atoms: S1_9  and  C7_10 
REMARK    6  A    between atoms: C8_13  and  C9_14 
REMARK    7  A    between atoms: C15_25  and  O3_26 
REMARK    8  A    between atoms: C17_28  and  O4_29 
ROOT
HETATM    1  C6  UNL     1       4.016 -37.921  -4.385  1.00  0.00     0.161 C 
ENDROOT
BRANCH   1   2
HETATM    2  C5  UNL     1       3.821 -36.456  -4.397  1.00  0.00     0.169 C 
HETATM    3  O2  UNL     1       3.971 -35.829  -3.322  1.00  0.00    -0.291 OA
BRANCH   2   4
HETATM    4  C4  UNL     1       3.467 -35.805  -5.644  1.00  0.00     0.016 A 
HETATM    5  C3  UNL     1       3.828 -36.355  -6.853  1.00  0.00     0.055 A 
HETATM    6  C2  UNL     1       3.501 -35.743  -8.048  1.00  0.00     0.105 A 
HETATM    7  C17 UNL     1       2.810 -34.574  -8.058  1.00  0.00     0.135 A 
HETATM    8  C15 UNL     1       2.434 -34.000  -6.833  1.00  0.00     0.105 A 
HETATM    9  C14 UNL     1       2.756 -34.604  -5.640  1.00  0.00     0.055 A 
BRANCH   6  10
HETATM   10  O1  UNL     1       3.884 -36.330  -9.257  1.00  0.00    -0.353 OA
HETATM   11  C1  UNL     1       4.995 -35.940 -10.004  1.00  0.00     0.210 C 
ENDBRANCH   6  10
BRANCH   7  12
HETATM   12  O4  UNL     1       2.476 -33.948  -9.259  1.00  0.00    -0.351 OA
HETATM   13  C18 UNL     1       1.335 -34.245 -10.007  1.00  0.00     0.210 C 
ENDBRANCH   7  12
BRANCH   8  14
HETATM   14  O3  UNL     1       1.742 -32.826  -6.934  1.00  0.00    -0.353 OA
HETATM   15  C16 UNL     1       2.288 -31.575  -6.748  1.00  0.00     0.210 C 
ENDBRANCH   8  14
ENDBRANCH   2   4
ENDBRANCH   1   2
BRANCH   1  16
HETATM   16  S1  UNL     1       4.653 -38.544  -2.828  1.00  0.00    -0.111 SA
BRANCH  16  17
HETATM   17  C7  UNL     1       5.758 -39.929  -3.164  1.00  0.00     0.358 C 
HETATM   18  N1  UNL     1       6.783 -40.044  -2.113  1.00  0.00    -0.102 NA
HETATM   19  N2  UNL     1       7.682 -39.033  -2.519  1.00  0.00    -0.106 NA
HETATM   20  C8  UNL     1       7.826 -39.342  -3.933  1.00  0.00     0.338 C 
HETATM   21  N3  UNL     1       6.504 -39.711  -4.388  1.00  0.00    -0.023 N 
ATOM     22  H32 UNL     1       6.489 -40.500  -5.034  1.00  0.00     0.282 HD
ATOM     23  H31 UNL     1       6.078 -39.038  -5.025  1.00  0.00     0.282 HD
BRANCH  20  24
HETATM   24  C9  UNL     1       8.285 -38.054  -4.581  1.00  0.00     0.048 A 
HETATM   25  S2  UNL     1       7.378 -36.921  -5.483  1.00  0.00    -0.095 SA
HETATM   26  C10 UNL     1       8.613 -35.800  -5.832  1.00  0.00    -0.019 A 
HETATM   27  C11 UNL     1       8.526 -34.517  -6.614  1.00  0.00     0.056 C 
HETATM   28  C12 UNL     1       9.708 -36.351  -5.228  1.00  0.00     0.034 A 
HETATM   29  C13 UNL     1       9.543 -37.510  -4.583  1.00  0.00     0.028 A 
HETATM   30 BR1  UNL     1      10.983 -38.442  -3.663  1.00  0.00    -0.050 Br
ENDBRANCH  20  24
ENDBRANCH  16  17
ENDBRANCH   1  16
TORSDOF 8
ENDMDL
MODEL 3
REMARK VINA RESULT: -7.209239228      3.987      7.571
REMARK  8 active torsions:
REMARK  status: ('A' for Active; 'I' for Inactive)
REMARK    1  A    between atoms: O1_2  and  C2_3 
REMARK    2  A    between atoms: C4_5  and  C5_6 
REMARK    3  A    between atoms: C5_6  and  C6_8 
REMARK    4  A    between atoms: C6_8  and  S1_9 
REMARK    5  A    between atoms: S1_9  and  C7_10 
REMARK    6  A    between atoms: C8_13  and  C9_14 
REMARK    7  A    between atoms: C15_25  and  O3_26 
REMARK    8  A    between atoms: C17_28  and  O4_29 
ROOT
HETATM    1  C6  UNL     1       5.526 -36.370  -6.676  1.00  0.00     0.161 C 
ENDROOT
BRANCH   1   2
HETATM    2  C5  UNL     1       6.925 -36.238  -6.215  1.00  0.00     0.169 C 
HETATM    3  O2  UNL     1       7.587 -35.250  -6.609  1.00  0.00    -0.291 OA
BRANCH   2   4
HETATM    4  C4  UNL     1       7.471 -37.250  -5.331  1.00  0.00     0.016 A 
HETATM    5  C3  UNL     1       8.698 -37.074  -4.731  1.00  0.00     0.055 A 
HETATM    6  C2  UNL     1       9.232 -38.032  -3.891  1.00  0.00     0.105 A 
HETATM    7  C17 UNL     1       8.553 -39.180  -3.634  1.00  0.00     0.135 A 
HETATM    8  C15 UNL     1       7.300 -39.374  -4.238  1.00  0.00     0.105 A 
HETATM    9  C14 UNL     1       6.763 -38.425  -5.075  1.00  0.00     0.055 A 
BRANCH   6  10
HETATM   10  O1  UNL     1      10.480 -37.821  -3.299  1.00  0.00    -0.353 OA
HETATM   11  C1  UNL     1      11.632 -38.538  -3.616  1.00  0.00     0.210 C 
ENDBRANCH   6  10
BRANCH   7  12
HETATM   12  O4  UNL     1       9.083 -40.154  -2.787  1.00  0.00    -0.351 OA
HETATM   13  C18 UNL     1       8.847 -40.211  -1.413  1.00  0.00     0.210 C 
ENDBRANCH   7  12
BRANCH   8  14
HETATM   14  O3  UNL     1       6.686 -40.555  -3.925  1.00  0.00    -0.353 OA
HETATM   15  C16 UNL     1       5.437 -40.931  -4.369  1.00  0.00     0.210 C 
ENDBRANCH   8  14
ENDBRANCH   2   4
ENDBRANCH   1   2
BRANCH   1  16
HETATM   16  S1  UNL     1       4.730 -34.796  -7.000  1.00  0.00    -0.111 SA
BRANCH  16  17
HETATM   17  C7  UNL     1       2.948 -35.055  -7.099  1.00  0.00     0.358 C 
HETATM   18  N1  UNL     1       2.235 -34.109  -6.226  1.00  0.00    -0.102 NA
HETATM   19  N2  UNL     1       2.408 -34.736  -4.971  1.00  0.00    -0.106 NA
HETATM   20  C8  UNL     1       2.028 -36.104  -5.291  1.00  0.00     0.338 C 
HETATM   21  N3  UNL     1       2.587 -36.367  -6.598  1.00  0.00    -0.023 N 
ATOM     22  H32 UNL     1       1.972 -36.897  -7.216  1.00  0.00     0.282 HD
ATOM     23  H31 UNL     1       3.352 -37.041  -6.598  1.00  0.00     0.282 HD
BRANCH  20  24
HETATM   24  C9  UNL     1       2.688 -36.961  -4.233  1.00  0.00     0.048 A 
HETATM   25  S2  UNL     1       4.038 -36.605  -3.248  1.00  0.00    -0.095 SA
HETATM   26  C10 UNL     1       4.120 -38.058  -2.362  1.00  0.00    -0.019 A 
HETATM   27  C11 UNL     1       5.095 -38.450  -1.285  1.00  0.00     0.056 C 
HETATM   28  C12 UNL     1       3.079 -38.785  -2.868  1.00  0.00     0.034 A 
HETATM   29  C13 UNL     1       2.341 -38.224  -3.831  1.00  0.00     0.028 A 
HETATM   30 BR1  UNL     1       0.822 -39.105  -4.671  1.00  0.00    -0.050 Br
ENDBRANCH  20  24
ENDBRANCH  16  17
ENDBRANCH   1  16
TORSDOF 8
ENDMDL
MODEL 4
REMARK VINA RESULT: -7.170416511      1.572      2.260
REMARK  8 active torsions:
REMARK  status: ('A' for Active; 'I' for Inactive)
REMARK    1  A    between atoms: O1_2  and  C2_3 
REMARK    2  A    between atoms: C4_5  and  C5_6 
REMARK    3  A    between atoms: C5_6  and  C6_8 
REMARK    4  A    between atoms: C6_8  and  S1_9 
REMARK    5  A    between atoms: S1_9  and  C7_10 
REMARK    6  A    between atoms: C8_13  and  C9_14 
REMARK    7  A    between atoms: C15_25  and  O3_26 
REMARK    8  A    between atoms: C17_28  and  O4_29 
ROOT
HETATM    1  C6  UNL     1       2.997 -37.850  -3.755  1.00  0.00     0.161 C 
ENDROOT
BRANCH   1   2
HETATM    2  C5  UNL     1       2.705 -36.491  -4.259  1.00  0.00     0.169 C 
HETATM    3  O2  UNL     1       1.992 -35.739  -3.555  1.00  0.00    -0.291 OA
BRANCH   2   4
HETATM    4  C4  UNL     1       3.252 -36.085  -5.540  1.00  0.00     0.016 A 
HETATM    5  C3  UNL     1       2.426 -35.843  -6.614  1.00  0.00     0.055 A 
HETATM    6  C2  UNL     1       2.935 -35.460  -7.841  1.00  0.00     0.105 A 
HETATM    7  C17 UNL     1       4.274 -35.312  -8.017  1.00  0.00     0.135 A 
HETATM    8  C15 UNL     1       5.129 -35.555  -6.930  1.00  0.00     0.105 A 
HETATM    9  C14 UNL     1       4.629 -35.935  -5.707  1.00  0.00     0.055 A 
BRANCH   6  10
HETATM   10  O1  UNL     1       2.067 -35.223  -8.910  1.00  0.00    -0.353 OA
HETATM   11  C1  UNL     1       1.616 -33.961  -9.292  1.00  0.00     0.210 C 
ENDBRANCH   6  10
BRANCH   7  12
HETATM   12  O4  UNL     1       4.797 -34.926  -9.251  1.00  0.00    -0.351 OA
HETATM   13  C18 UNL     1       4.941 -35.783 -10.343  1.00  0.00     0.210 C 
ENDBRANCH   7  12
BRANCH   8  14
HETATM   14  O3  UNL     1       6.459 -35.382  -7.194  1.00  0.00    -0.353 OA
HETATM   15  C16 UNL     1       7.155 -34.212  -6.985  1.00  0.00     0.210 C 
ENDBRANCH   8  14
ENDBRANCH   2   4
ENDBRANCH   1   2
BRANCH   1  16
HETATM   16  S1  UNL     1       4.004 -37.859  -2.271  1.00  0.00    -0.111 SA
BRANCH  16  17
HETATM   17  C7  UNL     1       4.591 -39.540  -1.977  1.00  0.00     0.358 C 
HETATM   18  N1  UNL     1       5.336 -39.616  -0.710  1.00  0.00    -0.102 NA
HETATM   19  N2  UNL     1       6.584 -39.090  -1.112  1.00  0.00    -0.106 NA
HETATM   20  C8  UNL     1       6.826 -39.850  -2.328  1.00  0.00     0.338 C 
HETATM   21  N3  UNL     1       5.546 -39.940  -2.993  1.00  0.00    -0.023 N 
ATOM     22  H32 UNL     1       5.355 -40.850  -3.412  1.00  0.00     0.282 HD
ATOM     23  H31 UNL     1       5.485 -39.404  -3.859  1.00  0.00     0.282 HD
BRANCH  20  24
HETATM   24  C9  UNL     1       7.802 -39.020  -3.133  1.00  0.00     0.048 A 
HETATM   25  S2  UNL     1       7.483 -37.749  -4.229  1.00  0.00    -0.095 SA
HETATM   26  C10 UNL     1       9.082 -37.370  -4.680  1.00  0.00    -0.019 A 
HETATM   27  C11 UNL     1       9.564 -36.319  -5.642  1.00  0.00     0.056 C 
HETATM   28  C12 UNL     1       9.824 -38.258  -3.953  1.00  0.00     0.034 A 
HETATM   29  C13 UNL     1       9.169 -39.108  -3.156  1.00  0.00     0.028 A 
HETATM   30 BR1  UNL     1      10.054 -40.441  -2.047  1.00  0.00    -0.050 Br
ENDBRANCH  20  24
ENDBRANCH  16  17
ENDBRANCH   1  16
TORSDOF 8
ENDMDL
MODEL 5
REMARK VINA RESULT: -7.138975026      1.586      2.578
REMARK  8 active torsions:
REMARK  status: ('A' for Active; 'I' for Inactive)
REMARK    1  A    between atoms: O1_2  and  C2_3 
REMARK    2  A    between atoms: C4_5  and  C5_6 
REMARK    3  A    between atoms: C5_6  and  C6_8 
REMARK    4  A    between atoms: C6_8  and  S1_9 
REMARK    5  A    between atoms: S1_9  and  C7_10 
REMARK    6  A    between atoms: C8_13  and  C9_14 
REMARK    7  A    between atoms: C15_25  and  O3_26 
REMARK    8  A    between atoms: C17_28  and  O4_29 
ROOT
HETATM    1  C6  UNL     1       2.819 -37.768  -3.790  1.00  0.00     0.161 C 
ENDROOT
BRANCH   1   2
HETATM    2  C5  UNL     1       2.625 -36.390  -4.290  1.00  0.00     0.169 C 
HETATM    3  O2  UNL     1       1.986 -35.585  -3.574  1.00  0.00    -0.291 OA
BRANCH   2   4
HETATM    4  C4  UNL     1       3.180 -36.027  -5.580  1.00  0.00     0.016 A 
HETATM    5  C3  UNL     1       4.541 -35.912  -5.755  1.00  0.00     0.055 A 
HETATM    6  C2  UNL     1       5.082 -35.562  -6.977  1.00  0.00     0.105 A 
HETATM    7  C17 UNL     1       4.277 -35.322  -8.045  1.00  0.00     0.135 A 
HETATM    8  C15 UNL     1       2.887 -35.437  -7.882  1.00  0.00     0.105 A 
HETATM    9  C14 UNL     1       2.342 -35.784  -6.669  1.00  0.00     0.055 A 
BRANCH   6  10
HETATM   10  O1  UNL     1       6.468 -35.454  -7.118  1.00  0.00    -0.353 OA
HETATM   11  C1  UNL     1       7.181 -34.262  -6.993  1.00  0.00     0.210 C 
ENDBRANCH   6  10
BRANCH   7  12
HETATM   12  O4  UNL     1       4.814 -34.968  -9.283  1.00  0.00    -0.351 OA
HETATM   13  C18 UNL     1       4.996 -35.859 -10.342  1.00  0.00     0.210 C 
ENDBRANCH   7  12
BRANCH   8  14
HETATM   14  O3  UNL     1       2.152 -35.179  -9.006  1.00  0.00    -0.353 OA
HETATM   15  C16 UNL     1       1.607 -33.954  -9.323  1.00  0.00     0.210 C 
ENDBRANCH   8  14
ENDBRANCH   2   4
ENDBRANCH   1   2
BRANCH   1  16
HETATM   16  S1  UNL     1       3.868 -37.859  -2.337  1.00  0.00    -0.111 SA
BRANCH  16  17
HETATM   17  C7  UNL     1       4.387 -39.570  -2.101  1.00  0.00     0.358 C 
HETATM   18  N1  UNL     1       5.091 -39.728  -0.818  1.00  0.00    -0.102 NA
HETATM   19  N2  UNL     1       6.368 -39.230  -1.162  1.00  0.00    -0.106 NA
HETATM   20  C8  UNL     1       6.619 -39.946  -2.403  1.00  0.00     0.338 C 
HETATM   21  N3  UNL     1       5.356 -39.961  -3.107  1.00  0.00    -0.023 N 
ATOM     22  H32 UNL     1       5.145 -40.845  -3.570  1.00  0.00     0.282 HD
ATOM     23  H31 UNL     1       5.340 -39.387  -3.950  1.00  0.00     0.282 HD
BRANCH  20  24
HETATM   24  C9  UNL     1       7.646 -39.119  -3.144  1.00  0.00     0.048 A 
HETATM   25  S2  UNL     1       7.400 -37.865  -4.279  1.00  0.00    -0.095 SA
HETATM   26  C10 UNL     1       9.026 -37.478  -4.614  1.00  0.00    -0.019 A 
HETATM   27  C11 UNL     1       9.571 -36.435  -5.551  1.00  0.00     0.056 C 
HETATM   28  C12 UNL     1       9.718 -38.349  -3.820  1.00  0.00     0.034 A 
HETATM   29  C13 UNL     1       9.011 -39.194  -3.062  1.00  0.00     0.028 A 
HETATM   30 BR1  UNL     1       9.821 -40.502  -1.870  1.00  0.00    -0.050 Br
ENDBRANCH  20  24
ENDBRANCH  16  17
ENDBRANCH   1  16
TORSDOF 8
ENDMDL
