MODEL 1
REMARK VINA RESULT: -8.435736764      0.000      0.000
REMARK  9 active torsions:
REMARK  status: ('A' for Active; 'I' for Inactive)
REMARK    1  A    between atoms: O1_2  and  C2_3 
REMARK    2  A    between atoms: C2_3  and  O2_4 
REMARK    3  A    between atoms: C2_3  and  C3_6 
REMARK    4  A    between atoms: C6_9  and  C7_10 
REMARK    5  A    between atoms: C10_13  and  O3_14 
REMARK    6  A    between atoms: O3_14  and  C11_15 
REMARK    7  A    between atoms: C14_19  and  O5_20 
REMARK    8  A    between atoms: C16_22  and  O6_23 
REMARK    9  A    between atoms: C17_25  and  O7_26 
ROOT
HETATM    1  C7  UNL     1       3.279 -38.224  -2.254  1.00  0.00    -0.024 A 
HETATM    2  C8  UNL     1       2.546 -38.502  -3.387  1.00  0.00     0.015 A 
HETATM    3  C9  UNL     1       2.367 -37.497  -4.307  1.00  0.00     0.037 A 
HETATM    4  C10 UNL     1       2.911 -36.219  -4.108  1.00  0.00     0.069 A 
HETATM    5  C18 UNL     1       3.644 -35.942  -2.977  1.00  0.00     0.037 A 
HETATM    6  C19 UNL     1       3.817 -36.957  -2.060  1.00  0.00     0.015 A 
ENDROOT
BRANCH   1   7
HETATM    7  C6  UNL     1       3.489 -39.262  -1.252  1.00  0.00     0.002 A 
HETATM    8  C5  UNL     1       2.495 -39.640  -0.367  1.00  0.00     0.017 A 
HETATM    9  C4  UNL     1       2.724 -40.630   0.578  1.00  0.00     0.031 A 
HETATM   10  C3  UNL     1       3.948 -41.256   0.651  1.00  0.00     0.065 A 
HETATM   11  N1  UNL     1       4.896 -40.877  -0.214  1.00  0.00    -0.354 N 
HETATM   12  C20 UNL     1       4.692 -39.906  -1.150  1.00  0.00     0.054 A 
ATOM     13  H1  UNL     1       5.808 -41.333  -0.172  1.00  0.00     0.166 HD
HETATM   14  C21 UNL     1       5.813 -39.612  -2.010  1.00  0.00    -0.008 A 
HETATM   15  C22 UNL     1       5.727 -39.826  -3.357  1.00  0.00     0.017 A 
HETATM   16  C26 UNL     1       6.970 -39.116  -1.474  1.00  0.00     0.017 A 
HETATM   17  C23 UNL     1       6.809 -39.545  -4.199  1.00  0.00     0.043 A 
HETATM   18  C24 UNL     1       7.963 -39.046  -3.626  1.00  0.00     0.116 A 
HETATM   19  F1  UNL     1       9.051 -38.753  -4.391  1.00  0.00    -0.206 F 
HETATM   20  C25 UNL     1       8.066 -38.824  -2.270  1.00  0.00     0.043 A 
BRANCH  10  21
HETATM   21  C2  UNL     1       4.224 -42.322   1.653  1.00  0.00     0.307 C 
BRANCH  21  22
HETATM   22  O1  UNL     1       5.196 -43.209   1.199  1.00  0.00    -0.360 OA
HETATM   23  C1  UNL     1       4.636 -44.398   0.737  1.00  0.00     0.205 C 
ENDBRANCH  21  22
BRANCH  21  24
HETATM   24  O2  UNL     1       4.750 -41.702   2.791  1.00  0.00    -0.366 OA
ATOM     25  H2  UNL     1       4.053 -41.173   3.159  1.00  0.00     0.213 HD
ENDBRANCH  21  24
ENDBRANCH  10  21
ENDBRANCH   1   7
BRANCH   4  26
HETATM   26  O3  UNL     1       2.685 -35.280  -5.071  1.00  0.00    -0.341 OA
BRANCH  26  27
HETATM   27  C11 UNL     1       2.847 -35.383  -6.444  1.00  0.00     0.189 C 
HETATM   28  C12 UNL     1       4.060 -34.560  -6.917  1.00  0.00     0.152 C 
HETATM   29  C13 UNL     1       4.067 -33.223  -6.207  1.00  0.00     0.042 C 
HETATM   30  O4  UNL     1       4.027 -34.341  -8.269  1.00  0.00    -0.351 OA
HETATM   31  C14 UNL     1       3.255 -35.269  -8.962  1.00  0.00     0.290 C 
HETATM   32  C16 UNL     1       1.786 -35.145  -8.623  1.00  0.00     0.204 C 
HETATM   33  C17 UNL     1       1.653 -34.734  -7.158  1.00  0.00     0.183 C 
BRANCH  31  34
HETATM   34  O5  UNL     1       3.395 -34.985 -10.319  1.00  0.00    -0.363 OA
HETATM   35  C15 UNL     1       4.611 -35.450 -10.817  1.00  0.00     0.204 C 
ENDBRANCH  31  34
BRANCH  32  36
HETATM   36  O6  UNL     1       1.150 -34.225  -9.459  1.00  0.00    -0.388 OA
ATOM     37  H6  UNL     1       0.453 -33.771  -9.002  1.00  0.00     0.210 HD
ENDBRANCH  32  36
BRANCH  33  38
HETATM   38  O7  UNL     1       0.472 -35.147  -6.594  1.00  0.00    -0.390 OA
ATOM     39  H7  UNL     1      -0.241 -34.580  -6.862  1.00  0.00     0.210 HD
ENDBRANCH  33  38
ENDBRANCH  26  27
ENDBRANCH   4  26
TORSDOF 9
ENDMDL
MODEL 2
REMARK VINA RESULT: -8.081056022      4.581      7.266
REMARK  9 active torsions:
REMARK  status: ('A' for Active; 'I' for Inactive)
REMARK    1  A    between atoms: O1_2  and  C2_3 
REMARK    2  A    between atoms: C2_3  and  O2_4 
REMARK    3  A    between atoms: C2_3  and  C3_6 
REMARK    4  A    between atoms: C6_9  and  C7_10 
REMARK    5  A    between atoms: C10_13  and  O3_14 
REMARK    6  A    between atoms: O3_14  and  C11_15 
REMARK    7  A    between atoms: C14_19  and  O5_20 
REMARK    8  A    between atoms: C16_22  and  O6_23 
REMARK    9  A    between atoms: C17_25  and  O7_26 
ROOT
HETATM    1  C7  UNL     1       7.269 -39.317  -2.978  1.00  0.00    -0.024 A 
HETATM    2  C8  UNL     1       6.658 -38.357  -2.203  1.00  0.00     0.015 A 
HETATM    3  C9  UNL     1       5.298 -38.200  -2.317  1.00  0.00     0.037 A 
HETATM    4  C10 UNL     1       4.542 -38.989  -3.197  1.00  0.00     0.069 A 
HETATM    5  C18 UNL     1       5.153 -39.949  -3.972  1.00  0.00     0.037 A 
HETATM    6  C19 UNL     1       6.518 -40.099  -3.849  1.00  0.00     0.015 A 
ENDROOT
BRANCH   1   7
HETATM    7  C6  UNL     1       8.711 -39.514  -2.889  1.00  0.00     0.002 A 
HETATM    8  C5  UNL     1       9.271 -40.480  -2.071  1.00  0.00     0.017 A 
HETATM    9  C4  UNL     1      10.647 -40.644  -2.004  1.00  0.00     0.031 A 
HETATM   10  C3  UNL     1      11.482 -39.845  -2.753  1.00  0.00     0.065 A 
HETATM   11  N1  UNL     1      10.922 -38.917  -3.538  1.00  0.00    -0.354 N 
HETATM   12  C20 UNL     1       9.572 -38.740  -3.617  1.00  0.00     0.054 A 
ATOM     13  H1  UNL     1      11.529 -38.319  -4.098  1.00  0.00     0.166 HD
HETATM   14  C21 UNL     1       9.124 -37.697  -4.510  1.00  0.00    -0.008 A 
HETATM   15  C22 UNL     1       8.355 -38.001  -5.598  1.00  0.00     0.017 A 
HETATM   16  C26 UNL     1       9.470 -36.397  -4.265  1.00  0.00     0.017 A 
HETATM   17  C23 UNL     1       7.916 -36.998  -6.470  1.00  0.00     0.043 A 
HETATM   18  C24 UNL     1       8.285 -35.695  -6.195  1.00  0.00     0.116 A 
HETATM   19  F1  UNL     1       7.891 -34.673  -7.004  1.00  0.00    -0.206 F 
HETATM   20  C25 UNL     1       9.059 -35.371  -5.101  1.00  0.00     0.043 A 
BRANCH  10  21
HETATM   21  C2  UNL     1      12.963 -39.997  -2.703  1.00  0.00     0.307 C 
BRANCH  21  22
HETATM   22  O1  UNL     1      13.466 -40.480  -3.907  1.00  0.00    -0.360 OA
HETATM   23  C1  UNL     1      14.448 -41.447  -3.708  1.00  0.00     0.205 C 
ENDBRANCH  21  22
BRANCH  21  24
HETATM   24  O2  UNL     1      13.510 -38.722  -2.524  1.00  0.00    -0.366 OA
ATOM     25  H2  UNL     1      13.651 -38.616  -1.591  1.00  0.00     0.213 HD
ENDBRANCH  21  24
ENDBRANCH  10  21
ENDBRANCH   1   7
BRANCH   4  26
HETATM   26  O3  UNL     1       3.197 -38.766  -3.249  1.00  0.00    -0.341 OA
BRANCH  26  27
HETATM   27  C11 UNL     1       2.180 -39.414  -2.566  1.00  0.00     0.189 C 
HETATM   28  C12 UNL     1       1.393 -40.345  -3.507  1.00  0.00     0.152 C 
HETATM   29  C13 UNL     1       1.152 -39.641  -4.825  1.00  0.00     0.042 C 
HETATM   30  O4  UNL     1       0.184 -40.703  -2.971  1.00  0.00    -0.351 OA
HETATM   31  C14 UNL     1       0.139 -40.591  -1.584  1.00  0.00     0.290 C 
HETATM   32  C16 UNL     1       0.230 -39.151  -1.131  1.00  0.00     0.204 C 
HETATM   33  C17 UNL     1       1.137 -38.390  -2.096  1.00  0.00     0.183 C 
BRANCH  31  34
HETATM   34  O5  UNL     1      -1.102 -41.080  -1.175  1.00  0.00    -0.363 OA
HETATM   35  C15 UNL     1      -1.452 -42.236  -1.870  1.00  0.00     0.204 C 
ENDBRANCH  31  34
BRANCH  32  36
HETATM   36  O6  UNL     1      -1.034 -38.562  -1.065  1.00  0.00    -0.388 OA
ATOM     37  H6  UNL     1      -1.212 -38.043  -1.840  1.00  0.00     0.210 HD
ENDBRANCH  32  36
BRANCH  33  38
HETATM   38  O7  UNL     1       1.751 -37.311  -1.510  1.00  0.00    -0.390 OA
ATOM     39  H7  UNL     1       2.207 -37.575  -0.720  1.00  0.00     0.210 HD
ENDBRANCH  33  38
ENDBRANCH  26  27
ENDBRANCH   4  26
TORSDOF 9
ENDMDL
MODEL 3
REMARK VINA RESULT: -8.038603820      2.158      2.822
REMARK  9 active torsions:
REMARK  status: ('A' for Active; 'I' for Inactive)
REMARK    1  A    between atoms: O1_2  and  C2_3 
REMARK    2  A    between atoms: C2_3  and  O2_4 
REMARK    3  A    between atoms: C2_3  and  C3_6 
REMARK    4  A    between atoms: C6_9  and  C7_10 
REMARK    5  A    between atoms: C10_13  and  O3_14 
REMARK    6  A    between atoms: O3_14  and  C11_15 
REMARK    7  A    between atoms: C14_19  and  O5_20 
REMARK    8  A    between atoms: C16_22  and  O6_23 
REMARK    9  A    between atoms: C17_25  and  O7_26 
ROOT
HETATM    1  C7  UNL     1       5.092 -38.077  -3.008  1.00  0.00    -0.024 A 
HETATM    2  C8  UNL     1       4.606 -38.635  -4.169  1.00  0.00     0.015 A 
HETATM    3  C9  UNL     1       3.770 -37.877  -4.953  1.00  0.00     0.037 A 
HETATM    4  C10 UNL     1       3.414 -36.570  -4.590  1.00  0.00     0.069 A 
HETATM    5  C18 UNL     1       3.900 -36.011  -3.430  1.00  0.00     0.037 A 
HETATM    6  C19 UNL     1       4.738 -36.781  -2.651  1.00  0.00     0.015 A 
ENDROOT
BRANCH   1   7
HETATM    7  C6  UNL     1       5.979 -38.849  -2.146  1.00  0.00     0.002 A 
HETATM    8  C5  UNL     1       5.515 -39.527  -1.034  1.00  0.00     0.017 A 
HETATM    9  C4  UNL     1       6.383 -40.253  -0.230  1.00  0.00     0.031 A 
HETATM   10  C3  UNL     1       7.726 -40.311  -0.528  1.00  0.00     0.065 A 
HETATM   11  N1  UNL     1       8.156 -39.648  -1.608  1.00  0.00    -0.354 N 
HETATM   12  C20 UNL     1       7.320 -38.929  -2.410  1.00  0.00     0.054 A 
ATOM     13  H1  UNL     1       9.149 -39.682  -1.841  1.00  0.00     0.166 HD
HETATM   14  C21 UNL     1       7.936 -38.271  -3.538  1.00  0.00    -0.008 A 
HETATM   15  C22 UNL     1       7.587 -38.613  -4.814  1.00  0.00     0.017 A 
HETATM   16  C26 UNL     1       8.876 -37.300  -3.328  1.00  0.00     0.017 A 
HETATM   17  C23 UNL     1       8.180 -37.982  -5.914  1.00  0.00     0.043 A 
HETATM   18  C24 UNL     1       9.126 -37.007  -5.668  1.00  0.00     0.116 A 
HETATM   19  F1  UNL     1       9.741 -36.356  -6.694  1.00  0.00    -0.206 F 
HETATM   20  C25 UNL     1       9.490 -36.649  -4.386  1.00  0.00     0.043 A 
BRANCH  10  21
HETATM   21  C2  UNL     1       8.683 -41.081   0.315  1.00  0.00     0.307 C 
BRANCH  21  22
HETATM   22  O1  UNL     1       9.824 -41.430  -0.401  1.00  0.00    -0.360 OA
HETATM   23  C1  UNL     1      10.987 -41.001   0.235  1.00  0.00     0.205 C 
ENDBRANCH  21  22
BRANCH  21  24
HETATM   24  O2  UNL     1       9.103 -40.240   1.350  1.00  0.00    -0.366 OA
ATOM     25  H2  UNL     1       8.439 -39.566   1.438  1.00  0.00     0.213 HD
ENDBRANCH  21  24
ENDBRANCH  10  21
ENDBRANCH   1   7
BRANCH   4  26
HETATM   26  O3  UNL     1       2.579 -35.888  -5.426  1.00  0.00    -0.341 OA
BRANCH  26  27
HETATM   27  C11 UNL     1       2.650 -35.744  -6.803  1.00  0.00     0.189 C 
HETATM   28  C12 UNL     1       3.931 -34.992  -7.210  1.00  0.00     0.152 C 
HETATM   29  C13 UNL     1       4.150 -33.826  -6.270  1.00  0.00     0.042 C 
HETATM   30  O4  UNL     1       3.852 -34.515  -8.492  1.00  0.00    -0.351 OA
HETATM   31  C14 UNL     1       2.930 -35.197  -9.281  1.00  0.00     0.290 C 
HETATM   32  C16 UNL     1       1.510 -34.971  -8.811  1.00  0.00     0.204 C 
HETATM   33  C17 UNL     1       1.513 -34.836  -7.289  1.00  0.00     0.183 C 
BRANCH  31  34
HETATM   34  O5  UNL     1       3.031 -34.677 -10.570  1.00  0.00    -0.363 OA
HETATM   35  C15 UNL     1       4.181 -35.127 -11.217  1.00  0.00     0.204 C 
ENDBRANCH  31  34
BRANCH  32  36
HETATM   36  O6  UNL     1       0.954 -33.840  -9.412  1.00  0.00    -0.388 OA
ATOM     37  H6  UNL     1       1.583 -33.131  -9.457  1.00  0.00     0.210 HD
ENDBRANCH  32  36
BRANCH  33  38
HETATM   38  O7  UNL     1       0.321 -35.209  -6.720  1.00  0.00    -0.390 OA
ATOM     39  H7  UNL     1      -0.106 -34.461  -6.319  1.00  0.00     0.210 HD
ENDBRANCH  33  38
ENDBRANCH  26  27
ENDBRANCH   4  26
TORSDOF 9
ENDMDL
MODEL 4
REMARK VINA RESULT: -7.961271997      3.682      5.670
REMARK  9 active torsions:
REMARK  status: ('A' for Active; 'I' for Inactive)
REMARK    1  A    between atoms: O1_2  and  C2_3 
REMARK    2  A    between atoms: C2_3  and  O2_4 
REMARK    3  A    between atoms: C2_3  and  C3_6 
REMARK    4  A    between atoms: C6_9  and  C7_10 
REMARK    5  A    between atoms: C10_13  and  O3_14 
REMARK    6  A    between atoms: O3_14  and  C11_15 
REMARK    7  A    between atoms: C14_19  and  O5_20 
REMARK    8  A    between atoms: C16_22  and  O6_23 
REMARK    9  A    between atoms: C17_25  and  O7_26 
ROOT
HETATM    1  C7  UNL     1       7.980 -38.249  -4.327  1.00  0.00    -0.024 A 
HETATM    2  C8  UNL     1       6.914 -39.116  -4.241  1.00  0.00     0.015 A 
HETATM    3  C9  UNL     1       5.707 -38.715  -4.762  1.00  0.00     0.037 A 
HETATM    4  C10 UNL     1       5.554 -37.458  -5.366  1.00  0.00     0.069 A 
HETATM    5  C18 UNL     1       6.619 -36.592  -5.453  1.00  0.00     0.037 A 
HETATM    6  C19 UNL     1       7.826 -37.005  -4.927  1.00  0.00     0.015 A 
ENDROOT
BRANCH   1   7
HETATM    7  C6  UNL     1       9.277 -38.636  -3.785  1.00  0.00     0.002 A 
HETATM    8  C5  UNL     1      10.465 -38.173  -4.322  1.00  0.00     0.017 A 
HETATM    9  C4  UNL     1      11.685 -38.559  -3.786  1.00  0.00     0.031 A 
HETATM   10  C3  UNL     1      11.735 -39.412  -2.706  1.00  0.00     0.065 A 
HETATM   11  N1  UNL     1      10.576 -39.849  -2.201  1.00  0.00    -0.354 N 
HETATM   12  C20 UNL     1       9.366 -39.482  -2.713  1.00  0.00     0.054 A 
ATOM     13  H1  UNL     1      10.597 -40.482  -1.400  1.00  0.00     0.166 HD
HETATM   14  C21 UNL     1       8.206 -40.038  -2.056  1.00  0.00    -0.008 A 
HETATM   15  C22 UNL     1       7.306 -39.220  -1.433  1.00  0.00     0.017 A 
HETATM   16  C26 UNL     1       8.008 -41.391  -2.057  1.00  0.00     0.017 A 
HETATM   17  C23 UNL     1       6.180 -39.749  -0.792  1.00  0.00     0.043 A 
HETATM   18  C24 UNL     1       6.009 -41.120  -0.810  1.00  0.00     0.116 A 
HETATM   19  F1  UNL     1       4.935 -41.697  -0.205  1.00  0.00    -0.206 F 
HETATM   20  C25 UNL     1       6.907 -41.959  -1.435  1.00  0.00     0.043 A 
BRANCH  10  21
HETATM   21  C2  UNL     1      13.028 -39.845  -2.109  1.00  0.00     0.307 C 
BRANCH  21  22
HETATM   22  O1  UNL     1      13.970 -40.137  -3.091  1.00  0.00    -0.360 OA
HETATM   23  C1  UNL     1      14.008 -41.499  -3.384  1.00  0.00     0.205 C 
ENDBRANCH  21  22
BRANCH  21  24
HETATM   24  O2  UNL     1      13.536 -38.767  -1.378  1.00  0.00    -0.366 OA
ATOM     25  H2  UNL     1      14.352 -39.061  -0.992  1.00  0.00     0.213 HD
ENDBRANCH  21  24
ENDBRANCH  10  21
ENDBRANCH   1   7
BRANCH   4  26
HETATM   26  O3  UNL     1       4.321 -37.140  -5.856  1.00  0.00    -0.341 OA
BRANCH  26  27
HETATM   27  C11 UNL     1       3.796 -35.891  -6.151  1.00  0.00     0.189 C 
HETATM   28  C12 UNL     1       2.818 -35.433  -5.054  1.00  0.00     0.152 C 
HETATM   29  C13 UNL     1       1.939 -36.597  -4.647  1.00  0.00     0.042 C 
HETATM   30  O4  UNL     1       2.019 -34.406  -5.483  1.00  0.00    -0.351 OA
HETATM   31  C14 UNL     1       2.560 -33.694  -6.550  1.00  0.00     0.290 C 
HETATM   32  C16 UNL     1       2.638 -34.532  -7.806  1.00  0.00     0.204 C 
HETATM   33  C17 UNL     1       2.927 -35.979  -7.413  1.00  0.00     0.183 C 
BRANCH  31  34
HETATM   34  O5  UNL     1       1.697 -32.630  -6.810  1.00  0.00    -0.363 OA
HETATM   35  C15 UNL     1       2.361 -31.406  -6.758  1.00  0.00     0.204 C 
ENDBRANCH  31  34
BRANCH  32  36
HETATM   36  O6  UNL     1       1.458 -34.442  -8.547  1.00  0.00    -0.388 OA
ATOM     37  H6  UNL     1       1.398 -35.144  -9.184  1.00  0.00     0.210 HD
ENDBRANCH  32  36
BRANCH  33  38
HETATM   38  O7  UNL     1       3.578 -36.678  -8.400  1.00  0.00    -0.390 OA
ATOM     39  H7  UNL     1       3.254 -36.426  -9.256  1.00  0.00     0.210 HD
ENDBRANCH  33  38
ENDBRANCH  26  27
ENDBRANCH   4  26
TORSDOF 9
ENDMDL
MODEL 5
REMARK VINA RESULT: -7.920099589      4.234      6.567
REMARK  9 active torsions:
REMARK  status: ('A' for Active; 'I' for Inactive)
REMARK    1  A    between atoms: O1_2  and  C2_3 
REMARK    2  A    between atoms: C2_3  and  O2_4 
REMARK    3  A    between atoms: C2_3  and  C3_6 
REMARK    4  A    between atoms: C6_9  and  C7_10 
REMARK    5  A    between atoms: C10_13  and  O3_14 
REMARK    6  A    between atoms: O3_14  and  C11_15 
REMARK    7  A    between atoms: C14_19  and  O5_20 
REMARK    8  A    between atoms: C16_22  and  O6_23 
REMARK    9  A    between atoms: C17_25  and  O7_26 
ROOT
HETATM    1  C7  UNL     1       7.305 -39.226  -2.650  1.00  0.00    -0.024 A 
HETATM    2  C8  UNL     1       6.777 -38.343  -1.733  1.00  0.00     0.015 A 
HETATM    3  C9  UNL     1       5.423 -38.111  -1.760  1.00  0.00     0.037 A 
HETATM    4  C10 UNL     1       4.591 -38.750  -2.692  1.00  0.00     0.069 A 
HETATM    5  C18 UNL     1       5.117 -39.632  -3.607  1.00  0.00     0.037 A 
HETATM    6  C19 UNL     1       6.477 -39.857  -3.572  1.00  0.00     0.015 A 
ENDROOT
BRANCH   1   7
HETATM    7  C6  UNL     1       8.737 -39.497  -2.657  1.00  0.00     0.002 A 
HETATM    8  C5  UNL     1       9.307 -40.453  -1.834  1.00  0.00     0.017 A 
HETATM    9  C4  UNL     1      10.674 -40.688  -1.860  1.00  0.00     0.031 A 
HETATM   10  C3  UNL     1      11.489 -39.974  -2.709  1.00  0.00     0.065 A 
HETATM   11  N1  UNL     1      10.920 -39.054  -3.496  1.00  0.00    -0.354 N 
HETATM   12  C20 UNL     1       9.578 -38.806  -3.485  1.00  0.00     0.054 A 
ATOM     13  H1  UNL     1      11.512 -38.517  -4.130  1.00  0.00     0.166 HD
HETATM   14  C21 UNL     1       9.117 -37.784  -4.395  1.00  0.00    -0.008 A 
HETATM   15  C22 UNL     1       8.254 -38.097  -5.406  1.00  0.00     0.017 A 
HETATM   16  C26 UNL     1       9.547 -36.495  -4.243  1.00  0.00     0.017 A 
HETATM   17  C23 UNL     1       7.802 -37.113  -6.294  1.00  0.00     0.043 A 
HETATM   18  C24 UNL     1       8.256 -35.821  -6.114  1.00  0.00     0.116 A 
HETATM   19  F1  UNL     1       7.855 -34.819  -6.944  1.00  0.00    -0.206 F 
HETATM   20  C25 UNL     1       9.127 -35.489  -5.098  1.00  0.00     0.043 A 
BRANCH  10  21
HETATM   21  C2  UNL     1      12.960 -40.204  -2.760  1.00  0.00     0.307 C 
BRANCH  21  22
HETATM   22  O1  UNL     1      13.361 -40.650  -4.016  1.00  0.00    -0.360 OA
HETATM   23  C1  UNL     1      14.470 -41.490  -3.937  1.00  0.00     0.205 C 
ENDBRANCH  21  22
BRANCH  21  24
HETATM   24  O2  UNL     1      13.586 -38.970  -2.555  1.00  0.00    -0.366 OA
ATOM     25  H2  UNL     1      12.988 -38.445  -2.037  1.00  0.00     0.213 HD
ENDBRANCH  21  24
ENDBRANCH  10  21
ENDBRANCH   1   7
BRANCH   4  26
HETATM   26  O3  UNL     1       3.258 -38.461  -2.649  1.00  0.00    -0.341 OA
BRANCH  26  27
HETATM   27  C11 UNL     1       2.222 -39.015  -3.385  1.00  0.00     0.189 C 
HETATM   28  C12 UNL     1       1.850 -38.110  -4.574  1.00  0.00     0.152 C 
HETATM   29  C13 UNL     1       1.828 -36.666  -4.119  1.00  0.00     0.042 C 
HETATM   30  O4  UNL     1       0.620 -38.429  -5.088  1.00  0.00    -0.351 OA
HETATM   31  C14 UNL     1       0.220 -39.730  -4.799  1.00  0.00     0.290 C 
HETATM   32  C16 UNL     1      -0.035 -39.926  -3.321  1.00  0.00     0.204 C 
HETATM   33  C17 UNL     1       0.946 -39.058  -2.534  1.00  0.00     0.183 C 
BRANCH  31  34
HETATM   34  O5  UNL     1      -0.987 -39.944  -5.463  1.00  0.00    -0.363 OA
HETATM   35  C15 UNL     1      -1.020 -41.194  -6.077  1.00  0.00     0.204 C 
ENDBRANCH  31  34
BRANCH  32  36
HETATM   36  O6  UNL     1      -1.354 -39.613  -2.990  1.00  0.00    -0.388 OA
ATOM     37  H6  UNL     1      -1.392 -38.888  -2.378  1.00  0.00     0.210 HD
ENDBRANCH  32  36
BRANCH  33  38
HETATM   38  O7  UNL     1       1.216 -39.559  -1.285  1.00  0.00    -0.390 OA
ATOM     39  H7  UNL     1       1.092 -40.501  -1.269  1.00  0.00     0.210 HD
ENDBRANCH  33  38
ENDBRANCH  26  27
ENDBRANCH   4  26
TORSDOF 9
ENDMDL
