MODEL 1
REMARK VINA RESULT: -7.842976367      0.000      0.000
REMARK  10 active torsions:
REMARK  status: ('A' for Active; 'I' for Inactive)
REMARK    1  A    between atoms: C2_2  and  C3_3 
REMARK    2  A    between atoms: C3_3  and  C4_4 
REMARK    3  A    between atoms: C4_4  and  C5_5 
REMARK    4  A    between atoms: C5_5  and  C6_6 
REMARK       I    between atoms: C6_6  and  N1_8 
REMARK    5  A    between atoms: N1_8  and  C7_10 
REMARK    6  A    between atoms: C7_10  and  C8_11 
REMARK    7  A    between atoms: C8_11  and  S1_12 
REMARK    8  A    between atoms: S1_12  and  C9_13 
REMARK    9  A    between atoms: C10_14  and  S2_15 
REMARK   10  A    between atoms: S2_15  and  C11_16 
ROOT
HETATM    1  C9  UNL     1       2.923  29.679  18.956  1.00  0.00     0.064 A 
HETATM    2  C10 UNL     1       2.495  29.025  20.055  1.00  0.00     0.004 A 
HETATM    3  C15 UNL     1       1.093  28.829  20.354  1.00  0.00     0.093 A 
HETATM    4  C16 UNL     1       0.109  29.423  19.430  1.00  0.00     0.036 A 
HETATM    5  C17 UNL     1       0.507  30.081  18.322  1.00  0.00     0.030 A 
HETATM    6  C18 UNL     1      -0.398  30.623  17.455  1.00  0.00     0.048 A 
HETATM    7  C19 UNL     1      -1.745  30.478  17.746  1.00  0.00     0.054 A 
HETATM    8  C20 UNL     1      -2.710  31.078  16.787  1.00  0.00     0.077 C 
HETATM    9  O2  UNL     1      -2.095  29.834  18.829  1.00  0.00    -0.280 OA
HETATM   10  C21 UNL     1      -1.260  29.304  19.677  1.00  0.00     0.295 A 
HETATM   11  O3  UNL     1      -1.605  28.687  20.717  1.00  0.00    -0.259 OA
HETATM   12  C22 UNL     1       1.951  30.236  18.037  1.00  0.00     0.200 A 
HETATM   13  O4  UNL     1       2.258  30.852  16.988  1.00  0.00    -0.286 OA
ENDROOT
BRANCH   1  14
HETATM   14  S1  UNL     1       4.644  29.886  18.670  1.00  0.00    -0.123 SA
BRANCH  14  15
HETATM   15  C8  UNL     1       5.433  31.063  19.753  1.00  0.00     0.099 C 
BRANCH  15  16
HETATM   16  C7  UNL     1       6.879  30.733  19.933  1.00  0.00     0.133 C 
BRANCH  16  17
HETATM   17  N1  UNL     1       7.101  29.319  19.819  1.00  0.00    -0.360 N 
HETATM   18  C6  UNL     1       8.275  28.722  19.394  1.00  0.00     0.217 C 
HETATM   19  O1  UNL     1       9.307  29.324  19.051  1.00  0.00    -0.274 OA
ATOM     20  H1  UNL     1       6.329  28.703  20.072  1.00  0.00     0.162 HD
BRANCH  18  21
HETATM   21  C5  UNL     1       8.344  27.212  19.331  1.00  0.00     0.103 C 
BRANCH  21  22
HETATM   22  C4  UNL     1       8.382  26.718  17.912  1.00  0.00     0.009 C 
BRANCH  22  23
HETATM   23  C3  UNL     1       7.836  25.335  17.786  1.00  0.00     0.000 C 
BRANCH  23  24
HETATM   24  C2  UNL     1       8.076  24.505  19.037  1.00  0.00    -0.005 C 
HETATM   25  C1  UNL     1       7.357  23.165  18.904  1.00  0.00     0.005 C 
ENDBRANCH  23  24
ENDBRANCH  22  23
ENDBRANCH  21  22
ENDBRANCH  18  21
ENDBRANCH  16  17
ENDBRANCH  15  16
ENDBRANCH  14  15
ENDBRANCH   1  14
BRANCH   2  26
HETATM   26  S2  UNL     1       3.797  28.428  21.125  1.00  0.00    -0.124 SA
BRANCH  26  27
HETATM   27  C11 UNL     1       4.030  26.643  21.021  1.00  0.00     0.002 C 
HETATM   28  C12 UNL     1       4.709  26.227  19.742  1.00  0.00     0.026 C 
HETATM   29  C13 UNL     1       4.979  26.280  22.170  1.00  0.00     0.026 C 
HETATM   30  C14 UNL     1       2.764  25.873  21.178  1.00  0.00     0.026 C 
ENDBRANCH  26  27
ENDBRANCH   2  26
TORSDOF 10
ENDMDL
MODEL 2
REMARK VINA RESULT: -7.621373539      3.224      8.240
REMARK  10 active torsions:
REMARK  status: ('A' for Active; 'I' for Inactive)
REMARK    1  A    between atoms: C2_2  and  C3_3 
REMARK    2  A    between atoms: C3_3  and  C4_4 
REMARK    3  A    between atoms: C4_4  and  C5_5 
REMARK    4  A    between atoms: C5_5  and  C6_6 
REMARK       I    between atoms: C6_6  and  N1_8 
REMARK    5  A    between atoms: N1_8  and  C7_10 
REMARK    6  A    between atoms: C7_10  and  C8_11 
REMARK    7  A    between atoms: C8_11  and  S1_12 
REMARK    8  A    between atoms: S1_12  and  C9_13 
REMARK    9  A    between atoms: C10_14  and  S2_15 
REMARK   10  A    between atoms: S2_15  and  C11_16 
ROOT
HETATM    1  C9  UNL     1       5.333  26.674  20.479  1.00  0.00     0.064 A 
HETATM    2  C10 UNL     1       6.107  25.770  19.845  1.00  0.00     0.004 A 
HETATM    3  C15 UNL     1       6.513  24.522  20.454  1.00  0.00     0.093 A 
HETATM    4  C16 UNL     1       6.093  24.273  21.846  1.00  0.00     0.036 A 
HETATM    5  C17 UNL     1       5.318  25.158  22.505  1.00  0.00     0.030 A 
HETATM    6  C18 UNL     1       4.914  24.929  23.790  1.00  0.00     0.048 A 
HETATM    7  C19 UNL     1       5.326  23.756  24.402  1.00  0.00     0.054 A 
HETATM    8  C20 UNL     1       4.874  23.532  25.800  1.00  0.00     0.077 C 
HETATM    9  O2  UNL     1       6.077  22.921  23.733  1.00  0.00    -0.280 OA
HETATM   10  C21 UNL     1       6.480  23.106  22.507  1.00  0.00     0.295 A 
HETATM   11  O3  UNL     1       7.203  22.297  21.871  1.00  0.00    -0.259 OA
HETATM   12  C22 UNL     1       4.900  26.411  21.837  1.00  0.00     0.200 A 
HETATM   13  O4  UNL     1       4.174  27.192  22.500  1.00  0.00    -0.286 OA
ENDROOT
BRANCH   1  14
HETATM   14  S1  UNL     1       4.892  28.174  19.676  1.00  0.00    -0.123 SA
BRANCH  14  15
HETATM   15  C8  UNL     1       4.677  29.561  20.776  1.00  0.00     0.099 C 
BRANCH  15  16
HETATM   16  C7  UNL     1       3.531  30.414  20.337  1.00  0.00     0.133 C 
BRANCH  16  17
HETATM   17  N1  UNL     1       2.528  29.626  19.676  1.00  0.00    -0.360 N 
HETATM   18  C6  UNL     1       1.186  29.590  20.011  1.00  0.00     0.217 C 
HETATM   19  O1  UNL     1       0.655  30.234  20.931  1.00  0.00    -0.274 OA
ATOM     20  H1  UNL     1       2.831  29.044  18.895  1.00  0.00     0.162 HD
BRANCH  18  21
HETATM   21  C5  UNL     1       0.259  28.702  19.210  1.00  0.00     0.103 C 
BRANCH  21  22
HETATM   22  C4  UNL     1       0.161  29.149  17.779  1.00  0.00     0.009 C 
BRANCH  22  23
HETATM   23  C3  UNL     1      -0.445  30.507  17.656  1.00  0.00     0.000 C 
BRANCH  23  24
HETATM   24  C2  UNL     1      -1.816  30.586  18.308  1.00  0.00    -0.005 C 
HETATM   25  C1  UNL     1      -2.896  30.515  17.231  1.00  0.00     0.005 C 
ENDBRANCH  23  24
ENDBRANCH  22  23
ENDBRANCH  21  22
ENDBRANCH  18  21
ENDBRANCH  16  17
ENDBRANCH  15  16
ENDBRANCH  14  15
ENDBRANCH   1  14
BRANCH   2  26
HETATM   26  S2  UNL     1       6.605  26.239  18.194  1.00  0.00    -0.124 SA
BRANCH  26  27
HETATM   27  C11 UNL     1       8.321  26.787  18.106  1.00  0.00     0.002 C 
HETATM   28  C12 UNL     1       8.720  27.612  19.302  1.00  0.00     0.026 C 
HETATM   29  C13 UNL     1       9.167  25.508  18.141  1.00  0.00     0.026 C 
HETATM   30  C14 UNL     1       8.636  27.542  16.860  1.00  0.00     0.026 C 
ENDBRANCH  26  27
ENDBRANCH   2  26
TORSDOF 10
ENDMDL
MODEL 3
REMARK VINA RESULT: -7.581961605      4.835      8.326
REMARK  10 active torsions:
REMARK  status: ('A' for Active; 'I' for Inactive)
REMARK    1  A    between atoms: C2_2  and  C3_3 
REMARK    2  A    between atoms: C3_3  and  C4_4 
REMARK    3  A    between atoms: C4_4  and  C5_5 
REMARK    4  A    between atoms: C5_5  and  C6_6 
REMARK       I    between atoms: C6_6  and  N1_8 
REMARK    5  A    between atoms: N1_8  and  C7_10 
REMARK    6  A    between atoms: C7_10  and  C8_11 
REMARK    7  A    between atoms: C8_11  and  S1_12 
REMARK    8  A    between atoms: S1_12  and  C9_13 
REMARK    9  A    between atoms: C10_14  and  S2_15 
REMARK   10  A    between atoms: S2_15  and  C11_16 
ROOT
HETATM    1  C9  UNL     1       5.851  25.013  21.291  1.00  0.00     0.064 A 
HETATM    2  C10 UNL     1       4.600  25.338  21.679  1.00  0.00     0.004 A 
HETATM    3  C15 UNL     1       4.042  24.928  22.949  1.00  0.00     0.093 A 
HETATM    4  C16 UNL     1       4.876  24.075  23.817  1.00  0.00     0.036 A 
HETATM    5  C17 UNL     1       6.130  23.735  23.457  1.00  0.00     0.030 A 
HETATM    6  C18 UNL     1       6.913  22.956  24.261  1.00  0.00     0.048 A 
HETATM    7  C19 UNL     1       6.381  22.522  25.464  1.00  0.00     0.054 A 
HETATM    8  C20 UNL     1       7.253  21.675  26.319  1.00  0.00     0.077 C 
HETATM    9  O2  UNL     1       5.162  22.871  25.781  1.00  0.00    -0.280 OA
HETATM   10  C21 UNL     1       4.387  23.612  25.040  1.00  0.00     0.295 A 
HETATM   11  O3  UNL     1       3.215  23.943  25.353  1.00  0.00    -0.259 OA
HETATM   12  C22 UNL     1       6.676  24.198  22.161  1.00  0.00     0.200 A 
HETATM   13  O4  UNL     1       7.850  23.854  21.884  1.00  0.00    -0.286 OA
ENDROOT
BRANCH   1  14
HETATM   14  S1  UNL     1       6.452  25.539  19.726  1.00  0.00    -0.123 SA
BRANCH  14  15
HETATM   15  C8  UNL     1       6.154  24.386  18.399  1.00  0.00     0.099 C 
BRANCH  15  16
HETATM   16  C7  UNL     1       7.362  23.543  18.147  1.00  0.00     0.133 C 
BRANCH  16  17
HETATM   17  N1  UNL     1       7.672  22.735  19.292  1.00  0.00    -0.360 N 
HETATM   18  C6  UNL     1       7.297  21.414  19.467  1.00  0.00     0.217 C 
HETATM   19  O1  UNL     1       6.640  20.738  18.658  1.00  0.00    -0.274 OA
ATOM     20  H1  UNL     1       8.212  23.170  20.039  1.00  0.00     0.162 HD
BRANCH  18  21
HETATM   21  C5  UNL     1       7.706  20.703  20.739  1.00  0.00     0.103 C 
BRANCH  21  22
HETATM   22  C4  UNL     1       7.154  19.306  20.795  1.00  0.00     0.009 C 
BRANCH  22  23
HETATM   23  C3  UNL     1       7.173  18.751  22.180  1.00  0.00     0.000 C 
BRANCH  23  24
HETATM   24  C2  UNL     1       6.226  17.571  22.339  1.00  0.00    -0.005 C 
HETATM   25  C1  UNL     1       6.060  17.249  23.822  1.00  0.00     0.005 C 
ENDBRANCH  23  24
ENDBRANCH  22  23
ENDBRANCH  21  22
ENDBRANCH  18  21
ENDBRANCH  16  17
ENDBRANCH  15  16
ENDBRANCH  14  15
ENDBRANCH   1  14
BRANCH   2  26
HETATM   26  S2  UNL     1       3.678  26.307  20.493  1.00  0.00    -0.124 SA
BRANCH  26  27
HETATM   27  C11 UNL     1       3.525  28.040  20.969  1.00  0.00     0.002 C 
HETATM   28  C12 UNL     1       4.398  28.390  22.146  1.00  0.00     0.026 C 
HETATM   29  C13 UNL     1       4.043  28.846  19.771  1.00  0.00     0.026 C 
HETATM   30  C14 UNL     1       2.122  28.451  21.258  1.00  0.00     0.026 C 
ENDBRANCH  26  27
ENDBRANCH   2  26
TORSDOF 10
ENDMDL
MODEL 4
REMARK VINA RESULT: -7.560081677      9.194     13.551
REMARK  10 active torsions:
REMARK  status: ('A' for Active; 'I' for Inactive)
REMARK    1  A    between atoms: C2_2  and  C3_3 
REMARK    2  A    between atoms: C3_3  and  C4_4 
REMARK    3  A    between atoms: C4_4  and  C5_5 
REMARK    4  A    between atoms: C5_5  and  C6_6 
REMARK       I    between atoms: C6_6  and  N1_8 
REMARK    5  A    between atoms: N1_8  and  C7_10 
REMARK    6  A    between atoms: C7_10  and  C8_11 
REMARK    7  A    between atoms: C8_11  and  S1_12 
REMARK    8  A    between atoms: S1_12  and  C9_13 
REMARK    9  A    between atoms: C10_14  and  S2_15 
REMARK   10  A    between atoms: S2_15  and  C11_16 
ROOT
HETATM    1  C9  UNL     1       6.285  19.408  11.459  1.00  0.00     0.064 A 
HETATM    2  C10 UNL     1       6.637  20.469  10.704  1.00  0.00     0.004 A 
HETATM    3  C15 UNL     1       8.004  20.732  10.311  1.00  0.00     0.093 A 
HETATM    4  C16 UNL     1       9.046  19.817  10.812  1.00  0.00     0.036 A 
HETATM    5  C17 UNL     1       8.725  18.747  11.568  1.00  0.00     0.030 A 
HETATM    6  C18 UNL     1       9.683  17.888  12.026  1.00  0.00     0.048 A 
HETATM    7  C19 UNL     1      11.002  18.147  11.692  1.00  0.00     0.054 A 
HETATM    8  C20 UNL     1      12.025  17.197  12.203  1.00  0.00     0.077 C 
HETATM    9  O2  UNL     1      11.277  19.192  10.957  1.00  0.00    -0.280 OA
HETATM   10  C21 UNL     1      10.390  20.033  10.503  1.00  0.00     0.295 A 
HETATM   11  O3  UNL     1      10.664  21.037   9.797  1.00  0.00    -0.259 OA
HETATM   12  C22 UNL     1       7.311  18.497  11.926  1.00  0.00     0.200 A 
HETATM   13  O4  UNL     1       7.074  17.483  12.626  1.00  0.00    -0.286 OA
ENDROOT
BRANCH   1  14
HETATM   14  S1  UNL     1       4.603  19.164  11.905  1.00  0.00    -0.123 SA
BRANCH  14  15
HETATM   15  C8  UNL     1       4.088  20.069  13.353  1.00  0.00     0.099 C 
BRANCH  15  16
HETATM   16  C7  UNL     1       5.195  20.142  14.355  1.00  0.00     0.133 C 
BRANCH  16  17
HETATM   17  N1  UNL     1       5.404  21.494  14.791  1.00  0.00    -0.360 N 
HETATM   18  C6  UNL     1       6.050  21.870  15.956  1.00  0.00     0.217 C 
HETATM   19  O1  UNL     1       6.541  21.093  16.791  1.00  0.00    -0.274 OA
ATOM     20  H1  UNL     1       5.047  22.239  14.193  1.00  0.00     0.162 HD
BRANCH  18  21
HETATM   21  C5  UNL     1       6.186  23.344  16.270  1.00  0.00     0.103 C 
BRANCH  21  22
HETATM   22  C4  UNL     1       7.155  24.022  15.342  1.00  0.00     0.009 C 
BRANCH  22  23
HETATM   23  C3  UNL     1       6.461  24.868  14.328  1.00  0.00     0.000 C 
BRANCH  23  24
HETATM   24  C2  UNL     1       6.683  24.365  12.910  1.00  0.00    -0.005 C 
HETATM   25  C1  UNL     1       7.827  23.354  12.902  1.00  0.00     0.005 C 
ENDBRANCH  23  24
ENDBRANCH  22  23
ENDBRANCH  21  22
ENDBRANCH  18  21
ENDBRANCH  16  17
ENDBRANCH  15  16
ENDBRANCH  14  15
ENDBRANCH   1  14
BRANCH   2  26
HETATM   26  S2  UNL     1       5.281  21.535  10.234  1.00  0.00    -0.124 SA
BRANCH  26  27
HETATM   27  C11 UNL     1       5.016  21.593   8.452  1.00  0.00     0.002 C 
HETATM   28  C12 UNL     1       5.047  20.224   7.823  1.00  0.00     0.026 C 
HETATM   29  C13 UNL     1       3.597  22.143   8.261  1.00  0.00     0.026 C 
HETATM   30  C14 UNL     1       5.979  22.482   7.741  1.00  0.00     0.026 C 
ENDBRANCH  26  27
ENDBRANCH   2  26
TORSDOF 10
ENDMDL
MODEL 5
REMARK VINA RESULT: -7.454091730      8.007     11.097
REMARK  10 active torsions:
REMARK  status: ('A' for Active; 'I' for Inactive)
REMARK    1  A    between atoms: C2_2  and  C3_3 
REMARK    2  A    between atoms: C3_3  and  C4_4 
REMARK    3  A    between atoms: C4_4  and  C5_5 
REMARK    4  A    between atoms: C5_5  and  C6_6 
REMARK       I    between atoms: C6_6  and  N1_8 
REMARK    5  A    between atoms: N1_8  and  C7_10 
REMARK    6  A    between atoms: C7_10  and  C8_11 
REMARK    7  A    between atoms: C8_11  and  S1_12 
REMARK    8  A    between atoms: S1_12  and  C9_13 
REMARK    9  A    between atoms: C10_14  and  S2_15 
REMARK   10  A    between atoms: S2_15  and  C11_16 
ROOT
HETATM    1  C9  UNL     1       6.249  22.301  13.617  1.00  0.00     0.064 A 
HETATM    2  C10 UNL     1       6.128  21.100  14.220  1.00  0.00     0.004 A 
HETATM    3  C15 UNL     1       6.218  20.931  15.654  1.00  0.00     0.093 A 
HETATM    4  C16 UNL     1       6.506  22.128  16.466  1.00  0.00     0.036 A 
HETATM    5  C17 UNL     1       6.632  23.342  15.891  1.00  0.00     0.030 A 
HETATM    6  C18 UNL     1       6.887  24.458  16.637  1.00  0.00     0.048 A 
HETATM    7  C19 UNL     1       7.015  24.308  18.008  1.00  0.00     0.054 A 
HETATM    8  C20 UNL     1       7.293  25.537  18.797  1.00  0.00     0.077 C 
HETATM    9  O2  UNL     1       6.887  23.117  18.531  1.00  0.00    -0.280 OA
HETATM   10  C21 UNL     1       6.644  22.032  17.851  1.00  0.00     0.295 A 
HETATM   11  O3  UNL     1       6.523  20.889  18.363  1.00  0.00    -0.259 OA
HETATM   12  C22 UNL     1       6.505  23.478  14.423  1.00  0.00     0.200 A 
HETATM   13  O4  UNL     1       6.626  24.633  13.948  1.00  0.00    -0.286 OA
ENDROOT
BRANCH   1  14
HETATM   14  S1  UNL     1       6.140  22.422  11.867  1.00  0.00    -0.123 SA
BRANCH  14  15
HETATM   15  C8  UNL     1       7.699  22.713  11.052  1.00  0.00     0.099 C 
BRANCH  15  16
HETATM   16  C7  UNL     1       7.997  21.626  10.071  1.00  0.00     0.133 C 
BRANCH  16  17
HETATM   17  N1  UNL     1       8.548  20.476  10.731  1.00  0.00    -0.360 N 
HETATM   18  C6  UNL     1       8.504  19.178  10.252  1.00  0.00     0.217 C 
HETATM   19  O1  UNL     1       7.982  18.822   9.181  1.00  0.00    -0.274 OA
ATOM     20  H1  UNL     1       9.009  20.627  11.627  1.00  0.00     0.162 HD
BRANCH  18  21
HETATM   21  C5  UNL     1       9.134  18.076  11.074  1.00  0.00     0.103 C 
BRANCH  21  22
HETATM   22  C4  UNL     1      10.552  18.403  11.447  1.00  0.00     0.009 C 
BRANCH  22  23
HETATM   23  C3  UNL     1      11.153  17.364  12.333  1.00  0.00     0.000 C 
BRANCH  23  24
HETATM   24  C2  UNL     1      12.670  17.328  12.230  1.00  0.00    -0.005 C 
HETATM   25  C1  UNL     1      13.190  18.720  11.881  1.00  0.00     0.005 C 
ENDBRANCH  23  24
ENDBRANCH  22  23
ENDBRANCH  21  22
ENDBRANCH  18  21
ENDBRANCH  16  17
ENDBRANCH  15  16
ENDBRANCH  14  15
ENDBRANCH   1  14
BRANCH   2  26
HETATM   26  S2  UNL     1       5.858  19.728  13.106  1.00  0.00    -0.124 SA
BRANCH  26  27
HETATM   27  C11 UNL     1       4.275  18.907  13.372  1.00  0.00     0.002 C 
HETATM   28  C12 UNL     1       3.165  19.884  13.659  1.00  0.00     0.026 C 
HETATM   29  C13 UNL     1       3.935  18.222  12.042  1.00  0.00     0.026 C 
HETATM   30  C14 UNL     1       4.316  17.879  14.450  1.00  0.00     0.026 C 
ENDBRANCH  26  27
ENDBRANCH   2  26
TORSDOF 10
ENDMDL
