MODEL 1
REMARK VINA RESULT: -8.066018436      0.000      0.000
REMARK  11 active torsions:
REMARK  status: ('A' for Active; 'I' for Inactive)
REMARK    1  A    between atoms: C6_6  and  C7_7 
REMARK    2  A    between atoms: C7_7  and  C10_10 
REMARK    3  A    between atoms: C10_10  and  O1_11 
REMARK    4  A    between atoms: O1_11  and  C11_12 
REMARK    5  A    between atoms: C13_17  and  C14_18 
REMARK    6  A    between atoms: C14_18  and  C15_19 
REMARK    7  A    between atoms: C15_19  and  O3_21 
REMARK    8  A    between atoms: O3_21  and  C16_22 
REMARK    9  A    between atoms: C16_22  and  C17_23 
REMARK   10  A    between atoms: C17_23  and  C18_24 
REMARK   11  A    between atoms: C18_24  and  O4_25 
ROOT
HETATM    1  C11 UNL     1       6.307  27.358  19.730  1.00  0.00     0.156 A 
HETATM    2  N1  UNL     1       6.944  28.263  19.053  1.00  0.00    -0.340 N 
ATOM      3  H1  UNL     1       7.675  27.990  18.396  1.00  0.00     0.167 HD
HETATM    4  C12 UNL     1       6.642  29.545  19.216  1.00  0.00     0.140 A 
HETATM    5  S1  UNL     1       5.398  29.483  20.381  1.00  0.00    -0.085 SA
HETATM    6  C13 UNL     1       5.335  27.772  20.599  1.00  0.00     0.044 A 
ENDROOT
BRANCH   1   7
HETATM    7  O1  UNL     1       6.598  25.972  19.586  1.00  0.00    -0.334 OA
BRANCH   7   8
HETATM    8  C10 UNL     1       5.897  25.153  18.685  1.00  0.00     0.186 C 
BRANCH   8   9
HETATM    9  C7  UNL     1       6.893  24.268  17.918  1.00  0.00    -0.022 C 
HETATM   10  C8  UNL     1       7.893  25.255  17.344  1.00  0.00     0.017 C 
HETATM   11  C9  UNL     1       7.559  23.403  18.928  1.00  0.00     0.017 C 
BRANCH   9  12
HETATM   12  C6  UNL     1       6.119  23.556  16.860  1.00  0.00    -0.005 C 
HETATM   13  C5  UNL     1       6.836  23.630  15.535  1.00  0.00     0.006 C 
HETATM   14  C4  UNL     1       6.184  22.740  14.500  1.00  0.00     0.009 C 
HETATM   15  C2  UNL     1       6.120  21.305  14.948  1.00  0.00    -0.048 C 
HETATM   16  C1  UNL     1       7.048  20.444  14.080  1.00  0.00     0.015 C 
HETATM   17  C3  UNL     1       4.721  20.774  14.701  1.00  0.00     0.015 C 
HETATM   18  C24 UNL     1       6.531  21.109  16.367  1.00  0.00     0.009 C 
HETATM   19  C23 UNL     1       5.910  22.126  17.306  1.00  0.00     0.006 C 
ENDBRANCH   9  12
ENDBRANCH   8   9
ENDBRANCH   7   8
ENDBRANCH   1   7
BRANCH   6  20
HETATM   20  C14 UNL     1       4.462  26.974  21.520  1.00  0.00     0.161 C 
BRANCH  20  21
HETATM   21  C15 UNL     1       3.175  26.684  20.832  1.00  0.00     0.263 C 
HETATM   22  O2  UNL     1       2.742  25.515  20.885  1.00  0.00    -0.265 OA
BRANCH  21  23
HETATM   23  O3  UNL     1       2.460  27.636  20.154  1.00  0.00    -0.320 OA
BRANCH  23  24
HETATM   24  C16 UNL     1       1.245  28.169  20.667  1.00  0.00     0.190 C 
BRANCH  24  25
HETATM   25  C17 UNL     1       0.722  29.224  19.715  1.00  0.00     0.003 C 
HETATM   26  C19 UNL     1      -0.024  28.501  18.599  1.00  0.00     0.014 C 
HETATM   27  C20 UNL     1       0.097  29.390  17.406  1.00  0.00     0.001 C 
HETATM   28  C21 UNL     1       1.332  30.223  17.606  1.00  0.00     0.001 C 
HETATM   29  C22 UNL     1       1.824  29.983  19.015  1.00  0.00     0.014 C 
BRANCH  25  30
HETATM   30  C18 UNL     1      -0.200  30.209  20.379  1.00  0.00     0.175 C 
BRANCH  30  31
HETATM   31  O4  UNL     1      -1.541  29.859  20.197  1.00  0.00    -0.400 OA
ATOM     32  H4  UNL     1      -2.068  30.098  20.950  1.00  0.00     0.209 HD
ENDBRANCH  30  31
ENDBRANCH  25  30
ENDBRANCH  24  25
ENDBRANCH  23  24
ENDBRANCH  21  23
ENDBRANCH  20  21
ENDBRANCH   6  20
TORSDOF 11
ENDMDL
MODEL 2
REMARK VINA RESULT: -8.038161930      1.118      1.488
REMARK  11 active torsions:
REMARK  status: ('A' for Active; 'I' for Inactive)
REMARK    1  A    between atoms: C6_6  and  C7_7 
REMARK    2  A    between atoms: C7_7  and  C10_10 
REMARK    3  A    between atoms: C10_10  and  O1_11 
REMARK    4  A    between atoms: O1_11  and  C11_12 
REMARK    5  A    between atoms: C13_17  and  C14_18 
REMARK    6  A    between atoms: C14_18  and  C15_19 
REMARK    7  A    between atoms: C15_19  and  O3_21 
REMARK    8  A    between atoms: O3_21  and  C16_22 
REMARK    9  A    between atoms: C16_22  and  C17_23 
REMARK   10  A    between atoms: C17_23  and  C18_24 
REMARK   11  A    between atoms: C18_24  and  O4_25 
ROOT
HETATM    1  C11 UNL     1       6.211  27.797  19.840  1.00  0.00     0.156 A 
HETATM    2  N1  UNL     1       6.784  28.740  19.157  1.00  0.00    -0.340 N 
ATOM      3  H1  UNL     1       7.589  28.528  18.569  1.00  0.00     0.167 HD
HETATM    4  C12 UNL     1       6.318  29.981  19.224  1.00  0.00     0.140 A 
HETATM    5  S1  UNL     1       5.006  29.822  20.302  1.00  0.00    -0.085 SA
HETATM    6  C13 UNL     1       5.133  28.129  20.614  1.00  0.00     0.044 A 
ENDROOT
BRANCH   1   7
HETATM    7  O1  UNL     1       6.676  26.452  19.797  1.00  0.00    -0.334 OA
BRANCH   7   8
HETATM    8  C10 UNL     1       6.038  25.467  19.026  1.00  0.00     0.186 C 
BRANCH   8   9
HETATM    9  C7  UNL     1       7.088  24.702  18.203  1.00  0.00    -0.022 C 
HETATM   10  C8  UNL     1       8.403  25.354  18.591  1.00  0.00     0.017 C 
HETATM   11  C9  UNL     1       7.061  23.294  18.682  1.00  0.00     0.017 C 
BRANCH   9  12
HETATM   12  C6  UNL     1       6.750  24.906  16.765  1.00  0.00    -0.005 C 
HETATM   13  C5  UNL     1       7.966  25.350  15.990  1.00  0.00     0.006 C 
HETATM   14  C4  UNL     1       7.703  25.357  14.501  1.00  0.00     0.009 C 
HETATM   15  C2  UNL     1       7.260  24.009  13.997  1.00  0.00    -0.048 C 
HETATM   16  C1  UNL     1       8.344  23.407  13.092  1.00  0.00     0.015 C 
HETATM   17  C3  UNL     1       6.043  24.189  13.112  1.00  0.00     0.015 C 
HETATM   18  C24 UNL     1       6.997  23.028  15.088  1.00  0.00     0.009 C 
HETATM   19  C23 UNL     1       6.180  23.614  16.223  1.00  0.00     0.006 C 
ENDBRANCH   9  12
ENDBRANCH   8   9
ENDBRANCH   7   8
ENDBRANCH   1   7
BRANCH   6  20
HETATM   20  C14 UNL     1       4.296  27.275  21.518  1.00  0.00     0.161 C 
BRANCH  20  21
HETATM   21  C15 UNL     1       3.090  26.824  20.772  1.00  0.00     0.263 C 
HETATM   22  O2  UNL     1       2.786  25.616  20.840  1.00  0.00    -0.265 OA
BRANCH  21  23
HETATM   23  O3  UNL     1       2.314  27.671  20.025  1.00  0.00    -0.320 OA
BRANCH  23  24
HETATM   24  C16 UNL     1       1.077  28.182  20.511  1.00  0.00     0.190 C 
BRANCH  24  25
HETATM   25  C17 UNL     1       0.578  29.256  19.569  1.00  0.00     0.003 C 
HETATM   26  C19 UNL     1      -0.141  28.557  18.420  1.00  0.00     0.014 C 
HETATM   27  C20 UNL     1       0.009  29.472  17.250  1.00  0.00     0.001 C 
HETATM   28  C21 UNL     1       1.237  30.301  17.498  1.00  0.00     0.001 C 
HETATM   29  C22 UNL     1       1.696  30.030  18.913  1.00  0.00     0.014 C 
BRANCH  25  30
HETATM   30  C18 UNL     1      -0.361  30.226  20.232  1.00  0.00     0.175 C 
BRANCH  30  31
HETATM   31  O4  UNL     1      -1.676  29.754  20.224  1.00  0.00    -0.400 OA
ATOM     32  H4  UNL     1      -2.299  30.460  20.097  1.00  0.00     0.209 HD
ENDBRANCH  30  31
ENDBRANCH  25  30
ENDBRANCH  24  25
ENDBRANCH  23  24
ENDBRANCH  21  23
ENDBRANCH  20  21
ENDBRANCH   6  20
TORSDOF 11
ENDMDL
MODEL 3
REMARK VINA RESULT: -7.882815776      4.532      9.499
REMARK  11 active torsions:
REMARK  status: ('A' for Active; 'I' for Inactive)
REMARK    1  A    between atoms: C6_6  and  C7_7 
REMARK    2  A    between atoms: C7_7  and  C10_10 
REMARK    3  A    between atoms: C10_10  and  O1_11 
REMARK    4  A    between atoms: O1_11  and  C11_12 
REMARK    5  A    between atoms: C13_17  and  C14_18 
REMARK    6  A    between atoms: C14_18  and  C15_19 
REMARK    7  A    between atoms: C15_19  and  O3_21 
REMARK    8  A    between atoms: O3_21  and  C16_22 
REMARK    9  A    between atoms: C16_22  and  C17_23 
REMARK   10  A    between atoms: C17_23  and  C18_24 
REMARK   11  A    between atoms: C18_24  and  O4_25 
ROOT
HETATM    1  C11 UNL     1       6.440  23.292  16.311  1.00  0.00     0.156 A 
HETATM    2  N1  UNL     1       6.326  22.151  16.918  1.00  0.00    -0.340 N 
ATOM      3  H1  UNL     1       6.424  22.100  17.932  1.00  0.00     0.167 HD
HETATM    4  C12 UNL     1       6.080  21.051  16.217  1.00  0.00     0.140 A 
HETATM    5  S1  UNL     1       6.005  21.644  14.620  1.00  0.00    -0.085 SA
HETATM    6  C13 UNL     1       6.301  23.312  14.950  1.00  0.00     0.044 A 
ENDROOT
BRANCH   1   7
HETATM    7  O1  UNL     1       6.702  24.497  17.023  1.00  0.00    -0.334 OA
BRANCH   7   8
HETATM    8  C10 UNL     1       6.134  24.757  18.281  1.00  0.00     0.186 C 
BRANCH   8   9
HETATM    9  C7  UNL     1       7.228  25.250  19.243  1.00  0.00    -0.022 C 
HETATM   10  C8  UNL     1       7.600  24.012  20.039  1.00  0.00     0.017 C 
HETATM   11  C9  UNL     1       8.378  25.673  18.399  1.00  0.00     0.017 C 
BRANCH   9  12
HETATM   12  C6  UNL     1       6.617  26.314  20.091  1.00  0.00    -0.005 C 
HETATM   13  C5  UNL     1       6.501  27.607  19.322  1.00  0.00     0.006 C 
HETATM   14  C4  UNL     1       5.695  28.635  20.084  1.00  0.00     0.009 C 
HETATM   15  C2  UNL     1       4.316  28.135  20.423  1.00  0.00    -0.048 C 
HETATM   16  C1  UNL     1       3.264  28.926  19.633  1.00  0.00     0.015 C 
HETATM   17  C3  UNL     1       4.032  28.425  21.884  1.00  0.00     0.015 C 
HETATM   18  C24 UNL     1       4.116  26.692  20.108  1.00  0.00     0.009 C 
HETATM   19  C23 UNL     1       5.270  25.823  20.571  1.00  0.00     0.006 C 
ENDBRANCH   9  12
ENDBRANCH   8   9
ENDBRANCH   7   8
ENDBRANCH   1   7
BRANCH   6  20
HETATM   20  C14 UNL     1       6.403  24.456  13.988  1.00  0.00     0.161 C 
BRANCH  20  21
HETATM   21  C15 UNL     1       7.099  23.990  12.758  1.00  0.00     0.263 C 
HETATM   22  O2  UNL     1       8.284  23.617  12.870  1.00  0.00    -0.265 OA
BRANCH  21  23
HETATM   23  O3  UNL     1       6.497  23.955  11.527  1.00  0.00    -0.320 OA
BRANCH  23  24
HETATM   24  C16 UNL     1       5.732  22.834  11.096  1.00  0.00     0.190 C 
BRANCH  24  25
HETATM   25  C17 UNL     1       6.250  22.366   9.753  1.00  0.00     0.003 C 
HETATM   26  C19 UNL     1       6.747  23.596   9.001  1.00  0.00     0.014 C 
HETATM   27  C20 UNL     1       6.580  23.265   7.555  1.00  0.00     0.001 C 
HETATM   28  C21 UNL     1       5.495  22.229   7.467  1.00  0.00     0.001 C 
HETATM   29  C22 UNL     1       5.167  21.786   8.874  1.00  0.00     0.014 C 
BRANCH  25  30
HETATM   30  C18 UNL     1       7.367  21.365   9.872  1.00  0.00     0.175 C 
BRANCH  30  31
HETATM   31  O4  UNL     1       8.496  21.926  10.475  1.00  0.00    -0.400 OA
ATOM     32  H4  UNL     1       9.059  21.259  10.850  1.00  0.00     0.209 HD
ENDBRANCH  30  31
ENDBRANCH  25  30
ENDBRANCH  24  25
ENDBRANCH  23  24
ENDBRANCH  21  23
ENDBRANCH  20  21
ENDBRANCH   6  20
TORSDOF 11
ENDMDL
MODEL 4
REMARK VINA RESULT: -7.648982722      1.669      2.508
REMARK  11 active torsions:
REMARK  status: ('A' for Active; 'I' for Inactive)
REMARK    1  A    between atoms: C6_6  and  C7_7 
REMARK    2  A    between atoms: C7_7  and  C10_10 
REMARK    3  A    between atoms: C10_10  and  O1_11 
REMARK    4  A    between atoms: O1_11  and  C11_12 
REMARK    5  A    between atoms: C13_17  and  C14_18 
REMARK    6  A    between atoms: C14_18  and  C15_19 
REMARK    7  A    between atoms: C15_19  and  O3_21 
REMARK    8  A    between atoms: O3_21  and  C16_22 
REMARK    9  A    between atoms: C16_22  and  C17_23 
REMARK   10  A    between atoms: C17_23  and  C18_24 
REMARK   11  A    between atoms: C18_24  and  O4_25 
ROOT
HETATM    1  C11 UNL     1       5.317  27.410  19.672  1.00  0.00     0.156 A 
HETATM    2  N1  UNL     1       6.288  28.248  19.472  1.00  0.00    -0.340 N 
ATOM      3  H1  UNL     1       7.129  27.947  18.980  1.00  0.00     0.167 HD
HETATM    4  C12 UNL     1       6.184  29.497  19.909  1.00  0.00     0.140 A 
HETATM    5  S1  UNL     1       4.644  29.503  20.640  1.00  0.00    -0.085 SA
HETATM    6  C13 UNL     1       4.208  27.860  20.337  1.00  0.00     0.044 A 
ENDROOT
BRANCH   1   7
HETATM    7  O1  UNL     1       5.385  26.063  19.220  1.00  0.00    -0.334 OA
BRANCH   7   8
HETATM    8  C10 UNL     1       6.112  25.080  19.913  1.00  0.00     0.186 C 
BRANCH   8   9
HETATM    9  C7  UNL     1       7.204  24.509  18.992  1.00  0.00    -0.022 C 
HETATM   10  C8  UNL     1       8.485  25.139  19.509  1.00  0.00     0.017 C 
HETATM   11  C9  UNL     1       7.232  23.040  19.227  1.00  0.00     0.017 C 
BRANCH   9  12
HETATM   12  C6  UNL     1       6.874  24.940  17.604  1.00  0.00    -0.005 C 
HETATM   13  C5  UNL     1       8.117  25.392  16.877  1.00  0.00     0.006 C 
HETATM   14  C4  UNL     1       7.845  25.630  15.408  1.00  0.00     0.009 C 
HETATM   15  C2  UNL     1       7.292  24.406  14.729  1.00  0.00    -0.048 C 
HETATM   16  C1  UNL     1       8.319  23.855  13.728  1.00  0.00     0.015 C 
HETATM   17  C3  UNL     1       6.088  24.803  13.900  1.00  0.00     0.015 C 
HETATM   18  C24 UNL     1       6.960  23.304  15.676  1.00  0.00     0.009 C 
HETATM   19  C23 UNL     1       6.199  23.786  16.896  1.00  0.00     0.006 C 
ENDBRANCH   9  12
ENDBRANCH   8   9
ENDBRANCH   7   8
ENDBRANCH   1   7
BRANCH   6  20
HETATM   20  C14 UNL     1       2.960  27.131  20.730  1.00  0.00     0.161 C 
BRANCH  20  21
HETATM   21  C15 UNL     1       1.797  28.045  20.565  1.00  0.00     0.263 C 
HETATM   22  O2  UNL     1       0.946  28.068  21.476  1.00  0.00    -0.265 OA
BRANCH  21  23
HETATM   23  O3  UNL     1       1.629  28.848  19.467  1.00  0.00    -0.320 OA
BRANCH  23  24
HETATM   24  C16 UNL     1       0.783  29.992  19.497  1.00  0.00     0.190 C 
BRANCH  24  25
HETATM   25  C17 UNL     1      -0.429  29.738  18.627  1.00  0.00     0.003 C 
HETATM   26  C19 UNL     1      -0.699  31.014  17.836  1.00  0.00     0.014 C 
HETATM   27  C20 UNL     1      -2.169  31.009  17.576  1.00  0.00     0.001 C 
HETATM   28  C21 UNL     1      -2.802  30.174  18.653  1.00  0.00     0.001 C 
HETATM   29  C22 UNL     1      -1.689  29.505  19.427  1.00  0.00     0.014 C 
BRANCH  25  30
HETATM   30  C18 UNL     1      -0.238  28.589  17.676  1.00  0.00     0.175 C 
BRANCH  30  31
HETATM   31  O4  UNL     1       0.487  28.974  16.546  1.00  0.00    -0.400 OA
ATOM     32  H4  UNL     1       0.054  28.704  15.745  1.00  0.00     0.209 HD
ENDBRANCH  30  31
ENDBRANCH  25  30
ENDBRANCH  24  25
ENDBRANCH  23  24
ENDBRANCH  21  23
ENDBRANCH  20  21
ENDBRANCH   6  20
TORSDOF 11
ENDMDL
MODEL 5
REMARK VINA RESULT: -7.604025719      4.968      8.324
REMARK  11 active torsions:
REMARK  status: ('A' for Active; 'I' for Inactive)
REMARK    1  A    between atoms: C6_6  and  C7_7 
REMARK    2  A    between atoms: C7_7  and  C10_10 
REMARK    3  A    between atoms: C10_10  and  O1_11 
REMARK    4  A    between atoms: O1_11  and  C11_12 
REMARK    5  A    between atoms: C13_17  and  C14_18 
REMARK    6  A    between atoms: C14_18  and  C15_19 
REMARK    7  A    between atoms: C15_19  and  O3_21 
REMARK    8  A    between atoms: O3_21  and  C16_22 
REMARK    9  A    between atoms: C16_22  and  C17_23 
REMARK   10  A    between atoms: C17_23  and  C18_24 
REMARK   11  A    between atoms: C18_24  and  O4_25 
ROOT
HETATM    1  C11 UNL     1       5.296  21.150  13.603  1.00  0.00     0.156 A 
HETATM    2  N1  UNL     1       4.339  20.277  13.684  1.00  0.00    -0.340 N 
ATOM      3  H1  UNL     1       3.884  19.937  12.838  1.00  0.00     0.167 HD
HETATM    4  C12 UNL     1       3.954  19.828  14.873  1.00  0.00     0.140 A 
HETATM    5  S1  UNL     1       4.987  20.671  15.935  1.00  0.00    -0.085 SA
HETATM    6  C13 UNL     1       5.877  21.577  14.765  1.00  0.00     0.044 A 
ENDROOT
BRANCH   1   7
HETATM    7  O1  UNL     1       5.741  21.658  12.350  1.00  0.00    -0.334 OA
BRANCH   7   8
HETATM    8  C10 UNL     1       6.698  20.987  11.571  1.00  0.00     0.186 C 
BRANCH   8   9
HETATM    9  C7  UNL     1       7.332  21.974  10.577  1.00  0.00    -0.022 C 
HETATM   10  C8  UNL     1       6.826  23.330  11.035  1.00  0.00     0.017 C 
HETATM   11  C9  UNL     1       8.804  21.890  10.774  1.00  0.00     0.017 C 
BRANCH   9  12
HETATM   12  C6  UNL     1       6.836  21.607   9.220  1.00  0.00    -0.005 C 
HETATM   13  C5  UNL     1       6.099  20.291   9.259  1.00  0.00     0.006 C 
HETATM   14  C4  UNL     1       5.406  20.003   7.946  1.00  0.00     0.009 C 
HETATM   15  C2  UNL     1       4.446  21.097   7.561  1.00  0.00    -0.048 C 
HETATM   16  C1  UNL     1       3.004  20.574   7.629  1.00  0.00     0.015 C 
HETATM   17  C3  UNL     1       4.677  21.466   6.109  1.00  0.00     0.015 C 
HETATM   18  C24 UNL     1       4.527  22.294   8.445  1.00  0.00     0.009 C 
HETATM   19  C23 UNL     1       5.954  22.729   8.717  1.00  0.00     0.006 C 
ENDBRANCH   9  12
ENDBRANCH   8   9
ENDBRANCH   7   8
ENDBRANCH   1   7
BRANCH   6  20
HETATM   20  C14 UNL     1       6.969  22.579  14.985  1.00  0.00     0.161 C 
BRANCH  20  21
HETATM   21  C15 UNL     1       6.364  23.853  15.459  1.00  0.00     0.263 C 
HETATM   22  O2  UNL     1       6.043  24.696  14.598  1.00  0.00    -0.265 OA
BRANCH  21  23
HETATM   23  O3  UNL     1       6.151  24.131  16.784  1.00  0.00    -0.320 OA
BRANCH  23  24
HETATM   24  C16 UNL     1       6.875  23.472  17.816  1.00  0.00     0.190 C 
BRANCH  24  25
HETATM   25  C17 UNL     1       7.237  24.475  18.891  1.00  0.00     0.003 C 
HETATM   26  C19 UNL     1       6.019  25.367  19.110  1.00  0.00     0.014 C 
HETATM   27  C20 UNL     1       6.571  26.674  19.575  1.00  0.00     0.001 C 
HETATM   28  C21 UNL     1       7.979  26.764  19.058  1.00  0.00     0.001 C 
HETATM   29  C22 UNL     1       8.338  25.418  18.469  1.00  0.00     0.014 C 
BRANCH  25  30
HETATM   30  C18 UNL     1       7.624  23.826  20.191  1.00  0.00     0.175 C 
BRANCH  30  31
HETATM   31  O4  UNL     1       7.916  22.470  20.022  1.00  0.00    -0.400 OA
ATOM     32  H4  UNL     1       8.504  22.330  19.289  1.00  0.00     0.209 HD
ENDBRANCH  30  31
ENDBRANCH  25  30
ENDBRANCH  24  25
ENDBRANCH  23  24
ENDBRANCH  21  23
ENDBRANCH  20  21
ENDBRANCH   6  20
TORSDOF 11
ENDMDL
