MODEL 1
REMARK VINA RESULT: -9.407955017      0.000      0.000
REMARK  10 active torsions:
REMARK  status: ('A' for Active; 'I' for Inactive)
REMARK    1  A    between atoms: C4_5  and  O2_6 
REMARK    2  A    between atoms: C4_5  and  C5_8 
REMARK    3  A    between atoms: C5_8  and  C6_9 
REMARK    4  A    between atoms: C8_11  and  C9_12 
REMARK    5  A    between atoms: C13_16  and  C14_17 
REMARK    6  A    between atoms: C14_17  and  O3_18 
REMARK    7  A    between atoms: O3_18  and  N1_19 
REMARK    8  A    between atoms: C17_26  and  C18_27 
REMARK    9  A    between atoms: C20_29  and  C21_30 
REMARK   10  A    between atoms: C21_30  and  C22_31 
ROOT
HETATM    1  C5  UNL     1       6.840  25.026  20.043  1.00  0.00     0.103 C 
ENDROOT
BRANCH   1   2
HETATM    2  C4  UNL     1       7.863  25.328  18.988  1.00  0.00     0.176 C 
HETATM    3  O1  UNL     1       8.456  26.586  19.231  1.00  0.00    -0.350 OA
HETATM    4  C3  UNL     1       8.892  27.101  18.044  1.00  0.00     0.206 C 
HETATM    5  C2  UNL     1       8.419  26.193  16.968  1.00  0.00    -0.052 C 
HETATM    6  C1  UNL     1       8.906  26.074  15.767  1.00  0.00     0.017 C 
HETATM    7  C17 UNL     1       7.288  25.481  17.609  1.00  0.00     0.106 C 
BRANCH   7   8
HETATM    8  C18 UNL     1       6.887  24.245  16.923  1.00  0.00    -0.074 C 
HETATM    9  C19 UNL     1       6.397  24.456  15.499  1.00  0.00     0.044 C 
HETATM   10  C20 UNL     1       6.860  23.023  17.371  1.00  0.00    -0.020 C 
BRANCH  10  11
HETATM   11  C21 UNL     1       6.418  21.897  16.512  1.00  0.00     0.054 C 
BRANCH  11  12
HETATM   12  C22 UNL     1       5.738  20.834  17.296  1.00  0.00    -0.021 C 
HETATM   13  C23 UNL     1       4.787  20.041  16.881  1.00  0.00    -0.091 C 
HETATM   14  C24 UNL     1       4.218  19.030  17.802  1.00  0.00     0.042 C 
HETATM   15  C25 UNL     1       4.245  20.129  15.507  1.00  0.00     0.042 C 
ENDBRANCH  11  12
ENDBRANCH  10  11
ENDBRANCH   7   8
BRANCH   2  16
HETATM   16  O2  UNL     1       8.914  24.437  18.964  1.00  0.00    -0.364 OA
ATOM     17  H2  UNL     1       9.170  24.383  18.051  1.00  0.00     0.213 HD
ENDBRANCH   2  16
ENDBRANCH   1   2
BRANCH   1  18
HETATM   18  C6  UNL     1       5.662  25.932  19.997  1.00  0.00    -0.076 C 
HETATM   19  C7  UNL     1       4.429  25.403  19.373  1.00  0.00     0.043 C 
HETATM   20  C8  UNL     1       5.688  27.157  20.459  1.00  0.00     0.032 C 
BRANCH  20  21
HETATM   21  C9  UNL     1       4.503  27.997  20.389  1.00  0.00     0.033 A 
HETATM   22  C10 UNL     1       3.448  27.761  21.263  1.00  0.00     0.037 A 
HETATM   23  C11 UNL     1       2.311  28.524  21.216  1.00  0.00    -0.049 A 
HETATM   24  C12 UNL     1       1.174  28.314  22.113  1.00  0.00     0.049 C 
HETATM   25  C13 UNL     1       2.232  29.549  20.268  1.00  0.00    -0.004 A 
HETATM   26  C15 UNL     1       3.270  29.787  19.401  1.00  0.00     0.014 A 
HETATM   27  C16 UNL     1       3.267  30.851  18.368  1.00  0.00     0.069 C 
HETATM   28  N2  UNL     1       4.371  28.989  19.506  1.00  0.00    -0.359 N 
ATOM     29  H2  UNL     1       5.146  29.162  18.864  1.00  0.00     0.166 HD
BRANCH  25  30
HETATM   30  C14 UNL     1       1.012  30.335  20.249  1.00  0.00     0.249 C 
BRANCH  30  31
HETATM   31  O3  UNL     1       0.064  29.895  19.322  1.00  0.00    -0.217 OA
BRANCH  31  32
HETATM   32  N1  UNL     1      -1.277  29.945  19.533  1.00  0.00     0.005 N 
HETATM   33  O4  UNL     1      -1.903  30.938  19.097  1.00  0.00    -0.511 OA
HETATM   34  O5  UNL     1      -1.895  28.930  20.203  1.00  0.00    -0.511 OA
ENDBRANCH  31  32
ENDBRANCH  30  31
ENDBRANCH  25  30
ENDBRANCH  20  21
ENDBRANCH   1  18
TORSDOF 10
ENDMDL
MODEL 2
REMARK VINA RESULT: -9.407696197      2.267      3.969
REMARK  10 active torsions:
REMARK  status: ('A' for Active; 'I' for Inactive)
REMARK    1  A    between atoms: C4_5  and  O2_6 
REMARK    2  A    between atoms: C4_5  and  C5_8 
REMARK    3  A    between atoms: C5_8  and  C6_9 
REMARK    4  A    between atoms: C8_11  and  C9_12 
REMARK    5  A    between atoms: C13_16  and  C14_17 
REMARK    6  A    between atoms: C14_17  and  O3_18 
REMARK    7  A    between atoms: O3_18  and  N1_19 
REMARK    8  A    between atoms: C17_26  and  C18_27 
REMARK    9  A    between atoms: C20_29  and  C21_30 
REMARK   10  A    between atoms: C21_30  and  C22_31 
ROOT
HETATM    1  C5  UNL     1       8.267  26.776  19.501  1.00  0.00     0.103 C 
ENDROOT
BRANCH   1   2
HETATM    2  C4  UNL     1       8.123  25.506  18.715  1.00  0.00     0.176 C 
HETATM    3  O1  UNL     1       7.914  25.800  17.351  1.00  0.00    -0.350 OA
HETATM    4  C3  UNL     1       7.219  24.770  16.782  1.00  0.00     0.206 C 
HETATM    5  C2  UNL     1       6.835  23.840  17.875  1.00  0.00    -0.052 C 
HETATM    6  C1  UNL     1       6.521  22.583  17.765  1.00  0.00     0.017 C 
HETATM    7  C17 UNL     1       6.911  24.698  19.081  1.00  0.00     0.106 C 
BRANCH   7   8
HETATM    8  C18 UNL     1       6.974  23.955  20.347  1.00  0.00    -0.074 C 
HETATM    9  C19 UNL     1       7.638  22.591  20.233  1.00  0.00     0.044 C 
HETATM   10  C20 UNL     1       6.518  24.281  21.521  1.00  0.00    -0.020 C 
BRANCH  10  11
HETATM   11  C21 UNL     1       6.683  23.383  22.691  1.00  0.00     0.054 C 
BRANCH  11  12
HETATM   12  C22 UNL     1       5.670  23.648  23.743  1.00  0.00    -0.021 C 
HETATM   13  C23 UNL     1       5.718  23.266  24.992  1.00  0.00    -0.091 C 
HETATM   14  C24 UNL     1       4.612  23.621  25.911  1.00  0.00     0.042 C 
HETATM   15  C25 UNL     1       6.849  22.472  25.519  1.00  0.00     0.042 C 
ENDBRANCH  11  12
ENDBRANCH  10  11
ENDBRANCH   7   8
BRANCH   2  16
HETATM   16  O2  UNL     1       9.245  24.708  18.741  1.00  0.00    -0.364 OA
ATOM     17  H2  UNL     1       8.917  23.824  18.850  1.00  0.00     0.213 HD
ENDBRANCH   2  16
ENDBRANCH   1   2
BRANCH   1  18
HETATM   18  C6  UNL     1       7.022  27.587  19.542  1.00  0.00    -0.076 C 
HETATM   19  C7  UNL     1       7.075  28.936  18.935  1.00  0.00     0.043 C 
HETATM   20  C8  UNL     1       5.915  27.164  20.100  1.00  0.00     0.032 C 
BRANCH  20  21
HETATM   21  C9  UNL     1       4.726  28.001  20.107  1.00  0.00     0.033 A 
HETATM   22  C10 UNL     1       3.677  27.687  20.964  1.00  0.00     0.037 A 
HETATM   23  C11 UNL     1       2.536  28.446  20.987  1.00  0.00    -0.049 A 
HETATM   24  C12 UNL     1       1.405  28.155  21.871  1.00  0.00     0.049 C 
HETATM   25  C13 UNL     1       2.447  29.545  20.129  1.00  0.00    -0.004 A 
HETATM   26  C15 UNL     1       3.477  29.860  19.279  1.00  0.00     0.014 A 
HETATM   27  C16 UNL     1       3.463  31.007  18.338  1.00  0.00     0.069 C 
HETATM   28  N2  UNL     1       4.583  29.062  19.310  1.00  0.00    -0.359 N 
ATOM     29  H2  UNL     1       5.353  29.292  18.681  1.00  0.00     0.166 HD
BRANCH  25  30
HETATM   30  C14 UNL     1       1.223  30.324  20.183  1.00  0.00     0.249 C 
BRANCH  30  31
HETATM   31  O3  UNL     1       0.238  29.901  19.286  1.00  0.00    -0.217 OA
BRANCH  31  32
HETATM   32  N1  UNL     1      -1.093  29.923  19.561  1.00  0.00     0.005 N 
HETATM   33  O4  UNL     1      -1.749  30.926  19.198  1.00  0.00    -0.511 OA
HETATM   34  O5  UNL     1      -1.667  28.872  20.213  1.00  0.00    -0.511 OA
ENDBRANCH  31  32
ENDBRANCH  30  31
ENDBRANCH  25  30
ENDBRANCH  20  21
ENDBRANCH   1  18
TORSDOF 10
ENDMDL
MODEL 3
REMARK VINA RESULT: -9.364145675      2.230      3.138
REMARK  10 active torsions:
REMARK  status: ('A' for Active; 'I' for Inactive)
REMARK    1  A    between atoms: C4_5  and  O2_6 
REMARK    2  A    between atoms: C4_5  and  C5_8 
REMARK    3  A    between atoms: C5_8  and  C6_9 
REMARK    4  A    between atoms: C8_11  and  C9_12 
REMARK    5  A    between atoms: C13_16  and  C14_17 
REMARK    6  A    between atoms: C14_17  and  O3_18 
REMARK    7  A    between atoms: O3_18  and  N1_19 
REMARK    8  A    between atoms: C17_26  and  C18_27 
REMARK    9  A    between atoms: C20_29  and  C21_30 
REMARK   10  A    between atoms: C21_30  and  C22_31 
ROOT
HETATM    1  C5  UNL     1       8.042  25.945  19.676  1.00  0.00     0.103 C 
ENDROOT
BRANCH   1   2
HETATM    2  C4  UNL     1       7.892  24.891  18.620  1.00  0.00     0.176 C 
HETATM    3  O1  UNL     1       7.410  25.465  17.424  1.00  0.00    -0.350 OA
HETATM    4  C3  UNL     1       6.737  24.508  16.719  1.00  0.00     0.206 C 
HETATM    5  C2  UNL     1       6.657  23.300  17.579  1.00  0.00    -0.052 C 
HETATM    6  C1  UNL     1       6.462  22.072  17.196  1.00  0.00     0.017 C 
HETATM    7  C17 UNL     1       6.858  23.849  18.941  1.00  0.00     0.106 C 
BRANCH   7   8
HETATM    8  C18 UNL     1       7.228  22.845  19.948  1.00  0.00    -0.074 C 
HETATM    9  C19 UNL     1       7.234  23.371  21.375  1.00  0.00     0.044 C 
HETATM   10  C20 UNL     1       7.579  21.603  19.786  1.00  0.00    -0.020 C 
BRANCH  10  11
HETATM   11  C21 UNL     1       7.919  20.740  20.945  1.00  0.00     0.054 C 
BRANCH  11  12
HETATM   12  C22 UNL     1       7.152  19.469  20.934  1.00  0.00    -0.021 C 
HETATM   13  C23 UNL     1       6.838  18.734  21.968  1.00  0.00    -0.091 C 
HETATM   14  C24 UNL     1       6.062  17.487  21.775  1.00  0.00     0.042 C 
HETATM   15  C25 UNL     1       7.246  19.107  23.340  1.00  0.00     0.042 C 
ENDBRANCH  11  12
ENDBRANCH  10  11
ENDBRANCH   7   8
BRANCH   2  16
HETATM   16  O2  UNL     1       9.079  24.284  18.271  1.00  0.00    -0.364 OA
ATOM     17  H2  UNL     1       9.689  24.998  18.131  1.00  0.00     0.213 HD
ENDBRANCH   2  16
ENDBRANCH   1   2
BRANCH   1  18
HETATM   18  C6  UNL     1       6.886  26.879  19.742  1.00  0.00    -0.076 C 
HETATM   19  C7  UNL     1       7.123  28.276  19.316  1.00  0.00     0.043 C 
HETATM   20  C8  UNL     1       5.703  26.518  20.174  1.00  0.00     0.032 C 
BRANCH  20  21
HETATM   21  C9  UNL     1       4.609  27.474  20.214  1.00  0.00     0.033 A 
HETATM   22  C10 UNL     1       3.531  27.241  21.061  1.00  0.00     0.037 A 
HETATM   23  C11 UNL     1       2.476  28.114  21.114  1.00  0.00    -0.049 A 
HETATM   24  C12 UNL     1       1.319  27.913  21.988  1.00  0.00     0.049 C 
HETATM   25  C13 UNL     1       2.505  29.248  20.296  1.00  0.00    -0.004 A 
HETATM   26  C15 UNL     1       3.565  29.484  19.457  1.00  0.00     0.014 A 
HETATM   27  C16 UNL     1       3.673  30.659  18.558  1.00  0.00     0.069 C 
HETATM   28  N2  UNL     1       4.580  28.573  19.457  1.00  0.00    -0.359 N 
ATOM     29  H2  UNL     1       5.372  28.743  18.835  1.00  0.00     0.166 HD
BRANCH  25  30
HETATM   30  C14 UNL     1       1.370  30.149  20.381  1.00  0.00     0.249 C 
BRANCH  30  31
HETATM   31  O3  UNL     1       0.402  29.941  19.395  1.00  0.00    -0.217 OA
BRANCH  31  32
HETATM   32  N1  UNL     1      -0.935  29.946  19.637  1.00  0.00     0.005 N 
HETATM   33  O4  UNL     1      -1.429  28.955  20.222  1.00  0.00    -0.511 OA
HETATM   34  O5  UNL     1      -1.691  31.011  19.242  1.00  0.00    -0.511 OA
ENDBRANCH  31  32
ENDBRANCH  30  31
ENDBRANCH  25  30
ENDBRANCH  20  21
ENDBRANCH   1  18
TORSDOF 10
ENDMDL
MODEL 4
REMARK VINA RESULT: -9.337050408      4.684      6.914
REMARK  10 active torsions:
REMARK  status: ('A' for Active; 'I' for Inactive)
REMARK    1  A    between atoms: C4_5  and  O2_6 
REMARK    2  A    between atoms: C4_5  and  C5_8 
REMARK    3  A    between atoms: C5_8  and  C6_9 
REMARK    4  A    between atoms: C8_11  and  C9_12 
REMARK    5  A    between atoms: C13_16  and  C14_17 
REMARK    6  A    between atoms: C14_17  and  O3_18 
REMARK    7  A    between atoms: O3_18  and  N1_19 
REMARK    8  A    between atoms: C17_26  and  C18_27 
REMARK    9  A    between atoms: C20_29  and  C21_30 
REMARK   10  A    between atoms: C21_30  and  C22_31 
ROOT
HETATM    1  C5  UNL     1       6.183  24.298  13.658  1.00  0.00     0.103 C 
ENDROOT
BRANCH   1   2
HETATM    2  C4  UNL     1       7.070  23.445  12.800  1.00  0.00     0.176 C 
HETATM    3  O1  UNL     1       7.773  24.249  11.878  1.00  0.00    -0.350 OA
HETATM    4  C3  UNL     1       8.076  23.494  10.780  1.00  0.00     0.206 C 
HETATM    5  C2  UNL     1       7.401  22.182  10.947  1.00  0.00    -0.052 C 
HETATM    6  C1  UNL     1       7.710  21.057  10.369  1.00  0.00     0.017 C 
HETATM    7  C17 UNL     1       6.323  22.485  11.918  1.00  0.00     0.106 C 
BRANCH   7   8
HETATM    8  C18 UNL     1       5.750  21.301  12.573  1.00  0.00    -0.074 C 
HETATM    9  C19 UNL     1       4.458  20.806  11.941  1.00  0.00     0.044 C 
HETATM   10  C20 UNL     1       6.168  20.652  13.621  1.00  0.00    -0.020 C 
BRANCH  10  11
HETATM   11  C21 UNL     1       5.441  19.465  14.134  1.00  0.00     0.054 C 
BRANCH  11  12
HETATM   12  C22 UNL     1       5.476  19.390  15.616  1.00  0.00    -0.021 C 
HETATM   13  C23 UNL     1       4.461  19.500  16.432  1.00  0.00    -0.091 C 
HETATM   14  C24 UNL     1       4.678  19.400  17.893  1.00  0.00     0.042 C 
HETATM   15  C25 UNL     1       3.088  19.736  15.935  1.00  0.00     0.042 C 
ENDBRANCH  11  12
ENDBRANCH  10  11
ENDBRANCH   7   8
BRANCH   2  16
HETATM   16  O2  UNL     1       8.045  22.774  13.506  1.00  0.00    -0.364 OA
ATOM     17  H2  UNL     1       7.979  23.107  14.393  1.00  0.00     0.213 HD
ENDBRANCH   2  16
ENDBRANCH   1   2
BRANCH   1  18
HETATM   18  C6  UNL     1       6.556  24.270  15.098  1.00  0.00    -0.076 C 
HETATM   19  C7  UNL     1       7.676  25.140  15.521  1.00  0.00     0.043 C 
HETATM   20  C8  UNL     1       5.954  23.505  15.975  1.00  0.00     0.032 C 
BRANCH  20  21
HETATM   21  C9  UNL     1       6.360  23.523  17.370  1.00  0.00     0.033 A 
HETATM   22  C10 UNL     1       6.801  22.346  17.966  1.00  0.00     0.037 A 
HETATM   23  C11 UNL     1       7.178  22.323  19.283  1.00  0.00    -0.049 A 
HETATM   24  C12 UNL     1       7.648  21.110  19.955  1.00  0.00     0.049 C 
HETATM   25  C13 UNL     1       7.112  23.510  20.019  1.00  0.00    -0.004 A 
HETATM   26  C15 UNL     1       6.677  24.675  19.438  1.00  0.00     0.014 A 
HETATM   27  C16 UNL     1       6.576  25.974  20.146  1.00  0.00     0.069 C 
HETATM   28  N2  UNL     1       6.318  24.624  18.123  1.00  0.00    -0.359 N 
ATOM     29  H2  UNL     1       5.995  25.487  17.685  1.00  0.00     0.166 HD
BRANCH  25  30
HETATM   30  C14 UNL     1       7.520  23.445  21.410  1.00  0.00     0.249 C 
BRANCH  30  31
HETATM   31  O3  UNL     1       6.505  23.050  22.285  1.00  0.00    -0.217 OA
BRANCH  31  32
HETATM   32  N1  UNL     1       6.237  23.674  23.462  1.00  0.00     0.005 N 
HETATM   33  O4  UNL     1       5.499  24.685  23.434  1.00  0.00    -0.511 OA
HETATM   34  O5  UNL     1       6.771  23.192  24.621  1.00  0.00    -0.511 OA
ENDBRANCH  31  32
ENDBRANCH  30  31
ENDBRANCH  25  30
ENDBRANCH  20  21
ENDBRANCH   1  18
TORSDOF 10
ENDMDL
MODEL 5
REMARK VINA RESULT: -9.280144914      3.144      6.102
REMARK  10 active torsions:
REMARK  status: ('A' for Active; 'I' for Inactive)
REMARK    1  A    between atoms: C4_5  and  O2_6 
REMARK    2  A    between atoms: C4_5  and  C5_8 
REMARK    3  A    between atoms: C5_8  and  C6_9 
REMARK    4  A    between atoms: C8_11  and  C9_12 
REMARK    5  A    between atoms: C13_16  and  C14_17 
REMARK    6  A    between atoms: C14_17  and  O3_18 
REMARK    7  A    between atoms: O3_18  and  N1_19 
REMARK    8  A    between atoms: C17_26  and  C18_27 
REMARK    9  A    between atoms: C20_29  and  C21_30 
REMARK   10  A    between atoms: C21_30  and  C22_31 
ROOT
HETATM    1  C5  UNL     1       6.954  21.771  16.255  1.00  0.00     0.103 C 
ENDROOT
BRANCH   1   2
HETATM    2  C4  UNL     1       5.731  20.902  16.292  1.00  0.00     0.176 C 
HETATM    3  O1  UNL     1       5.556  20.363  17.585  1.00  0.00    -0.350 OA
HETATM    4  C3  UNL     1       4.874  19.185  17.480  1.00  0.00     0.206 C 
HETATM    5  C2  UNL     1       4.737  18.881  16.033  1.00  0.00    -0.052 C 
HETATM    6  C1  UNL     1       3.859  18.102  15.471  1.00  0.00     0.017 C 
HETATM    7  C17 UNL     1       5.826  19.681  15.422  1.00  0.00     0.106 C 
BRANCH   7   8
HETATM    8  C18 UNL     1       5.681  19.892  13.975  1.00  0.00    -0.074 C 
HETATM    9  C19 UNL     1       6.585  19.013  13.126  1.00  0.00     0.044 C 
HETATM   10  C20 UNL     1       4.926  20.737  13.335  1.00  0.00    -0.020 C 
BRANCH  10  11
HETATM   11  C21 UNL     1       4.921  20.797  11.852  1.00  0.00     0.054 C 
BRANCH  11  12
HETATM   12  C22 UNL     1       5.438  22.095  11.348  1.00  0.00    -0.021 C 
HETATM   13  C23 UNL     1       6.480  22.279  10.582  1.00  0.00    -0.091 C 
HETATM   14  C24 UNL     1       6.856  23.651  10.170  1.00  0.00     0.042 C 
HETATM   15  C25 UNL     1       7.312  21.148  10.116  1.00  0.00     0.042 C 
ENDBRANCH  11  12
ENDBRANCH  10  11
ENDBRANCH   7   8
BRANCH   2  16
HETATM   16  O2  UNL     1       4.562  21.580  16.027  1.00  0.00    -0.364 OA
ATOM     17  H2  UNL     1       3.931  20.905  15.804  1.00  0.00     0.213 HD
ENDBRANCH   2  16
ENDBRANCH   1   2
BRANCH   1  18
HETATM   18  C6  UNL     1       6.735  23.118  16.845  1.00  0.00    -0.076 C 
HETATM   19  C7  UNL     1       6.282  24.189  15.929  1.00  0.00     0.043 C 
HETATM   20  C8  UNL     1       6.943  23.384  18.110  1.00  0.00     0.032 C 
BRANCH  20  21
HETATM   21  C9  UNL     1       6.709  24.720  18.632  1.00  0.00     0.033 A 
HETATM   22  C10 UNL     1       7.748  25.644  18.630  1.00  0.00     0.037 A 
HETATM   23  C11 UNL     1       7.567  26.908  19.127  1.00  0.00    -0.049 A 
HETATM   24  C12 UNL     1       8.629  27.915  19.147  1.00  0.00     0.049 C 
HETATM   25  C13 UNL     1       6.311  27.253  19.637  1.00  0.00    -0.004 A 
HETATM   26  C15 UNL     1       5.281  26.346  19.643  1.00  0.00     0.014 A 
HETATM   27  C16 UNL     1       3.922  26.629  20.165  1.00  0.00     0.069 C 
HETATM   28  N2  UNL     1       5.533  25.106  19.132  1.00  0.00    -0.359 N 
ATOM     29  H2  UNL     1       4.771  24.427  19.133  1.00  0.00     0.166 HD
BRANCH  25  30
HETATM   30  C14 UNL     1       6.159  28.600  20.153  1.00  0.00     0.249 C 
BRANCH  30  31
HETATM   31  O3  UNL     1       5.542  29.486  19.265  1.00  0.00    -0.217 OA
BRANCH  31  32
HETATM   32  N1  UNL     1       4.461  30.245  19.585  1.00  0.00     0.005 N 
HETATM   33  O4  UNL     1       4.606  31.132  20.456  1.00  0.00    -0.511 OA
HETATM   34  O5  UNL     1       3.270  30.024  18.959  1.00  0.00    -0.511 OA
ENDBRANCH  31  32
ENDBRANCH  30  31
ENDBRANCH  25  30
ENDBRANCH  20  21
ENDBRANCH   1  18
TORSDOF 10
ENDMDL
