MODEL 1
REMARK VINA RESULT: -5.956155732      0.000      0.000
REMARK  10 active torsions:
REMARK  status: ('A' for Active; 'I' for Inactive)
REMARK    1  A    between atoms: C3_8  and  C4_9 
REMARK    2  A    between atoms: C4_9  and  O1_10 
REMARK    3  A    between atoms: C4_9  and  N3_12 
REMARK    4  A    between atoms: N3_12  and  C5_13 
REMARK    5  A    between atoms: C5_13  and  O2_14 
REMARK    6  A    between atoms: O2_14  and  N4_15 
REMARK    7  A    between atoms: N5_18  and  O3_19 
REMARK    8  A    between atoms: O3_19  and  C6_20 
REMARK    9  A    between atoms: C6_20  and  C7_21 
REMARK       I    between atoms: C7_21  and  N6_23 
REMARK   10  A    between atoms: N6_23  and  N7_24 
ROOT
HETATM    1  N1  UNL     1      -1.563  -1.023   5.175  1.00  0.00    -0.232 N 
ATOM      2  H11 UNL     1      -1.224  -1.446   6.039  1.00  0.00     0.174 HD
ATOM      3  H12 UNL     1      -1.837  -0.057   5.355  1.00  0.00     0.174 HD
HETATM    4  C1  UNL     1      -1.470  -1.698   4.078  1.00  0.00     0.703 A 
HETATM    5  N2  UNL     1      -1.927  -1.127   2.913  1.00  0.00    -0.198 N 
ATOM      6  H2  UNL     1      -2.260  -0.169   2.807  1.00  0.00     0.183 HD
HETATM    7  C2  UNL     1      -1.859  -2.043   1.943  1.00  0.00     0.144 A 
HETATM    8  C3  UNL     1      -1.365  -3.167   2.503  1.00  0.00     0.162 A 
HETATM    9  N5  UNL     1      -1.112  -2.957   3.844  1.00  0.00    -0.043 N 
ENDROOT
BRANCH   8  10
HETATM   10  C4  UNL     1      -1.073  -4.460   1.822  1.00  0.00     0.242 C 
BRANCH  10  11
HETATM   11  O1  UNL     1      -1.693  -5.418   2.457  1.00  0.00    -0.334 OA
ATOM     12  H1  UNL     1      -1.629  -6.215   1.945  1.00  0.00     0.220 HD
ENDBRANCH  10  11
BRANCH  10  13
HETATM   13  N3  UNL     1      -0.278  -4.541   0.723  1.00  0.00    -0.394 NA
BRANCH  13  14
HETATM   14  C5  UNL     1       0.513  -4.621  -0.371  1.00  0.00     0.421 C 
BRANCH  14  15
HETATM   15  O2  UNL     1       0.229  -5.857  -1.061  1.00  0.00    -0.255 OA
BRANCH  15  16
HETATM   16  N4  UNL     1      -0.464  -5.519  -2.197  1.00  0.00    -0.308 N 
ATOM     17  H42 UNL     1      -0.056  -5.195  -3.073  1.00  0.00     0.184 HD
ATOM     18  H41 UNL     1      -1.452  -5.658  -1.986  1.00  0.00     0.184 HD
ENDBRANCH  15  16
ENDBRANCH  14  15
ENDBRANCH  13  14
ENDBRANCH  10  13
ENDBRANCH   8  10
BRANCH   9  19
HETATM   19  O3  UNL     1      -0.481  -3.780   4.664  1.00  0.00    -0.249 OA
BRANCH  19  20
HETATM   20  C6  UNL     1       0.617  -4.327   5.142  1.00  0.00     0.323 C 
BRANCH  20  21
HETATM   21  C7  UNL     1       0.731  -3.820   6.605  1.00  0.00     0.337 C 
HETATM   22  O4  UNL     1      -0.172  -3.006   6.912  1.00  0.00    -0.253 OA
HETATM   23  N6  UNL     1       1.732  -4.262   7.346  1.00  0.00    -0.292 NA
BRANCH  23  24
HETATM   24  N7  UNL     1       2.740  -4.706   8.091  1.00  0.00    -0.277 N 
ATOM     25  H72 UNL     1       1.976  -4.347   7.518  1.00  0.00     0.191 HD
ATOM     26  H71 UNL     1       3.512  -5.047   8.663  1.00  0.00     0.191 HD
ENDBRANCH  23  24
ENDBRANCH  20  21
ENDBRANCH  19  20
ENDBRANCH   9  19
TORSDOF 10
ENDMDL
MODEL 2
REMARK VINA RESULT: -5.866619633      1.465      5.995
REMARK  10 active torsions:
REMARK  status: ('A' for Active; 'I' for Inactive)
REMARK    1  A    between atoms: C3_8  and  C4_9 
REMARK    2  A    between atoms: C4_9  and  O1_10 
REMARK    3  A    between atoms: C4_9  and  N3_12 
REMARK    4  A    between atoms: N3_12  and  C5_13 
REMARK    5  A    between atoms: C5_13  and  O2_14 
REMARK    6  A    between atoms: O2_14  and  N4_15 
REMARK    7  A    between atoms: N5_18  and  O3_19 
REMARK    8  A    between atoms: O3_19  and  C6_20 
REMARK    9  A    between atoms: C6_20  and  C7_21 
REMARK       I    between atoms: C7_21  and  N6_23 
REMARK   10  A    between atoms: N6_23  and  N7_24 
ROOT
HETATM    1  N1  UNL     1      -2.115  -1.180   2.292  1.00  0.00    -0.232 N 
ATOM      2  H11 UNL     1      -2.168  -1.671   1.400  1.00  0.00     0.174 HD
ATOM      3  H12 UNL     1      -2.554  -0.264   2.201  1.00  0.00     0.174 HD
HETATM    4  C1  UNL     1      -1.650  -1.811   3.318  1.00  0.00     0.703 A 
HETATM    5  N2  UNL     1      -1.577  -1.147   4.522  1.00  0.00    -0.198 N 
ATOM      6  H2  UNL     1      -1.943  -0.215   4.713  1.00  0.00     0.183 HD
HETATM    7  C2  UNL     1      -0.946  -1.935   5.396  1.00  0.00     0.144 A 
HETATM    8  C3  UNL     1      -0.634  -3.073   4.742  1.00  0.00     0.162 A 
HETATM    9  N5  UNL     1      -1.077  -3.005   3.436  1.00  0.00    -0.043 N 
ENDROOT
BRANCH   8  10
HETATM   10  C4  UNL     1       0.049  -4.273   5.298  1.00  0.00     0.242 C 
BRANCH  10  11
HETATM   11  O1  UNL     1      -0.271  -5.312   4.574  1.00  0.00    -0.334 OA
ATOM     12  H1  UNL     1       0.072  -6.093   4.991  1.00  0.00     0.220 HD
ENDBRANCH  10  11
BRANCH  10  13
HETATM   13  N3  UNL     1       0.858  -4.212   6.388  1.00  0.00    -0.394 NA
BRANCH  13  14
HETATM   14  C5  UNL     1       1.664  -4.150   7.473  1.00  0.00     0.421 C 
BRANCH  14  15
HETATM   15  O2  UNL     1       1.818  -2.768   7.861  1.00  0.00    -0.255 OA
BRANCH  15  16
HETATM   16  N4  UNL     1       1.007  -2.576   8.951  1.00  0.00    -0.308 N 
ATOM     17  H42 UNL     1       0.349  -3.254   9.336  1.00  0.00     0.184 HD
ATOM     18  H41 UNL     1       1.195  -1.632   9.290  1.00  0.00     0.184 HD
ENDBRANCH  15  16
ENDBRANCH  14  15
ENDBRANCH  13  14
ENDBRANCH  10  13
ENDBRANCH   8  10
BRANCH   9  19
HETATM   19  O3  UNL     1      -1.085  -3.991   2.556  1.00  0.00    -0.249 OA
BRANCH  19  20
HETATM   20  C6  UNL     1      -1.451  -4.518   1.406  1.00  0.00     0.323 C 
BRANCH  20  21
HETATM   21  C7  UNL     1      -0.141  -4.679   0.587  1.00  0.00     0.337 C 
HETATM   22  O4  UNL     1       0.870  -4.256   1.196  1.00  0.00    -0.253 OA
HETATM   23  N6  UNL     1      -0.218  -5.205  -0.623  1.00  0.00    -0.292 NA
BRANCH  23  24
HETATM   24  N7  UNL     1      -0.296  -5.735  -1.839  1.00  0.00    -0.277 N 
ATOM     25  H72 UNL     1      -0.232  -5.347  -0.898  1.00  0.00     0.191 HD
ATOM     26  H71 UNL     1      -0.355  -6.142  -2.773  1.00  0.00     0.191 HD
ENDBRANCH  23  24
ENDBRANCH  20  21
ENDBRANCH  19  20
ENDBRANCH   9  19
TORSDOF 10
ENDMDL
MODEL 3
REMARK VINA RESULT: -5.539759082      1.348      1.373
REMARK  10 active torsions:
REMARK  status: ('A' for Active; 'I' for Inactive)
REMARK    1  A    between atoms: C3_8  and  C4_9 
REMARK    2  A    between atoms: C4_9  and  O1_10 
REMARK    3  A    between atoms: C4_9  and  N3_12 
REMARK    4  A    between atoms: N3_12  and  C5_13 
REMARK    5  A    between atoms: C5_13  and  O2_14 
REMARK    6  A    between atoms: O2_14  and  N4_15 
REMARK    7  A    between atoms: N5_18  and  O3_19 
REMARK    8  A    between atoms: O3_19  and  C6_20 
REMARK    9  A    between atoms: C6_20  and  C7_21 
REMARK       I    between atoms: C7_21  and  N6_23 
REMARK   10  A    between atoms: N6_23  and  N7_24 
ROOT
HETATM    1  N1  UNL     1      -1.334  -0.964   4.582  1.00  0.00    -0.232 N 
ATOM      2  H11 UNL     1      -0.699  -1.035   5.376  1.00  0.00     0.174 HD
ATOM      3  H12 UNL     1      -1.937  -0.150   4.702  1.00  0.00     0.174 HD
HETATM    4  C1  UNL     1      -1.183  -1.781   3.593  1.00  0.00     0.703 A 
HETATM    5  N2  UNL     1      -2.041  -1.685   2.522  1.00  0.00    -0.198 N 
ATOM      6  H2  UNL     1      -2.747  -0.961   2.385  1.00  0.00     0.183 HD
HETATM    7  C2  UNL     1      -1.791  -2.702   1.693  1.00  0.00     0.144 A 
HETATM    8  C3  UNL     1      -0.789  -3.417   2.245  1.00  0.00     0.162 A 
HETATM    9  N5  UNL     1      -0.397  -2.842   3.437  1.00  0.00    -0.043 N 
ENDROOT
BRANCH   8  10
HETATM   10  C4  UNL     1      -0.132  -4.630   1.682  1.00  0.00     0.242 C 
BRANCH  10  11
HETATM   11  O1  UNL     1       0.195  -5.424   2.666  1.00  0.00    -0.334 OA
ATOM     12  H1  UNL     1       0.368  -6.290   2.315  1.00  0.00     0.220 HD
ENDBRANCH  10  11
BRANCH  10  13
HETATM   13  N3  UNL     1       0.058  -4.803   0.348  1.00  0.00    -0.394 NA
BRANCH  13  14
HETATM   14  C5  UNL     1       0.246  -4.976  -0.980  1.00  0.00     0.421 C 
BRANCH  14  15
HETATM   15  O2  UNL     1       0.231  -3.683  -1.625  1.00  0.00    -0.255 OA
BRANCH  15  16
HETATM   16  N4  UNL     1      -0.600  -3.799  -2.711  1.00  0.00    -0.308 N 
ATOM     17  H42 UNL     1      -1.610  -3.939  -2.681  1.00  0.00     0.184 HD
ATOM     18  H41 UNL     1      -0.008  -3.719  -3.538  1.00  0.00     0.184 HD
ENDBRANCH  15  16
ENDBRANCH  14  15
ENDBRANCH  13  14
ENDBRANCH  10  13
ENDBRANCH   8  10
BRANCH   9  19
HETATM   19  O3  UNL     1       0.654  -3.179   4.165  1.00  0.00    -0.249 OA
BRANCH  19  20
HETATM   20  C6  UNL     1       1.412  -3.058   5.235  1.00  0.00     0.323 C 
BRANCH  20  21
HETATM   21  C7  UNL     1       0.520  -3.501   6.427  1.00  0.00     0.337 C 
HETATM   22  O4  UNL     1      -0.394  -4.288   6.087  1.00  0.00    -0.253 OA
HETATM   23  N6  UNL     1       0.788  -3.013   7.626  1.00  0.00    -0.292 NA
BRANCH  23  24
HETATM   24  N7  UNL     1       1.058  -2.522   8.832  1.00  0.00    -0.277 N 
ATOM     25  H72 UNL     1       0.869  -2.908   7.906  1.00  0.00     0.191 HD
ATOM     26  H71 UNL     1       1.265  -2.146   9.757  1.00  0.00     0.191 HD
ENDBRANCH  23  24
ENDBRANCH  20  21
ENDBRANCH  19  20
ENDBRANCH   9  19
TORSDOF 10
ENDMDL
MODEL 4
REMARK VINA RESULT: -5.511289759      1.925      3.460
REMARK  10 active torsions:
REMARK  status: ('A' for Active; 'I' for Inactive)
REMARK    1  A    between atoms: C3_8  and  C4_9 
REMARK    2  A    between atoms: C4_9  and  O1_10 
REMARK    3  A    between atoms: C4_9  and  N3_12 
REMARK    4  A    between atoms: N3_12  and  C5_13 
REMARK    5  A    between atoms: C5_13  and  O2_14 
REMARK    6  A    between atoms: O2_14  and  N4_15 
REMARK    7  A    between atoms: N5_18  and  O3_19 
REMARK    8  A    between atoms: O3_19  and  C6_20 
REMARK    9  A    between atoms: C6_20  and  C7_21 
REMARK       I    between atoms: C7_21  and  N6_23 
REMARK   10  A    between atoms: N6_23  and  N7_24 
ROOT
HETATM    1  N1  UNL     1      -0.108  -3.036   5.739  1.00  0.00    -0.232 N 
ATOM      2  H11 UNL     1      -0.806  -2.304   5.867  1.00  0.00     0.174 HD
ATOM      3  H12 UNL     1       0.444  -3.131   6.591  1.00  0.00     0.174 HD
HETATM    4  C1  UNL     1      -0.136  -3.733   4.652  1.00  0.00     0.703 A 
HETATM    5  N2  UNL     1       0.806  -4.721   4.479  1.00  0.00    -0.198 N 
ATOM      6  H2  UNL     1       1.487  -5.026   5.175  1.00  0.00     0.183 HD
HETATM    7  C2  UNL     1       0.676  -5.212   3.244  1.00  0.00     0.144 A 
HETATM    8  C3  UNL     1      -0.336  -4.537   2.661  1.00  0.00     0.162 A 
HETATM    9  N5  UNL     1      -0.855  -3.609   3.541  1.00  0.00    -0.043 N 
ENDROOT
BRANCH   8  10
HETATM   10  C4  UNL     1      -0.886  -4.742   1.292  1.00  0.00     0.242 C 
BRANCH  10  11
HETATM   11  O1  UNL     1      -2.170  -4.960   1.383  1.00  0.00    -0.334 OA
ATOM     12  H1  UNL     1      -2.452  -5.445   0.617  1.00  0.00     0.220 HD
ENDBRANCH  10  11
BRANCH  10  13
HETATM   13  N3  UNL     1      -0.106  -4.695   0.180  1.00  0.00    -0.394 NA
BRANCH  13  14
HETATM   14  C5  UNL     1       0.670  -4.648  -0.927  1.00  0.00     0.421 C 
BRANCH  14  15
HETATM   15  O2  UNL     1       0.113  -5.531  -1.925  1.00  0.00    -0.255 OA
BRANCH  15  16
HETATM   16  N4  UNL     1      -0.605  -4.741  -2.787  1.00  0.00    -0.308 N 
ATOM     17  H42 UNL     1      -0.234  -3.973  -3.346  1.00  0.00     0.184 HD
ATOM     18  H41 UNL     1      -1.569  -5.076  -2.752  1.00  0.00     0.184 HD
ENDBRANCH  15  16
ENDBRANCH  14  15
ENDBRANCH  13  14
ENDBRANCH  10  13
ENDBRANCH   8  10
BRANCH   9  19
HETATM   19  O3  UNL     1      -1.949  -2.886   3.368  1.00  0.00    -0.249 OA
BRANCH  19  20
HETATM   20  C6  UNL     1      -2.583  -1.838   2.885  1.00  0.00     0.323 C 
BRANCH  20  21
HETATM   21  C7  UNL     1      -2.062  -0.624   3.702  1.00  0.00     0.337 C 
HETATM   22  O4  UNL     1      -2.986   0.060   4.202  1.00  0.00    -0.253 OA
HETATM   23  N6  UNL     1      -0.757  -0.429   3.772  1.00  0.00    -0.292 NA
BRANCH  23  24
HETATM   24  N7  UNL     1       0.556  -0.233   3.843  1.00  0.00    -0.277 N 
ATOM     25  H72 UNL     1      -0.452  -0.384   3.809  1.00  0.00     0.191 HD
ATOM     26  H71 UNL     1       1.564  -0.083   3.897  1.00  0.00     0.191 HD
ENDBRANCH  23  24
ENDBRANCH  20  21
ENDBRANCH  19  20
ENDBRANCH   9  19
TORSDOF 10
ENDMDL
MODEL 5
REMARK VINA RESULT: -5.270600882      1.624      3.880
REMARK  10 active torsions:
REMARK  status: ('A' for Active; 'I' for Inactive)
REMARK    1  A    between atoms: C3_8  and  C4_9 
REMARK    2  A    between atoms: C4_9  and  O1_10 
REMARK    3  A    between atoms: C4_9  and  N3_12 
REMARK    4  A    between atoms: N3_12  and  C5_13 
REMARK    5  A    between atoms: C5_13  and  O2_14 
REMARK    6  A    between atoms: O2_14  and  N4_15 
REMARK    7  A    between atoms: N5_18  and  O3_19 
REMARK    8  A    between atoms: O3_19  and  C6_20 
REMARK    9  A    between atoms: C6_20  and  C7_21 
REMARK       I    between atoms: C7_21  and  N6_23 
REMARK   10  A    between atoms: N6_23  and  N7_24 
ROOT
HETATM    1  N1  UNL     1       1.156  -3.556   6.250  1.00  0.00    -0.232 N 
ATOM      2  H11 UNL     1       1.491  -2.593   6.240  1.00  0.00     0.174 HD
ATOM      3  H12 UNL     1       1.344  -3.970   7.163  1.00  0.00     0.174 HD
HETATM    4  C1  UNL     1       0.497  -3.992   5.230  1.00  0.00     0.703 A 
HETATM    5  N2  UNL     1       0.045  -5.292   5.244  1.00  0.00    -0.198 N 
ATOM      6  H2  UNL     1       0.101  -5.935   6.034  1.00  0.00     0.183 HD
HETATM    7  C2  UNL     1      -0.481  -5.566   4.047  1.00  0.00     0.144 A 
HETATM    8  C3  UNL     1      -0.357  -4.448   3.302  1.00  0.00     0.162 A 
HETATM    9  N5  UNL     1       0.253  -3.453   4.039  1.00  0.00    -0.043 N 
ENDROOT
BRANCH   8  10
HETATM   10  C4  UNL     1      -0.823  -4.242   1.902  1.00  0.00     0.242 C 
BRANCH  10  11
HETATM   11  O1  UNL     1      -2.064  -3.838   1.929  1.00  0.00    -0.334 OA
ATOM     12  H1  UNL     1      -2.608  -4.545   2.255  1.00  0.00     0.220 HD
ENDBRANCH  10  11
BRANCH  10  13
HETATM   13  N3  UNL     1      -0.021  -4.463   0.828  1.00  0.00    -0.394 NA
BRANCH  13  14
HETATM   14  C5  UNL     1       0.778  -4.683  -0.242  1.00  0.00     0.421 C 
BRANCH  14  15
HETATM   15  O2  UNL     1       0.323  -5.870  -0.926  1.00  0.00    -0.255 OA
BRANCH  15  16
HETATM   16  N4  UNL     1      -0.388  -5.441  -2.019  1.00  0.00    -0.308 N 
ATOM     17  H42 UNL     1      -0.712  -4.488  -2.187  1.00  0.00     0.184 HD
ATOM     18  H41 UNL     1      -0.523  -6.257  -2.616  1.00  0.00     0.184 HD
ENDBRANCH  15  16
ENDBRANCH  14  15
ENDBRANCH  13  14
ENDBRANCH  10  13
ENDBRANCH   8  10
BRANCH   9  19
HETATM   19  O3  UNL     1       0.392  -2.186   3.687  1.00  0.00    -0.249 OA
BRANCH  19  20
HETATM   20  C6  UNL     1       0.066  -0.913   3.776  1.00  0.00     0.323 C 
BRANCH  20  21
HETATM   21  C7  UNL     1      -1.483  -0.873   3.654  1.00  0.00     0.337 C 
HETATM   22  O4  UNL     1      -2.058  -0.807   4.766  1.00  0.00    -0.253 OA
HETATM   23  N6  UNL     1      -2.018  -0.928   2.447  1.00  0.00    -0.292 NA
BRANCH  23  24
HETATM   24  N7  UNL     1      -2.558  -0.983   1.233  1.00  0.00    -0.277 N 
ATOM     25  H72 UNL     1      -2.138  -0.922   2.161  1.00  0.00     0.191 HD
ATOM     26  H71 UNL     1      -2.971  -1.025   0.302  1.00  0.00     0.191 HD
ENDBRANCH  23  24
ENDBRANCH  20  21
ENDBRANCH  19  20
ENDBRANCH   9  19
TORSDOF 10
ENDMDL
