MODEL 1
REMARK VINA RESULT: -6.888858389      0.000      0.000
REMARK  3 active torsions:
REMARK  status: ('A' for Active; 'I' for Inactive)
REMARK    1  A    between atoms: N1_1  and  N2_4 
REMARK       I    between atoms: N2_4  and  C1_6 
REMARK       I    between atoms: C1_6  and  N4_8 
REMARK    2  A    between atoms: N4_8  and  N5_10 
REMARK    3  A    between atoms: N5_10  and  C2_12 
ROOT
HETATM    1  N5  UNL     1      14.612  37.130  43.724  1.00  0.00    -0.128 N 
ATOM      2  H5  UNL     1      15.589  37.052  44.005  1.00  0.00     0.205 HD
ENDROOT
BRANCH   1   3
HETATM    3  N4  UNL     1      13.906  35.989  43.416  1.00  0.00    -0.258 N 
HETATM    4  C1  UNL     1      14.087  35.470  42.227  1.00  0.00     0.222 C 
HETATM    5  N2  UNL     1      14.967  36.040  41.282  1.00  0.00    -0.279 N 
HETATM    6  N3  UNL     1      13.348  34.302  41.945  1.00  0.00    -0.061 NA
ATOM      7  H2  UNL     1      14.623  36.702  40.587  1.00  0.00     0.189 HD
ATOM      8  H4  UNL     1      13.267  35.563  44.088  1.00  0.00     0.190 HD
BRANCH   5   9
HETATM    9  N1  UNL     1      16.307  35.684  41.315  1.00  0.00    -0.343 N 
ATOM     10  H12 UNL     1      16.756  35.494  42.210  1.00  0.00     0.176 HD
ATOM     11  H11 UNL     1      16.822  35.620  40.436  1.00  0.00     0.176 HD
ENDBRANCH   5   9
ENDBRANCH   1   3
BRANCH   1  12
HETATM   12  C2  UNL     1      14.060  38.307  43.664  1.00  0.00     0.715 A 
HETATM   13  N6  UNL     1      14.605  39.469  43.269  1.00  0.00    -0.127 N 
HETATM   14  N7  UNL     1      13.713  40.434  43.355  1.00  0.00    -0.237 N 
ATOM     15  H6  UNL     1      15.566  39.587  42.950  1.00  0.00     0.206 HD
HETATM   16  C3  UNL     1      12.557  39.914  43.814  1.00  0.00     0.353 A 
ATOM     17  H7  UNL     1      13.871  41.413  43.115  1.00  0.00     0.192 HD
HETATM   18  O1  UNL     1      11.487  40.560  44.019  1.00  0.00    -0.245 OA
HETATM   19  N8  UNL     1      12.789  38.593  44.001  1.00  0.00    -0.137 N 
ATOM     20  H8  UNL     1      12.105  37.918  44.345  1.00  0.00     0.189 HD
ENDBRANCH   1  12
TORSDOF 3
ENDMDL
MODEL 2
REMARK VINA RESULT: -6.879816485      2.100      2.324
REMARK  3 active torsions:
REMARK  status: ('A' for Active; 'I' for Inactive)
REMARK    1  A    between atoms: N1_1  and  N2_4 
REMARK       I    between atoms: N2_4  and  C1_6 
REMARK       I    between atoms: C1_6  and  N4_8 
REMARK    2  A    between atoms: N4_8  and  N5_10 
REMARK    3  A    between atoms: N5_10  and  C2_12 
ROOT
HETATM    1  N5  UNL     1      15.471  37.493  42.868  1.00  0.00    -0.128 N 
ATOM      2  H5  UNL     1      16.409  37.276  43.205  1.00  0.00     0.205 HD
ENDROOT
BRANCH   1   3
HETATM    3  N4  UNL     1      14.530  36.489  42.801  1.00  0.00    -0.258 N 
HETATM    4  C1  UNL     1      14.598  35.667  41.783  1.00  0.00     0.222 C 
HETATM    5  N2  UNL     1      15.588  35.785  40.783  1.00  0.00    -0.279 N 
HETATM    6  N3  UNL     1      13.620  34.652  41.744  1.00  0.00    -0.061 NA
ATOM      7  H2  UNL     1      15.403  36.314  39.931  1.00  0.00     0.189 HD
ATOM      8  H4  UNL     1      13.809  36.389  43.515  1.00  0.00     0.190 HD
BRANCH   5   9
HETATM    9  N1  UNL     1      16.815  35.170  40.980  1.00  0.00    -0.343 N 
ATOM     10  H12 UNL     1      16.954  34.570  41.793  1.00  0.00     0.176 HD
ATOM     11  H11 UNL     1      17.561  35.332  40.304  1.00  0.00     0.176 HD
ENDBRANCH   5   9
ENDBRANCH   1   3
BRANCH   1  12
HETATM   12  C2  UNL     1      15.189  38.712  42.514  1.00  0.00     0.715 A 
HETATM   13  N6  UNL     1      14.000  39.231  42.164  1.00  0.00    -0.127 N 
HETATM   14  N7  UNL     1      14.136  40.508  41.873  1.00  0.00    -0.237 N 
ATOM     15  H6  UNL     1      13.123  38.712  42.129  1.00  0.00     0.206 HD
HETATM   16  C3  UNL     1      15.431  40.851  42.029  1.00  0.00     0.353 A 
ATOM     17  H7  UNL     1      13.386  41.133  41.579  1.00  0.00     0.192 HD
HETATM   18  O1  UNL     1      15.918  42.003  41.833  1.00  0.00    -0.245 OA
HETATM   19  N8  UNL     1      16.071  39.725  42.426  1.00  0.00    -0.137 N 
ATOM     20  H8  UNL     1      17.068  39.656  42.629  1.00  0.00     0.189 HD
ENDBRANCH   1  12
TORSDOF 3
ENDMDL
MODEL 3
REMARK VINA RESULT: -6.870006194      2.299      4.596
REMARK  3 active torsions:
REMARK  status: ('A' for Active; 'I' for Inactive)
REMARK    1  A    between atoms: N1_1  and  N2_4 
REMARK       I    between atoms: N2_4  and  C1_6 
REMARK       I    between atoms: C1_6  and  N4_8 
REMARK    2  A    between atoms: N4_8  and  N5_10 
REMARK    3  A    between atoms: N5_10  and  C2_12 
ROOT
HETATM    1  N5  UNL     1      14.166  38.013  44.123  1.00  0.00    -0.128 N 
ATOM      2  H5  UNL     1      14.965  38.334  44.670  1.00  0.00     0.205 HD
ENDROOT
BRANCH   1   3
HETATM    3  N4  UNL     1      12.938  38.607  44.310  1.00  0.00    -0.258 N 
HETATM    4  C1  UNL     1      12.792  39.837  43.883  1.00  0.00     0.222 C 
HETATM    5  N2  UNL     1      13.838  40.546  43.253  1.00  0.00    -0.279 N 
HETATM    6  N3  UNL     1      11.523  40.415  44.091  1.00  0.00    -0.061 NA
ATOM      7  H2  UNL     1      14.456  41.149  43.795  1.00  0.00     0.189 HD
ATOM      8  H4  UNL     1      12.171  38.109  44.763  1.00  0.00     0.190 HD
BRANCH   5   9
HETATM    9  N1  UNL     1      14.011  40.407  41.883  1.00  0.00    -0.343 N 
ATOM     10  H12 UNL     1      13.730  41.166  41.261  1.00  0.00     0.176 HD
ATOM     11  H11 UNL     1      14.417  39.544  41.523  1.00  0.00     0.176 HD
ENDBRANCH   5   9
ENDBRANCH   1   3
BRANCH   1  12
HETATM   12  C2  UNL     1      14.331  37.051  43.263  1.00  0.00     0.715 A 
HETATM   13  N6  UNL     1      15.378  36.820  42.454  1.00  0.00    -0.127 N 
HETATM   14  N7  UNL     1      15.158  35.740  41.732  1.00  0.00    -0.237 N 
ATOM     15  H6  UNL     1      16.219  37.395  42.405  1.00  0.00     0.206 HD
HETATM   16  C3  UNL     1      13.949  35.242  42.060  1.00  0.00     0.353 A 
ATOM     17  H7  UNL     1      15.796  35.347  41.040  1.00  0.00     0.192 HD
HETATM   18  O1  UNL     1      13.417  34.207  41.560  1.00  0.00    -0.245 OA
HETATM   19  N8  UNL     1      13.449  36.066  43.011  1.00  0.00    -0.137 N 
ATOM     20  H8  UNL     1      12.543  35.958  43.467  1.00  0.00     0.189 HD
ENDBRANCH   1  12
TORSDOF 3
ENDMDL
MODEL 4
REMARK VINA RESULT: -6.829515384      1.595      2.425
REMARK  3 active torsions:
REMARK  status: ('A' for Active; 'I' for Inactive)
REMARK    1  A    between atoms: N1_1  and  N2_4 
REMARK       I    between atoms: N2_4  and  C1_6 
REMARK       I    between atoms: C1_6  and  N4_8 
REMARK    2  A    between atoms: N4_8  and  N5_10 
REMARK    3  A    between atoms: N5_10  and  C2_12 
ROOT
HETATM    1  N5  UNL     1      14.212  36.053  42.265  1.00  0.00    -0.128 N 
ATOM      2  H5  UNL     1      15.188  35.767  42.184  1.00  0.00     0.205 HD
ENDROOT
BRANCH   1   3
HETATM    3  N4  UNL     1      13.265  35.450  41.467  1.00  0.00    -0.258 N 
HETATM    4  C1  UNL     1      12.886  34.239  41.791  1.00  0.00     0.222 C 
HETATM    5  N2  UNL     1      13.412  33.559  42.911  1.00  0.00    -0.279 N 
HETATM    6  N3  UNL     1      11.916  33.651  40.953  1.00  0.00    -0.061 NA
ATOM      7  H2  UNL     1      14.212  32.934  42.809  1.00  0.00     0.189 HD
ATOM      8  H4  UNL     1      12.874  35.927  40.655  1.00  0.00     0.190 HD
BRANCH   5   9
HETATM    9  N1  UNL     1      12.824  33.754  44.152  1.00  0.00    -0.343 N 
ATOM     10  H12 UNL     1      12.620  34.702  44.469  1.00  0.00     0.176 HD
ATOM     11  H11 UNL     1      12.605  32.941  44.727  1.00  0.00     0.176 HD
ENDBRANCH   5   9
ENDBRANCH   1   3
BRANCH   1  12
HETATM   12  C2  UNL     1      13.890  36.979  43.120  1.00  0.00     0.715 A 
HETATM   13  N6  UNL     1      14.282  37.114  44.397  1.00  0.00    -0.127 N 
HETATM   14  N7  UNL     1      13.732  38.188  44.924  1.00  0.00    -0.237 N 
ATOM     15  H6  UNL     1      14.912  36.478  44.887  1.00  0.00     0.206 HD
HETATM   16  C3  UNL     1      12.961  38.781  43.990  1.00  0.00     0.353 A 
ATOM     17  H7  UNL     1      13.866  38.516  45.880  1.00  0.00     0.192 HD
HETATM   18  O1  UNL     1      12.284  39.838  44.154  1.00  0.00    -0.245 OA
HETATM   19  N8  UNL     1      13.071  38.018  42.876  1.00  0.00    -0.137 N 
ATOM     20  H8  UNL     1      12.603  38.203  41.988  1.00  0.00     0.189 HD
ENDBRANCH   1  12
TORSDOF 3
ENDMDL
MODEL 5
REMARK VINA RESULT: -6.777351792      3.303      4.928
REMARK  3 active torsions:
REMARK  status: ('A' for Active; 'I' for Inactive)
REMARK    1  A    between atoms: N1_1  and  N2_4 
REMARK       I    between atoms: N2_4  and  C1_6 
REMARK       I    between atoms: C1_6  and  N4_8 
REMARK    2  A    between atoms: N4_8  and  N5_10 
REMARK    3  A    between atoms: N5_10  and  C2_12 
ROOT
HETATM    1  N5  UNL     1      12.966  36.413  42.228  1.00  0.00    -0.128 N 
ATOM      2  H5  UNL     1      13.675  35.785  42.606  1.00  0.00     0.205 HD
ENDROOT
BRANCH   1   3
HETATM    3  N4  UNL     1      12.852  37.686  42.743  1.00  0.00    -0.258 N 
HETATM    4  C1  UNL     1      13.879  38.166  43.398  1.00  0.00     0.222 C 
HETATM    5  N2  UNL     1      15.068  37.428  43.581  1.00  0.00    -0.279 N 
HETATM    6  N3  UNL     1      13.727  39.471  43.912  1.00  0.00    -0.061 NA
ATOM      7  H2  UNL     1      15.206  36.866  44.421  1.00  0.00     0.189 HD
ATOM      8  H4  UNL     1      11.999  38.233  42.619  1.00  0.00     0.190 HD
BRANCH   5   9
HETATM    9  N1  UNL     1      16.047  37.481  42.600  1.00  0.00    -0.343 N 
ATOM     10  H12 UNL     1      16.722  38.246  42.602  1.00  0.00     0.176 HD
ATOM     11  H11 UNL     1      16.074  36.749  41.890  1.00  0.00     0.176 HD
ENDBRANCH   5   9
ENDBRANCH   1   3
BRANCH   1  12
HETATM   12  C2  UNL     1      12.191  35.995  41.271  1.00  0.00     0.715 A 
HETATM   13  N6  UNL     1      10.987  36.463  40.903  1.00  0.00    -0.127 N 
HETATM   14  N7  UNL     1      10.527  35.766  39.885  1.00  0.00    -0.237 N 
ATOM     15  H6  UNL     1      10.501  37.242  41.346  1.00  0.00     0.206 HD
HETATM   16  C3  UNL     1      11.433  34.819  39.566  1.00  0.00     0.353 A 
ATOM     17  H7  UNL     1       9.634  35.917  39.416  1.00  0.00     0.192 HD
HETATM   18  O1  UNL     1      11.315  33.970  38.635  1.00  0.00    -0.245 OA
HETATM   19  N8  UNL     1      12.459  34.975  40.436  1.00  0.00    -0.137 N 
ATOM     20  H8  UNL     1      13.306  34.406  40.455  1.00  0.00     0.189 HD
ENDBRANCH   1  12
TORSDOF 3
ENDMDL
