MODEL 1
REMARK VINA RESULT: -6.081122089      0.000      0.000
REMARK  6 active torsions:
REMARK  status: ('A' for Active; 'I' for Inactive)
REMARK    1  A    between atoms: C1_2  and  C2_4 
REMARK    2  A    between atoms: C3_5  and  O3_6 
REMARK    3  A    between atoms: C4_8  and  O4_9 
REMARK    4  A    between atoms: C5_11  and  C6_12 
REMARK    5  A    between atoms: C6_12  and  O5_13 
REMARK    6  A    between atoms: N1_16  and  C8_17 
ROOT
HETATM    1  C2  UNL     1      13.881  17.891  14.837  1.00  0.00     0.354 C 
HETATM    2  C3  UNL     1      14.642  16.750  15.487  1.00  0.00     0.191 C 
HETATM    3  C4  UNL     1      13.796  15.883  16.335  1.00  0.00     0.157 C 
HETATM    4  C5  UNL     1      12.794  15.309  15.314  1.00  0.00     0.069 C 
HETATM    5  C7  UNL     1      12.005  16.463  14.729  1.00  0.00     0.283 C 
HETATM    6  N1  UNL     1      12.771  17.470  14.042  1.00  0.00     0.111 N 
ENDROOT
BRANCH   6   7
HETATM    7  C8  UNL     1      11.825  18.568  13.813  1.00  0.00     0.224 C 
HETATM    8  C9  UNL     1      10.440  18.131  14.234  1.00  0.00     0.036 C 
HETATM    9  C10 UNL     1       9.354  19.144  13.969  1.00  0.00     0.002 C 
HETATM   10  C11 UNL     1       9.882  20.402  13.310  1.00  0.00     0.000 C 
HETATM   11  C12 UNL     1      10.537  19.837  12.051  1.00  0.00     0.002 C 
HETATM   12  C13 UNL     1      11.776  19.043  12.404  1.00  0.00     0.036 C 
ENDBRANCH   6   7
BRANCH   1  13
HETATM   13  C1  UNL     1      15.005  18.507  14.038  1.00  0.00     0.210 C 
HETATM   14  O1  UNL     1      15.318  19.682  14.253  1.00  0.00    -0.646 OA
HETATM   15  O2  UNL     1      15.680  17.781  13.081  1.00  0.00    -0.646 OA
ENDBRANCH   1  13
BRANCH   2  16
HETATM   16  O3  UNL     1      15.796  17.218  16.072  1.00  0.00    -0.390 OA
ATOM     17  H3  UNL     1      16.256  16.510  16.507  1.00  0.00     0.210 HD
ENDBRANCH   2  16
BRANCH   4  18
HETATM   18  C6  UNL     1      11.812  14.465  16.096  1.00  0.00     0.173 C 
BRANCH  18  19
HETATM   19  O5  UNL     1      11.491  15.080  17.312  1.00  0.00    -0.400 OA
ATOM     20  H5  UNL     1      11.128  15.945  17.164  1.00  0.00     0.209 HD
ENDBRANCH  18  19
ENDBRANCH   4  18
BRANCH   3  21
HETATM   21  O4  UNL     1      14.502  14.823  16.848  1.00  0.00    -0.392 OA
ATOM     22  H4  UNL     1      14.898  14.297  16.164  1.00  0.00     0.210 HD
ENDBRANCH   3  21
TORSDOF 6
ENDMDL
MODEL 2
REMARK VINA RESULT: -5.980543341      0.746      1.352
REMARK  6 active torsions:
REMARK  status: ('A' for Active; 'I' for Inactive)
REMARK    1  A    between atoms: C1_2  and  C2_4 
REMARK    2  A    between atoms: C3_5  and  O3_6 
REMARK    3  A    between atoms: C4_8  and  O4_9 
REMARK    4  A    between atoms: C5_11  and  C6_12 
REMARK    5  A    between atoms: C6_12  and  O5_13 
REMARK    6  A    between atoms: N1_16  and  C8_17 
ROOT
HETATM    1  C2  UNL     1      14.216  17.690  14.828  1.00  0.00     0.354 C 
HETATM    2  C3  UNL     1      14.853  16.543  15.591  1.00  0.00     0.191 C 
HETATM    3  C4  UNL     1      13.908  15.823  16.471  1.00  0.00     0.157 C 
HETATM    4  C5  UNL     1      12.891  15.257  15.460  1.00  0.00     0.069 C 
HETATM    5  C7  UNL     1      12.225  16.424  14.759  1.00  0.00     0.283 C 
HETATM    6  N1  UNL     1      13.098  17.303  14.027  1.00  0.00     0.111 N 
ENDROOT
BRANCH   6   7
HETATM    7  C8  UNL     1      12.260  18.458  13.680  1.00  0.00     0.224 C 
HETATM    8  C9  UNL     1      12.541  19.588  14.643  1.00  0.00     0.036 C 
HETATM    9  C10 UNL     1      11.679  20.809  14.448  1.00  0.00     0.002 C 
HETATM   10  C11 UNL     1      10.681  20.641  13.319  1.00  0.00     0.000 C 
HETATM   11  C12 UNL     1       9.918  19.396  13.769  1.00  0.00     0.002 C 
HETATM   12  C13 UNL     1      10.800  18.169  13.684  1.00  0.00     0.036 C 
ENDBRANCH   6   7
BRANCH   1  13
HETATM   13  C1  UNL     1      15.414  18.142  14.026  1.00  0.00     0.210 C 
HETATM   14  O1  UNL     1      15.841  17.412  13.126  1.00  0.00    -0.646 OA
HETATM   15  O2  UNL     1      16.032  19.346  14.286  1.00  0.00    -0.646 OA
ENDBRANCH   1  13
BRANCH   2  16
HETATM   16  O3  UNL     1      16.026  16.955  16.181  1.00  0.00    -0.390 OA
ATOM     17  H3  UNL     1      16.773  16.632  15.691  1.00  0.00     0.210 HD
ENDBRANCH   2  16
BRANCH   4  18
HETATM   18  C6  UNL     1      11.815  14.565  16.268  1.00  0.00     0.173 C 
BRANCH  18  19
HETATM   19  O5  UNL     1      11.555  15.268  17.450  1.00  0.00    -0.400 OA
ATOM     20  H5  UNL     1      11.557  14.680  18.196  1.00  0.00     0.209 HD
ENDBRANCH  18  19
ENDBRANCH   4  18
BRANCH   3  21
HETATM   21  O4  UNL     1      14.501  14.749  17.089  1.00  0.00    -0.392 OA
ATOM     22  H4  UNL     1      13.914  14.006  17.149  1.00  0.00     0.210 HD
ENDBRANCH   3  21
TORSDOF 6
ENDMDL
MODEL 3
REMARK VINA RESULT: -5.936259335      2.382      6.136
REMARK  6 active torsions:
REMARK  status: ('A' for Active; 'I' for Inactive)
REMARK    1  A    between atoms: C1_2  and  C2_4 
REMARK    2  A    between atoms: C3_5  and  O3_6 
REMARK    3  A    between atoms: C4_8  and  O4_9 
REMARK    4  A    between atoms: C5_11  and  C6_12 
REMARK    5  A    between atoms: C6_12  and  O5_13 
REMARK    6  A    between atoms: N1_16  and  C8_17 
ROOT
HETATM    1  C2  UNL     1      13.137  16.520  15.694  1.00  0.00     0.354 C 
HETATM    2  C3  UNL     1      12.766  17.067  14.328  1.00  0.00     0.191 C 
HETATM    3  C4  UNL     1      13.448  18.336  13.995  1.00  0.00     0.157 C 
HETATM    4  C5  UNL     1      14.931  17.916  13.989  1.00  0.00     0.069 C 
HETATM    5  C7  UNL     1      15.290  17.434  15.380  1.00  0.00     0.283 C 
HETATM    6  N1  UNL     1      14.538  16.310  15.874  1.00  0.00     0.111 N 
ENDROOT
BRANCH   6   7
HETATM    7  C8  UNL     1      14.891  16.222  17.297  1.00  0.00     0.224 C 
HETATM    8  C9  UNL     1      16.316  16.686  17.489  1.00  0.00     0.036 C 
HETATM    9  C10 UNL     1      16.832  16.562  18.900  1.00  0.00     0.002 C 
HETATM   10  C11 UNL     1      15.804  15.973  19.845  1.00  0.00     0.000 C 
HETATM   11  C12 UNL     1      15.495  14.639  19.168  1.00  0.00     0.002 C 
HETATM   12  C13 UNL     1      14.742  14.858  17.874  1.00  0.00     0.036 C 
ENDBRANCH   6   7
BRANCH   1  13
HETATM   13  C1  UNL     1      12.327  15.245  15.671  1.00  0.00     0.210 C 
HETATM   14  O1  UNL     1      12.536  14.420  14.776  1.00  0.00    -0.646 OA
HETATM   15  O2  UNL     1      11.366  14.994  16.627  1.00  0.00    -0.646 OA
ENDBRANCH   1  13
BRANCH   2  16
HETATM   16  O3  UNL     1      11.400  17.060  14.165  1.00  0.00    -0.390 OA
ATOM     17  H3  UNL     1      11.133  17.768  13.591  1.00  0.00     0.210 HD
ENDBRANCH   2  16
BRANCH   4  18
HETATM   18  C6  UNL     1      15.738  19.171  13.742  1.00  0.00     0.173 C 
BRANCH  18  19
HETATM   19  O5  UNL     1      15.020  20.306  14.141  1.00  0.00    -0.400 OA
ATOM     20  H5  UNL     1      15.196  21.034  13.557  1.00  0.00     0.209 HD
ENDBRANCH  18  19
ENDBRANCH   4  18
BRANCH   3  21
HETATM   21  O4  UNL     1      13.145  18.763  12.726  1.00  0.00    -0.392 OA
ATOM     22  H4  UNL     1      13.835  19.303  12.359  1.00  0.00     0.210 HD
ENDBRANCH   3  21
TORSDOF 6
ENDMDL
MODEL 4
REMARK VINA RESULT: -5.934210712      2.291      5.860
REMARK  6 active torsions:
REMARK  status: ('A' for Active; 'I' for Inactive)
REMARK    1  A    between atoms: C1_2  and  C2_4 
REMARK    2  A    between atoms: C3_5  and  O3_6 
REMARK    3  A    between atoms: C4_8  and  O4_9 
REMARK    4  A    between atoms: C5_11  and  C6_12 
REMARK    5  A    between atoms: C6_12  and  O5_13 
REMARK    6  A    between atoms: N1_16  and  C8_17 
ROOT
HETATM    1  C2  UNL     1      13.041  16.455  15.575  1.00  0.00     0.354 C 
HETATM    2  C3  UNL     1      12.289  17.209  14.494  1.00  0.00     0.191 C 
HETATM    3  C4  UNL     1      12.781  18.588  14.285  1.00  0.00     0.157 C 
HETATM    4  C5  UNL     1      14.232  18.349  13.823  1.00  0.00     0.069 C 
HETATM    5  C7  UNL     1      14.975  17.652  14.944  1.00  0.00     0.283 C 
HETATM    6  N1  UNL     1      14.450  16.376  15.354  1.00  0.00     0.111 N 
ENDROOT
BRANCH   6   7
HETATM    7  C8  UNL     1      15.172  16.055  16.592  1.00  0.00     0.224 C 
HETATM    8  C9  UNL     1      14.257  16.273  17.774  1.00  0.00     0.036 C 
HETATM    9  C10 UNL     1      14.907  16.060  19.119  1.00  0.00     0.002 C 
HETATM   10  C11 UNL     1      16.370  15.683  19.003  1.00  0.00     0.000 C 
HETATM   11  C12 UNL     1      16.929  16.865  18.213  1.00  0.00     0.002 C 
HETATM   12  C13 UNL     1      16.417  16.846  16.789  1.00  0.00     0.036 C 
ENDBRANCH   6   7
BRANCH   1  13
HETATM   13  C1  UNL     1      12.332  15.125  15.478  1.00  0.00     0.210 C 
HETATM   14  O1  UNL     1      12.611  14.365  14.545  1.00  0.00    -0.646 OA
HETATM   15  O2  UNL     1      11.386  14.752  16.408  1.00  0.00    -0.646 OA
ENDBRANCH   1  13
BRANCH   2  16
HETATM   16  O3  UNL     1      10.931  17.079  14.676  1.00  0.00    -0.390 OA
ATOM     17  H3  UNL     1      10.470  17.782  14.234  1.00  0.00     0.210 HD
ENDBRANCH   2  16
BRANCH   4  18
HETATM   18  C6  UNL     1      14.867  19.712  13.662  1.00  0.00     0.173 C 
BRANCH  18  19
HETATM   19  O5  UNL     1      14.281  20.637  14.535  1.00  0.00    -0.400 OA
ATOM     20  H5  UNL     1      13.554  21.079  14.114  1.00  0.00     0.209 HD
ENDBRANCH  18  19
ENDBRANCH   4  18
BRANCH   3  21
HETATM   21  O4  UNL     1      12.127  19.215  13.253  1.00  0.00    -0.392 OA
ATOM     22  H4  UNL     1      12.242  18.756  12.430  1.00  0.00     0.210 HD
ENDBRANCH   3  21
TORSDOF 6
ENDMDL
MODEL 5
REMARK VINA RESULT: -5.916027473      2.878      6.243
REMARK  6 active torsions:
REMARK  status: ('A' for Active; 'I' for Inactive)
REMARK    1  A    between atoms: C1_2  and  C2_4 
REMARK    2  A    between atoms: C3_5  and  O3_6 
REMARK    3  A    between atoms: C4_8  and  O4_9 
REMARK    4  A    between atoms: C5_11  and  C6_12 
REMARK    5  A    between atoms: C6_12  and  O5_13 
REMARK    6  A    between atoms: N1_16  and  C8_17 
ROOT
HETATM    1  C2  UNL     1      14.186  16.965  15.228  1.00  0.00     0.354 C 
HETATM    2  C3  UNL     1      14.284  17.529  13.822  1.00  0.00     0.191 C 
HETATM    3  C4  UNL     1      15.276  18.617  13.691  1.00  0.00     0.157 C 
HETATM    4  C5  UNL     1      16.594  17.899  14.043  1.00  0.00     0.069 C 
HETATM    5  C7  UNL     1      16.492  17.402  15.471  1.00  0.00     0.283 C 
HETATM    6  N1  UNL     1      15.425  16.476  15.745  1.00  0.00     0.111 N 
ENDROOT
BRANCH   6   7
HETATM    7  C8  UNL     1      15.391  16.366  17.208  1.00  0.00     0.224 C 
HETATM    8  C9  UNL     1      16.750  16.721  17.768  1.00  0.00     0.036 C 
HETATM    9  C10 UNL     1      16.874  16.564  19.262  1.00  0.00     0.002 C 
HETATM   10  C11 UNL     1      15.596  16.058  19.901  1.00  0.00     0.000 C 
HETATM   11  C12 UNL     1      15.374  14.748  19.146  1.00  0.00     0.002 C 
HETATM   12  C13 UNL     1      14.999  15.020  17.705  1.00  0.00     0.036 C 
ENDBRANCH   6   7
BRANCH   1  13
HETATM   13  C1  UNL     1      13.158  15.885  14.983  1.00  0.00     0.210 C 
HETATM   14  O1  UNL     1      13.497  14.862  14.380  1.00  0.00    -0.646 OA
HETATM   15  O2  UNL     1      11.858  16.026  15.419  1.00  0.00    -0.646 OA
ENDBRANCH   1  13
BRANCH   2  16
HETATM   16  O3  UNL     1      13.029  17.799  13.327  1.00  0.00    -0.390 OA
ATOM     17  H3  UNL     1      13.053  17.854  12.379  1.00  0.00     0.210 HD
ENDBRANCH   2  16
BRANCH   4  18
HETATM   18  C6  UNL     1      17.681  18.951  14.026  1.00  0.00     0.173 C 
BRANCH  18  19
HETATM   19  O5  UNL     1      18.314  19.028  15.272  1.00  0.00    -0.400 OA
ATOM     20  H5  UNL     1      18.480  18.158  15.617  1.00  0.00     0.209 HD
ENDBRANCH  18  19
ENDBRANCH   4  18
BRANCH   3  21
HETATM   21  O4  UNL     1      15.389  19.053  12.394  1.00  0.00    -0.392 OA
ATOM     22  H4  UNL     1      16.264  18.917  12.049  1.00  0.00     0.210 HD
ENDBRANCH   3  21
TORSDOF 6
ENDMDL
