MODEL 1
REMARK VINA RESULT: -5.564634812      0.000      0.000
REMARK  7 active torsions:
REMARK  status: ('A' for Active; 'I' for Inactive)
REMARK    1  A    between atoms: C2_2  and  C3_3 
REMARK    2  A    between atoms: C5_5  and  O1_6 
REMARK    3  A    between atoms: C6_8  and  O2_9 
REMARK    4  A    between atoms: C8_12  and  C9_13 
REMARK    5  A    between atoms: C9_13  and  O3_15 
REMARK    6  A    between atoms: C11_17  and  C12_18 
REMARK    7  A    between atoms: C13_21  and  O6_22 
ROOT
HETATM    1  C3  UNL     1      13.694  16.307  15.163  1.00  0.00     0.019 C 
HETATM    2  C4  UNL     1      14.042  16.761  16.509  1.00  0.00     0.051 C 
HETATM    3  C5  UNL     1      15.457  16.576  16.970  1.00  0.00     0.148 C 
HETATM    4  C6  UNL     1      16.491  16.794  15.909  1.00  0.00     0.154 C 
HETATM    5  C7  UNL     1      15.867  16.779  14.527  1.00  0.00     0.054 C 
HETATM    6  C8  UNL     1      15.007  18.058  14.451  1.00  0.00     0.038 C 
HETATM    7  C11 UNL     1      13.644  17.495  14.171  1.00  0.00     0.108 C 
HETATM    8  C13 UNL     1      14.919  15.609  14.516  1.00  0.00     0.138 C 
ENDROOT
BRANCH   6   9
HETATM    9  C9  UNL     1      15.583  18.973  13.429  1.00  0.00     0.119 C 
HETATM   10  C10 UNL     1      16.000  18.353  12.134  1.00  0.00     0.040 C 
BRANCH   9  11
HETATM   11  O3  UNL     1      16.594  19.796  13.961  1.00  0.00    -0.396 OA
ATOM     12  H3  UNL     1      16.782  20.539  13.400  1.00  0.00     0.210 HD
ENDBRANCH   9  11
ENDBRANCH   6   9
BRANCH   7  13
HETATM   13  C12 UNL     1      12.485  18.319  14.369  1.00  0.00     0.178 C 
HETATM   14  O4  UNL     1      11.368  18.057  13.866  1.00  0.00    -0.648 OA
HETATM   15  O5  UNL     1      12.530  19.478  15.142  1.00  0.00    -0.648 OA
ENDBRANCH   7  13
BRANCH   4  16
HETATM   16  O2  UNL     1      17.208  17.985  16.099  1.00  0.00    -0.393 OA
ATOM     17  H2  UNL     1      17.875  17.903  16.770  1.00  0.00     0.210 HD
ENDBRANCH   4  16
BRANCH   8  18
HETATM   18  O6  UNL     1      14.599  15.185  13.233  1.00  0.00    -0.394 OA
ATOM     19  H6  UNL     1      15.365  14.808  12.817  1.00  0.00     0.210 HD
ENDBRANCH   8  18
BRANCH   1  20
HETATM   20  C2  UNL     1      12.505  15.459  15.019  1.00  0.00    -0.024 C 
HETATM   21  C1  UNL     1      11.949  14.711  15.950  1.00  0.00     0.008 C 
ENDBRANCH   1  20
BRANCH   3  22
HETATM   22  O1  UNL     1      15.608  15.316  17.539  1.00  0.00    -0.393 OA
ATOM     23  H1  UNL     1      15.995  15.396  18.402  1.00  0.00     0.210 HD
ENDBRANCH   3  22
TORSDOF 7
ENDMDL
MODEL 2
REMARK VINA RESULT: -5.354932825      1.619      4.908
REMARK  7 active torsions:
REMARK  status: ('A' for Active; 'I' for Inactive)
REMARK    1  A    between atoms: C2_2  and  C3_3 
REMARK    2  A    between atoms: C5_5  and  O1_6 
REMARK    3  A    between atoms: C6_8  and  O2_9 
REMARK    4  A    between atoms: C8_12  and  C9_13 
REMARK    5  A    between atoms: C9_13  and  O3_15 
REMARK    6  A    between atoms: C11_17  and  C12_18 
REMARK    7  A    between atoms: C13_21  and  O6_22 
ROOT
HETATM    1  C3  UNL     1      14.934  16.685  15.111  1.00  0.00     0.019 C 
HETATM    2  C4  UNL     1      14.147  17.916  15.172  1.00  0.00     0.051 C 
HETATM    3  C5  UNL     1      12.860  17.966  14.406  1.00  0.00     0.148 C 
HETATM    4  C6  UNL     1      12.085  16.685  14.403  1.00  0.00     0.154 C 
HETATM    5  C7  UNL     1      12.951  15.523  14.851  1.00  0.00     0.054 C 
HETATM    6  C8  UNL     1      13.224  15.769  16.350  1.00  0.00     0.038 C 
HETATM    7  C11 UNL     1      14.724  15.827  16.382  1.00  0.00     0.108 C 
HETATM    8  C13 UNL     1      14.264  15.687  14.131  1.00  0.00     0.138 C 
ENDROOT
BRANCH   6   9
HETATM    9  C9  UNL     1      12.572  14.695  17.147  1.00  0.00     0.119 C 
HETATM   10  C10 UNL     1      11.638  13.788  16.412  1.00  0.00     0.040 C 
BRANCH   9  11
HETATM   11  O3  UNL     1      11.993  15.189  18.331  1.00  0.00    -0.396 OA
ATOM     12  H3  UNL     1      11.814  14.498  18.957  1.00  0.00     0.210 HD
ENDBRANCH   9  11
ENDBRANCH   6   9
BRANCH   7  13
HETATM   13  C12 UNL     1      15.385  16.384  17.529  1.00  0.00     0.178 C 
HETATM   14  O4  UNL     1      16.532  16.883  17.479  1.00  0.00    -0.648 OA
HETATM   15  O5  UNL     1      14.783  16.404  18.786  1.00  0.00    -0.648 OA
ENDBRANCH   7  13
BRANCH   4  16
HETATM   16  O2  UNL     1      10.931  16.757  15.198  1.00  0.00    -0.393 OA
ATOM     17  H2  UNL     1      10.171  16.387  14.765  1.00  0.00     0.210 HD
ENDBRANCH   4  16
BRANCH   8  18
HETATM   18  O6  UNL     1      14.999  14.510  14.076  1.00  0.00    -0.394 OA
ATOM     19  H6  UNL     1      15.912  14.707  13.901  1.00  0.00     0.210 HD
ENDBRANCH   8  18
BRANCH   1  20
HETATM   20  C2  UNL     1      16.362  16.806  14.796  1.00  0.00    -0.024 C 
HETATM   21  C1  UNL     1      16.913  17.618  13.916  1.00  0.00     0.008 C 
ENDBRANCH   1  20
BRANCH   3  22
HETATM   22  O1  UNL     1      13.102  18.386  13.102  1.00  0.00    -0.393 OA
ATOM     23  H1  UNL     1      12.498  17.958  12.508  1.00  0.00     0.210 HD
ENDBRANCH   3  22
TORSDOF 7
ENDMDL
MODEL 3
REMARK VINA RESULT: -4.922487118      2.787      5.535
REMARK  7 active torsions:
REMARK  status: ('A' for Active; 'I' for Inactive)
REMARK    1  A    between atoms: C2_2  and  C3_3 
REMARK    2  A    between atoms: C5_5  and  O1_6 
REMARK    3  A    between atoms: C6_8  and  O2_9 
REMARK    4  A    between atoms: C8_12  and  C9_13 
REMARK    5  A    between atoms: C9_13  and  O3_15 
REMARK    6  A    between atoms: C11_17  and  C12_18 
REMARK    7  A    between atoms: C13_21  and  O6_22 
ROOT
HETATM    1  C3  UNL     1      10.860  20.296  13.217  1.00  0.00     0.019 C 
HETATM    2  C4  UNL     1       9.830  20.001  14.214  1.00  0.00     0.051 C 
HETATM    3  C5  UNL     1       9.217  18.634  14.209  1.00  0.00     0.148 C 
HETATM    4  C6  UNL     1      10.172  17.523  13.895  1.00  0.00     0.154 C 
HETATM    5  C7  UNL     1      11.451  18.060  13.283  1.00  0.00     0.054 C 
HETATM    6  C8  UNL     1      12.159  18.826  14.420  1.00  0.00     0.038 C 
HETATM    7  C11 UNL     1      12.275  20.205  13.836  1.00  0.00     0.108 C 
HETATM    8  C13 UNL     1      11.022  19.083  12.264  1.00  0.00     0.138 C 
ENDROOT
BRANCH   6   9
HETATM    9  C9  UNL     1      13.429  18.129  14.761  1.00  0.00     0.119 C 
HETATM   10  C10 UNL     1      14.144  17.452  13.637  1.00  0.00     0.040 C 
BRANCH   9  11
HETATM   11  O3  UNL     1      13.285  17.277  15.873  1.00  0.00    -0.396 OA
ATOM     12  H3  UNL     1      13.972  16.623  15.914  1.00  0.00     0.210 HD
ENDBRANCH   9  11
ENDBRANCH   6   9
BRANCH   7  13
HETATM   13  C12 UNL     1      12.563  21.316  14.699  1.00  0.00     0.178 C 
HETATM   14  O4  UNL     1      12.318  21.306  15.927  1.00  0.00    -0.648 OA
HETATM   15  O5  UNL     1      13.140  22.490  14.218  1.00  0.00    -0.648 OA
ENDBRANCH   7  13
BRANCH   4  16
HETATM   16  O2  UNL     1      10.470  16.741  15.021  1.00  0.00    -0.393 OA
ATOM     17  H2  UNL     1      11.123  16.077  14.837  1.00  0.00     0.210 HD
ENDBRANCH   4  16
BRANCH   8  18
HETATM   18  O6  UNL     1      12.006  19.351  11.321  1.00  0.00    -0.394 OA
ATOM     19  H6  UNL     1      11.907  18.771  10.576  1.00  0.00     0.210 HD
ENDBRANCH   8  18
BRANCH   1  20
HETATM   20  C2  UNL     1      10.713  21.528  12.433  1.00  0.00    -0.024 C 
HETATM   21  C1  UNL     1       9.692  22.360  12.450  1.00  0.00     0.008 C 
ENDBRANCH   1  20
BRANCH   3  22
HETATM   22  O1  UNL     1       8.137  18.603  13.333  1.00  0.00    -0.393 OA
ATOM     23  H1  UNL     1       7.326  18.706  13.816  1.00  0.00     0.210 HD
ENDBRANCH   3  22
TORSDOF 7
ENDMDL
MODEL 4
REMARK VINA RESULT: -4.913712004      7.859     10.526
REMARK  7 active torsions:
REMARK  status: ('A' for Active; 'I' for Inactive)
REMARK    1  A    between atoms: C2_2  and  C3_3 
REMARK    2  A    between atoms: C5_5  and  O1_6 
REMARK    3  A    between atoms: C6_8  and  O2_9 
REMARK    4  A    between atoms: C8_12  and  C9_13 
REMARK    5  A    between atoms: C9_13  and  O3_15 
REMARK    6  A    between atoms: C11_17  and  C12_18 
REMARK    7  A    between atoms: C13_21  and  O6_22 
ROOT
HETATM    1  C3  UNL     1      22.914  19.947  11.199  1.00  0.00     0.019 C 
HETATM    2  C4  UNL     1      22.070  19.486  12.303  1.00  0.00     0.051 C 
HETATM    3  C5  UNL     1      21.297  18.216  12.114  1.00  0.00     0.148 C 
HETATM    4  C6  UNL     1      22.021  17.154  11.345  1.00  0.00     0.154 C 
HETATM    5  C7  UNL     1      23.214  17.730  10.608  1.00  0.00     0.054 C 
HETATM    6  C8  UNL     1      24.224  18.123  11.706  1.00  0.00     0.038 C 
HETATM    7  C11 UNL     1      24.399  19.593  11.449  1.00  0.00     0.108 C 
HETATM    8  C13 UNL     1      22.728  19.009   9.977  1.00  0.00     0.138 C 
ENDROOT
BRANCH   6   9
HETATM    9  C9  UNL     1      25.435  17.267  11.584  1.00  0.00     0.119 C 
HETATM   10  C10 UNL     1      26.093  17.226  10.243  1.00  0.00     0.040 C 
BRANCH   9  11
HETATM   11  O3  UNL     1      25.225  15.974  12.100  1.00  0.00    -0.396 OA
ATOM     12  H3  UNL     1      24.581  15.967  12.797  1.00  0.00     0.210 HD
ENDBRANCH   9  11
ENDBRANCH   6   9
BRANCH   7  13
HETATM   13  C12 UNL     1      24.992  20.421  12.462  1.00  0.00     0.178 C 
HETATM   14  O4  UNL     1      24.980  20.123  13.679  1.00  0.00    -0.648 OA
HETATM   15  O5  UNL     1      25.624  21.623  12.152  1.00  0.00    -0.648 OA
ENDBRANCH   7  13
BRANCH   4  16
HETATM   16  O2  UNL     1      22.431  16.089  12.163  1.00  0.00    -0.393 OA
ATOM     17  H2  UNL     1      23.180  16.315  12.701  1.00  0.00     0.210 HD
ENDBRANCH   4  16
BRANCH   8  18
HETATM   18  O6  UNL     1      23.534  19.434   8.929  1.00  0.00    -0.394 OA
ATOM     19  H6  UNL     1      23.953  20.256   9.154  1.00  0.00     0.210 HD
ENDBRANCH   8  18
BRANCH   1  20
HETATM   20  C2  UNL     1      22.776  21.346  10.778  1.00  0.00    -0.024 C 
HETATM   21  C1  UNL     1      21.870  22.210  11.187  1.00  0.00     0.008 C 
ENDBRANCH   1  20
BRANCH   3  22
HETATM   22  O1  UNL     1      20.072  18.493  11.517  1.00  0.00    -0.393 OA
ATOM     23  H1  UNL     1      20.210  18.909  10.674  1.00  0.00     0.210 HD
ENDBRANCH   3  22
TORSDOF 7
ENDMDL
MODEL 5
REMARK VINA RESULT: -4.884316593      1.557      4.874
REMARK  7 active torsions:
REMARK  status: ('A' for Active; 'I' for Inactive)
REMARK    1  A    between atoms: C2_2  and  C3_3 
REMARK    2  A    between atoms: C5_5  and  O1_6 
REMARK    3  A    between atoms: C6_8  and  O2_9 
REMARK    4  A    between atoms: C8_12  and  C9_13 
REMARK    5  A    between atoms: C9_13  and  O3_15 
REMARK    6  A    between atoms: C11_17  and  C12_18 
REMARK    7  A    between atoms: C13_21  and  O6_22 
ROOT
HETATM    1  C3  UNL     1      16.314  17.647  13.514  1.00  0.00     0.019 C 
HETATM    2  C4  UNL     1      15.701  18.972  13.615  1.00  0.00     0.051 C 
HETATM    3  C5  UNL     1      14.209  19.066  13.511  1.00  0.00     0.148 C 
HETATM    4  C6  UNL     1      13.466  17.941  14.163  1.00  0.00     0.154 C 
HETATM    5  C7  UNL     1      14.388  16.772  14.449  1.00  0.00     0.054 C 
HETATM    6  C8  UNL     1      15.338  17.262  15.562  1.00  0.00     0.038 C 
HETATM    7  C11 UNL     1      16.682  17.096  14.913  1.00  0.00     0.108 C 
HETATM    8  C13 UNL     1      15.221  16.591  13.208  1.00  0.00     0.138 C 
ENDROOT
BRANCH   6   9
HETATM    9  C9  UNL     1      15.085  16.476  16.800  1.00  0.00     0.119 C 
HETATM   10  C10 UNL     1      16.083  16.624  17.903  1.00  0.00     0.040 C 
BRANCH   9  11
HETATM   11  O3  UNL     1      14.813  15.122  16.524  1.00  0.00    -0.396 OA
ATOM     12  H3  UNL     1      14.912  14.573  17.292  1.00  0.00     0.210 HD
ENDBRANCH   9  11
ENDBRANCH   6   9
BRANCH   7  13
HETATM   13  C12 UNL     1      17.824  17.760  15.475  1.00  0.00     0.178 C 
HETATM   14  O4  UNL     1      18.025  18.991  15.353  1.00  0.00    -0.648 OA
HETATM   15  O5  UNL     1      18.794  17.069  16.199  1.00  0.00    -0.648 OA
ENDBRANCH   7  13
BRANCH   4  16
HETATM   16  O2  UNL     1      12.819  18.342  15.342  1.00  0.00    -0.393 OA
ATOM     17  H2  UNL     1      12.996  17.757  16.068  1.00  0.00     0.210 HD
ENDBRANCH   4  16
BRANCH   8  18
HETATM   18  O6  UNL     1      15.793  15.328  13.121  1.00  0.00    -0.394 OA
ATOM     19  H6  UNL     1      15.116  14.674  12.997  1.00  0.00     0.210 HD
ENDBRANCH   8  18
BRANCH   1  20
HETATM   20  C2  UNL     1      17.435  17.487  12.581  1.00  0.00    -0.024 C 
HETATM   21  C1  UNL     1      17.477  17.868  11.320  1.00  0.00     0.008 C 
ENDBRANCH   1  20
BRANCH   3  22
HETATM   22  O1  UNL     1      13.835  19.181  12.176  1.00  0.00    -0.393 OA
ATOM     23  H1  UNL     1      13.138  18.567  11.982  1.00  0.00     0.210 HD
ENDBRANCH   3  22
TORSDOF 7
ENDMDL
