MODEL 1
REMARK VINA RESULT: -8.485094146      0.000      0.000
REMARK  6 active torsions:
REMARK  status: ('A' for Active; 'I' for Inactive)
REMARK    1  A    between atoms: N1_1  and  C1_4 
REMARK    2  A    between atoms: N5_11  and  C2_12 
REMARK    3  A    between atoms: C2_12  and  C3_13 
REMARK       I    between atoms: C3_13  and  N6_15 
REMARK    4  A    between atoms: N6_15  and  N7_17 
REMARK       I    between atoms: N7_17  and  C4_19 
REMARK    5  A    between atoms: C4_19  and  C5_21 
REMARK    6  A    between atoms: N10_27  and  C7_29 
ROOT
HETATM    1  N7  UNL     1      57.791  59.707  22.960  1.00  0.00    -0.260 N 
ATOM      2  H7  UNL     1      58.765  59.586  22.680  1.00  0.00     0.190 HD
HETATM    3  C4  UNL     1      56.881  58.596  22.830  1.00  0.00     0.312 C 
HETATM    4  O2  UNL     1      55.684  58.700  23.160  1.00  0.00    -0.262 OA
ENDROOT
BRANCH   3   5
HETATM    5  C5  UNL     1      57.400  57.345  22.300  1.00  0.00     0.236 A 
HETATM    6  N8  UNL     1      58.327  57.158  21.348  1.00  0.00    -0.272 N 
HETATM    7  N9  UNL     1      58.500  55.860  21.174  1.00  0.00    -0.262 N 
ATOM      8  H8  UNL     1      58.817  57.895  20.843  1.00  0.00     0.189 HD
HETATM    9  C6  UNL     1      57.668  55.224  22.030  1.00  0.00     0.260 A 
ATOM     10  H9  UNL     1      59.143  55.420  20.517  1.00  0.00     0.190 HD
HETATM   11  N10 UNL     1      57.505  53.966  22.198  1.00  0.00    -0.152 N 
HETATM   12  O3  UNL     1      57.034  56.162  22.678  1.00  0.00    -0.254 OA
ATOM     13  H10 UNL     1      58.063  53.331  21.627  1.00  0.00     0.188 HD
BRANCH  11  14
HETATM   14  C7  UNL     1      56.601  53.404  23.127  1.00  0.00     0.701 A 
HETATM   15  N11 UNL     1      56.669  52.238  23.775  1.00  0.00    -0.185 N 
HETATM   16  C8  UNL     1      55.566  52.103  24.576  1.00  0.00     0.215 A 
ATOM     17  H11 UNL     1      57.423  51.556  23.687  1.00  0.00     0.185 HD
HETATM   18  N12 UNL     1      54.836  53.213  24.395  1.00  0.00    -0.281 N 
HETATM   19  N13 UNL     1      55.460  53.999  23.521  1.00  0.00    -0.131 N 
ATOM     20  H12 UNL     1      53.949  53.421  24.853  1.00  0.00     0.188 HD
ATOM     21  H13 UNL     1      55.126  54.907  23.200  1.00  0.00     0.205 HD
ENDBRANCH  11  14
ENDBRANCH   3   5
BRANCH   1  22
HETATM   22  N6  UNL     1      57.378  60.941  23.459  1.00  0.00    -0.266 N 
HETATM   23  C3  UNL     1      56.998  61.943  22.528  1.00  0.00     0.256 C 
HETATM   24  O1  UNL     1      57.018  61.761  21.301  1.00  0.00    -0.270 OA
ATOM     25  H6  UNL     1      57.350  61.119  24.463  1.00  0.00     0.190 HD
BRANCH  23  26
HETATM   26  C2  UNL     1      56.559  63.257  23.067  1.00  0.00     0.274 C 
BRANCH  26  27
HETATM   27  N5  UNL     1      57.100  64.336  22.268  1.00  0.00    -0.098 N 
HETATM   28  C1  UNL     1      56.608  65.607  22.242  1.00  0.00     0.710 A 
HETATM   29  N2  UNL     1      57.327  66.363  21.402  1.00  0.00    -0.115 N 
HETATM   30  N3  UNL     1      58.253  65.559  20.915  1.00  0.00    -0.213 N 
ATOM     31  H2  UNL     1      57.188  67.351  21.184  1.00  0.00     0.207 HD
HETATM   32  N4  UNL     1      58.115  64.352  21.432  1.00  0.00    -0.211 N 
ATOM     33  H3  UNL     1      58.968  65.829  20.240  1.00  0.00     0.210 HD
ATOM     34  H4  UNL     1      58.709  63.551  21.216  1.00  0.00     0.210 HD
BRANCH  28  35
HETATM   35  N1  UNL     1      55.604  66.037  22.920  1.00  0.00    -0.232 N 
ATOM     36  H12 UNL     1      55.517  66.968  23.330  1.00  0.00     0.174 HD
ATOM     37  H11 UNL     1      54.771  65.485  23.122  1.00  0.00     0.174 HD
ENDBRANCH  28  35
ENDBRANCH  26  27
ENDBRANCH  23  26
ENDBRANCH   1  22
TORSDOF 6
ENDMDL
MODEL 2
REMARK VINA RESULT: -8.450494923      1.269      1.498
REMARK  6 active torsions:
REMARK  status: ('A' for Active; 'I' for Inactive)
REMARK    1  A    between atoms: N1_1  and  C1_4 
REMARK    2  A    between atoms: N5_11  and  C2_12 
REMARK    3  A    between atoms: C2_12  and  C3_13 
REMARK       I    between atoms: C3_13  and  N6_15 
REMARK    4  A    between atoms: N6_15  and  N7_17 
REMARK       I    between atoms: N7_17  and  C4_19 
REMARK    5  A    between atoms: C4_19  and  C5_21 
REMARK    6  A    between atoms: N10_27  and  C7_29 
ROOT
HETATM    1  N7  UNL     1      57.565  59.687  22.695  1.00  0.00    -0.260 N 
ATOM      2  H7  UNL     1      56.796  59.025  22.594  1.00  0.00     0.190 HD
HETATM    3  C4  UNL     1      58.869  59.328  22.196  1.00  0.00     0.312 C 
HETATM    4  O2  UNL     1      59.837  60.106  22.297  1.00  0.00    -0.262 OA
ENDROOT
BRANCH   3   5
HETATM    5  C5  UNL     1      59.026  58.026  21.566  1.00  0.00     0.236 A 
HETATM    6  N8  UNL     1      59.814  57.682  20.536  1.00  0.00    -0.272 N 
HETATM    7  N9  UNL     1      59.648  56.396  20.286  1.00  0.00    -0.262 N 
ATOM      8  H8  UNL     1      60.438  58.310  20.031  1.00  0.00     0.189 HD
HETATM    9  C6  UNL     1      58.741  55.927  21.173  1.00  0.00     0.260 A 
ATOM     10  H9  UNL     1      60.118  55.857  19.559  1.00  0.00     0.190 HD
HETATM   11  N10 UNL     1      58.283  54.738  21.292  1.00  0.00    -0.152 N 
HETATM   12  O3  UNL     1      58.403  56.945  21.914  1.00  0.00    -0.254 OA
ATOM     13  H10 UNL     1      58.627  54.026  20.648  1.00  0.00     0.188 HD
BRANCH  11  14
HETATM   14  C7  UNL     1      57.329  54.353  22.261  1.00  0.00     0.701 A 
HETATM   15  N11 UNL     1      57.329  53.293  23.074  1.00  0.00    -0.185 N 
HETATM   16  C8  UNL     1      56.199  53.318  23.847  1.00  0.00     0.215 A 
ATOM     17  H11 UNL     1      58.056  52.579  23.113  1.00  0.00     0.185 HD
HETATM   18  N12 UNL     1      55.521  54.416  23.480  1.00  0.00    -0.281 N 
HETATM   19  N13 UNL     1      56.202  55.040  22.523  1.00  0.00    -0.131 N 
ATOM     20  H12 UNL     1      54.630  54.722  23.871  1.00  0.00     0.188 HD
ATOM     21  H13 UNL     1      55.916  55.904  22.061  1.00  0.00     0.205 HD
ENDBRANCH  11  14
ENDBRANCH   3   5
BRANCH   1  22
HETATM   22  N6  UNL     1      57.327  60.914  23.312  1.00  0.00    -0.266 N 
HETATM   23  C3  UNL     1      56.967  62.015  22.490  1.00  0.00     0.256 C 
HETATM   24  O1  UNL     1      56.856  61.924  21.258  1.00  0.00    -0.270 OA
ATOM     25  H6  UNL     1      57.409  61.019  24.323  1.00  0.00     0.190 HD
BRANCH  23  26
HETATM   26  C2  UNL     1      56.716  63.321  23.155  1.00  0.00     0.274 C 
BRANCH  26  27
HETATM   27  N5  UNL     1      57.179  64.409  22.320  1.00  0.00    -0.098 N 
HETATM   28  C1  UNL     1      56.597  65.640  22.253  1.00  0.00     0.710 A 
HETATM   29  N2  UNL     1      57.261  66.417  21.387  1.00  0.00    -0.115 N 
HETATM   30  N3  UNL     1      58.243  65.666  20.925  1.00  0.00    -0.213 N 
ATOM     31  H2  UNL     1      57.053  67.385  21.138  1.00  0.00     0.207 HD
HETATM   32  N4  UNL     1      58.191  64.470  21.483  1.00  0.00    -0.211 N 
ATOM     33  H3  UNL     1      58.937  65.964  20.241  1.00  0.00     0.210 HD
ATOM     34  H4  UNL     1      58.840  63.707  21.292  1.00  0.00     0.210 HD
BRANCH  28  35
HETATM   35  N1  UNL     1      55.566  66.020  22.919  1.00  0.00    -0.232 N 
ATOM     36  H12 UNL     1      54.641  65.591  22.880  1.00  0.00     0.174 HD
ATOM     37  H11 UNL     1      55.563  66.803  23.572  1.00  0.00     0.174 HD
ENDBRANCH  28  35
ENDBRANCH  26  27
ENDBRANCH  23  26
ENDBRANCH   1  22
TORSDOF 6
ENDMDL
MODEL 3
REMARK VINA RESULT: -8.004360097      1.832      2.247
REMARK  6 active torsions:
REMARK  status: ('A' for Active; 'I' for Inactive)
REMARK    1  A    between atoms: N1_1  and  C1_4 
REMARK    2  A    between atoms: N5_11  and  C2_12 
REMARK    3  A    between atoms: C2_12  and  C3_13 
REMARK       I    between atoms: C3_13  and  N6_15 
REMARK    4  A    between atoms: N6_15  and  N7_17 
REMARK       I    between atoms: N7_17  and  C4_19 
REMARK    5  A    between atoms: C4_19  and  C5_21 
REMARK    6  A    between atoms: N10_27  and  C7_29 
ROOT
HETATM    1  N7  UNL     1      59.423  60.821  21.274  1.00  0.00    -0.260 N 
ATOM      2  H7  UNL     1      59.683  60.641  20.304  1.00  0.00     0.190 HD
HETATM    3  C4  UNL     1      59.076  59.709  22.124  1.00  0.00     0.312 C 
HETATM    4  O2  UNL     1      58.752  59.882  23.315  1.00  0.00    -0.262 OA
ENDROOT
BRANCH   3   5
HETATM    5  C5  UNL     1      59.112  58.372  21.551  1.00  0.00     0.236 A 
HETATM    6  N8  UNL     1      59.832  57.926  20.511  1.00  0.00    -0.272 N 
HETATM    7  N9  UNL     1      59.564  56.646  20.328  1.00  0.00    -0.262 N 
ATOM      8  H8  UNL     1      60.479  58.482  19.954  1.00  0.00     0.189 HD
HETATM    9  C6  UNL     1      58.661  56.285  21.268  1.00  0.00     0.260 A 
ATOM     10  H9  UNL     1      59.963  56.041  19.611  1.00  0.00     0.190 HD
HETATM   11  N10 UNL     1      58.123  55.140  21.461  1.00  0.00    -0.152 N 
HETATM   12  O3  UNL     1      58.427  57.358  21.972  1.00  0.00    -0.254 OA
ATOM     13  H10 UNL     1      58.388  54.376  20.839  1.00  0.00     0.188 HD
BRANCH  11  14
HETATM   14  C7  UNL     1      57.183  54.870  22.481  1.00  0.00     0.701 A 
HETATM   15  N11 UNL     1      57.127  55.346  23.728  1.00  0.00    -0.185 N 
HETATM   16  C8  UNL     1      56.044  54.805  24.368  1.00  0.00     0.215 A 
ATOM     17  H11 UNL     1      57.787  56.006  24.138  1.00  0.00     0.185 HD
HETATM   18  N12 UNL     1      55.450  53.996  23.478  1.00  0.00    -0.281 N 
HETATM   19  N13 UNL     1      56.138  54.034  22.339  1.00  0.00    -0.131 N 
ATOM     20  H12 UNL     1      54.610  53.443  23.646  1.00  0.00     0.188 HD
ATOM     21  H13 UNL     1      55.909  53.513  21.493  1.00  0.00     0.205 HD
ENDBRANCH  11  14
ENDBRANCH   3   5
BRANCH   1  22
HETATM   22  N6  UNL     1      59.415  62.134  21.741  1.00  0.00    -0.266 N 
HETATM   23  C3  UNL     1      58.271  62.931  21.471  1.00  0.00     0.256 C 
HETATM   24  O1  UNL     1      57.290  62.505  20.842  1.00  0.00    -0.270 OA
ATOM     25  H6  UNL     1      60.206  62.511  22.262  1.00  0.00     0.190 HD
BRANCH  23  26
HETATM   26  C2  UNL     1      58.269  64.330  21.972  1.00  0.00     0.274 C 
BRANCH  26  27
HETATM   27  N5  UNL     1      56.936  64.718  22.380  1.00  0.00    -0.098 N 
HETATM   28  C1  UNL     1      56.369  65.933  22.133  1.00  0.00     0.710 A 
HETATM   29  N2  UNL     1      55.131  65.977  22.644  1.00  0.00    -0.115 N 
HETATM   30  N3  UNL     1      54.942  64.796  23.201  1.00  0.00    -0.213 N 
ATOM     31  H2  UNL     1      54.474  66.757  22.608  1.00  0.00     0.207 HD
HETATM   32  N4  UNL     1      56.018  64.048  23.043  1.00  0.00    -0.211 N 
ATOM     33  H3  UNL     1      54.092  64.505  23.683  1.00  0.00     0.210 HD
ATOM     34  H4  UNL     1      56.123  63.093  23.384  1.00  0.00     0.210 HD
BRANCH  28  35
HETATM   35  N1  UNL     1      56.923  66.905  21.501  1.00  0.00    -0.232 N 
ATOM     36  H12 UNL     1      56.938  67.026  20.488  1.00  0.00     0.174 HD
ATOM     37  H11 UNL     1      57.413  67.676  21.954  1.00  0.00     0.174 HD
ENDBRANCH  28  35
ENDBRANCH  26  27
ENDBRANCH  23  26
ENDBRANCH   1  22
TORSDOF 6
ENDMDL
MODEL 4
REMARK VINA RESULT: -7.922120260      1.845      2.726
REMARK  6 active torsions:
REMARK  status: ('A' for Active; 'I' for Inactive)
REMARK    1  A    between atoms: N1_1  and  C1_4 
REMARK    2  A    between atoms: N5_11  and  C2_12 
REMARK    3  A    between atoms: C2_12  and  C3_13 
REMARK       I    between atoms: C3_13  and  N6_15 
REMARK    4  A    between atoms: N6_15  and  N7_17 
REMARK       I    between atoms: N7_17  and  C4_19 
REMARK    5  A    between atoms: C4_19  and  C5_21 
REMARK    6  A    between atoms: N10_27  and  C7_29 
ROOT
HETATM    1  N7  UNL     1      57.246  59.556  22.791  1.00  0.00    -0.260 N 
ATOM      2  H7  UNL     1      57.953  59.425  22.068  1.00  0.00     0.190 HD
HETATM    3  C4  UNL     1      56.385  58.454  23.138  1.00  0.00     0.312 C 
HETATM    4  O2  UNL     1      55.508  58.570  24.016  1.00  0.00    -0.262 OA
ENDROOT
BRANCH   3   5
HETATM    5  C5  UNL     1      56.567  57.194  22.432  1.00  0.00     0.236 A 
HETATM    6  N8  UNL     1      55.701  56.547  21.638  1.00  0.00    -0.272 N 
HETATM    7  N9  UNL     1      56.273  55.439  21.202  1.00  0.00    -0.262 N 
ATOM      8  H8  UNL     1      54.758  56.858  21.409  1.00  0.00     0.189 HD
HETATM    9  C6  UNL     1      57.517  55.392  21.732  1.00  0.00     0.260 A 
ATOM     10  H9  UNL     1      55.855  54.748  20.580  1.00  0.00     0.190 HD
HETATM   11  N10 UNL     1      58.417  54.496  21.577  1.00  0.00    -0.152 N 
HETATM   12  O3  UNL     1      57.638  56.468  22.460  1.00  0.00    -0.254 OA
ATOM     13  H10 UNL     1      58.200  53.698  20.981  1.00  0.00     0.188 HD
BRANCH  11  14
HETATM   14  C7  UNL     1      59.693  54.546  22.182  1.00  0.00     0.701 A 
HETATM   15  N11 UNL     1      60.180  55.426  23.061  1.00  0.00    -0.185 N 
HETATM   16  C8  UNL     1      61.470  55.085  23.373  1.00  0.00     0.215 A 
ATOM     17  H11 UNL     1      59.672  56.226  23.439  1.00  0.00     0.185 HD
HETATM   18  N12 UNL     1      61.745  53.981  22.663  1.00  0.00    -0.281 N 
HETATM   19  N13 UNL     1      60.674  53.655  21.944  1.00  0.00    -0.131 N 
ATOM     20  H12 UNL     1      62.630  53.474  22.673  1.00  0.00     0.188 HD
ATOM     21  H13 UNL     1      60.606  52.857  21.313  1.00  0.00     0.205 HD
ENDBRANCH  11  14
ENDBRANCH   3   5
BRANCH   1  22
HETATM   22  N6  UNL     1      57.141  60.797  23.418  1.00  0.00    -0.266 N 
HETATM   23  C3  UNL     1      56.926  61.940  22.603  1.00  0.00     0.256 C 
HETATM   24  O1  UNL     1      56.828  61.874  21.368  1.00  0.00    -0.270 OA
ATOM     25  H6  UNL     1      57.216  60.881  24.431  1.00  0.00     0.190 HD
BRANCH  23  26
HETATM   26  C2  UNL     1      56.815  63.259  23.278  1.00  0.00     0.274 C 
BRANCH  26  27
HETATM   27  N5  UNL     1      57.242  64.318  22.389  1.00  0.00    -0.098 N 
HETATM   28  C1  UNL     1      56.624  65.527  22.265  1.00  0.00     0.710 A 
HETATM   29  N2  UNL     1      57.261  66.280  21.358  1.00  0.00    -0.115 N 
HETATM   30  N3  UNL     1      58.262  65.536  20.928  1.00  0.00    -0.213 N 
ATOM     31  H2  UNL     1      57.023  67.228  21.063  1.00  0.00     0.207 HD
HETATM   32  N4  UNL     1      58.248  64.368  21.543  1.00  0.00    -0.211 N 
ATOM     33  H3  UNL     1      58.944  65.820  20.226  1.00  0.00     0.210 HD
ATOM     34  H4  UNL     1      58.919  63.616  21.387  1.00  0.00     0.210 HD
BRANCH  28  35
HETATM   35  N1  UNL     1      55.584  65.908  22.917  1.00  0.00    -0.232 N 
ATOM     36  H12 UNL     1      54.716  66.252  22.506  1.00  0.00     0.174 HD
ATOM     37  H11 UNL     1      55.514  65.904  23.934  1.00  0.00     0.174 HD
ENDBRANCH  28  35
ENDBRANCH  26  27
ENDBRANCH  23  26
ENDBRANCH   1  22
TORSDOF 6
ENDMDL
MODEL 5
REMARK VINA RESULT: -7.902102053      1.438      9.578
REMARK  6 active torsions:
REMARK  status: ('A' for Active; 'I' for Inactive)
REMARK    1  A    between atoms: N1_1  and  C1_4 
REMARK    2  A    between atoms: N5_11  and  C2_12 
REMARK    3  A    between atoms: C2_12  and  C3_13 
REMARK       I    between atoms: C3_13  and  N6_15 
REMARK    4  A    between atoms: N6_15  and  N7_17 
REMARK       I    between atoms: N7_17  and  C4_19 
REMARK    5  A    between atoms: C4_19  and  C5_21 
REMARK    6  A    between atoms: N10_27  and  C7_29 
ROOT
HETATM    1  N7  UNL     1      57.309  58.783  22.421  1.00  0.00    -0.260 N 
ATOM      2  H7  UNL     1      58.177  58.625  21.909  1.00  0.00     0.190 HD
HETATM    3  C4  UNL     1      56.951  60.129  22.794  1.00  0.00     0.312 C 
HETATM    4  O2  UNL     1      55.900  60.368  23.420  1.00  0.00    -0.262 OA
ENDROOT
BRANCH   3   5
HETATM    5  C5  UNL     1      57.853  61.207  22.418  1.00  0.00     0.236 A 
HETATM    6  N8  UNL     1      59.146  61.134  22.070  1.00  0.00    -0.272 N 
HETATM    7  N9  UNL     1      59.584  62.351  21.805  1.00  0.00    -0.262 N 
ATOM      8  H8  UNL     1      59.700  60.279  22.017  1.00  0.00     0.189 HD
HETATM    9  C6  UNL     1      58.548  63.201  21.993  1.00  0.00     0.260 A 
ATOM     10  H9  UNL     1      60.527  62.604  21.514  1.00  0.00     0.190 HD
HETATM   11  N10 UNL     1      58.523  64.472  21.852  1.00  0.00    -0.152 N 
HETATM   12  O3  UNL     1      57.538  62.461  22.359  1.00  0.00    -0.254 OA
ATOM     13  H10 UNL     1      59.382  64.939  21.560  1.00  0.00     0.188 HD
BRANCH  11  14
HETATM   14  C7  UNL     1      57.378  65.270  22.075  1.00  0.00     0.701 A 
HETATM   15  N11 UNL     1      56.324  65.037  22.862  1.00  0.00    -0.185 N 
HETATM   16  C8  UNL     1      55.448  66.085  22.764  1.00  0.00     0.215 A 
ATOM     17  H11 UNL     1      56.193  64.209  23.444  1.00  0.00     0.185 HD
HETATM   18  N12 UNL     1      55.999  66.952  21.902  1.00  0.00    -0.281 N 
HETATM   19  N13 UNL     1      57.164  66.460  21.485  1.00  0.00    -0.131 N 
ATOM     20  H12 UNL     1      55.593  67.842  21.613  1.00  0.00     0.188 HD
ATOM     21  H13 UNL     1      57.794  66.914  20.824  1.00  0.00     0.205 HD
ENDBRANCH  11  14
ENDBRANCH   3   5
BRANCH   1  22
HETATM   22  N6  UNL     1      56.502  57.692  22.740  1.00  0.00    -0.266 N 
HETATM   23  C3  UNL     1      56.631  56.515  21.957  1.00  0.00     0.256 C 
HETATM   24  O1  UNL     1      57.428  56.423  21.011  1.00  0.00    -0.270 OA
ATOM     25  H6  UNL     1      55.839  57.739  23.514  1.00  0.00     0.190 HD
BRANCH  23  26
HETATM   26  C2  UNL     1      55.767  55.357  22.303  1.00  0.00     0.274 C 
BRANCH  26  27
HETATM   27  N5  UNL     1      56.576  54.225  22.700  1.00  0.00    -0.098 N 
HETATM   28  C1  UNL     1      56.180  53.253  23.571  1.00  0.00     0.710 A 
HETATM   29  N2  UNL     1      57.159  52.351  23.731  1.00  0.00    -0.115 N 
HETATM   30  N3  UNL     1      58.148  52.770  22.965  1.00  0.00    -0.213 N 
ATOM     31  H2  UNL     1      57.142  51.518  24.320  1.00  0.00     0.207 HD
HETATM   32  N4  UNL     1      57.798  53.886  22.352  1.00  0.00    -0.211 N 
ATOM     33  H3  UNL     1      59.048  52.302  22.861  1.00  0.00     0.210 HD
ATOM     34  H4  UNL     1      58.389  54.408  21.704  1.00  0.00     0.210 HD
BRANCH  28  35
HETATM   35  N1  UNL     1      55.039  53.190  24.158  1.00  0.00    -0.232 N 
ATOM     36  H12 UNL     1      54.256  53.827  24.008  1.00  0.00     0.174 HD
ATOM     37  H11 UNL     1      54.788  52.481  24.847  1.00  0.00     0.174 HD
ENDBRANCH  28  35
ENDBRANCH  26  27
ENDBRANCH  23  26
ENDBRANCH   1  22
TORSDOF 6
ENDMDL
