MODEL 1
REMARK VINA RESULT: -8.708362232      0.000      0.000
REMARK  13 active torsions:
REMARK  status: ('A' for Active; 'I' for Inactive)
REMARK    1  A    between atoms: C2_2  and  O1_3 
REMARK    2  A    between atoms: O1_3  and  C3_4 
REMARK    3  A    between atoms: C3_4  and  C4_5 
REMARK    4  A    between atoms: C4_5  and  N1_6 
REMARK    5  A    between atoms: C8_11  and  C9_12 
REMARK       I    between atoms: C9_12  and  N3_14 
REMARK    6  A    between atoms: N3_14  and  C10_16 
REMARK    7  A    between atoms: C13_19  and  C14_20 
REMARK    8  A    between atoms: C14_20  and  C15_21 
REMARK    9  A    between atoms: C15_21  and  C16_22 
REMARK   10  A    between atoms: C16_22  and  C17_23 
REMARK   11  A    between atoms: C17_23  and  C18_24 
REMARK       I    between atoms: N6_30  and  C20_32 
REMARK   12  A    between atoms: C20_32  and  C21_34 
REMARK   13  A    between atoms: C21_34  and  C22_35 
ROOT
HETATM    1  C10 UNL     1      22.190  31.241  15.295  1.00  0.00     0.122 A 
HETATM    2  C11 UNL     1      22.760  32.265  14.534  1.00  0.00     0.052 A 
HETATM    3  C12 UNL     1      22.522  33.555  14.933  1.00  0.00     0.030 A 
HETATM    4  C13 UNL     1      21.745  33.787  16.048  1.00  0.00     0.026 A 
HETATM    5  N7  UNL     1      21.208  32.786  16.762  1.00  0.00    -0.303 N 
ATOM      6  H7  UNL     1      20.636  32.974  17.585  1.00  0.00     0.186 HD
HETATM    7  N8  UNL     1      21.444  31.549  16.367  1.00  0.00    -0.285 N 
ATOM      8  H8  UNL     1      21.038  30.785  16.906  1.00  0.00     0.188 HD
ENDROOT
BRANCH   4   9
HETATM    9  C14 UNL     1      21.534  35.231  16.409  1.00  0.00     0.058 C 
BRANCH   9  10
HETATM   10  C15 UNL     1      21.270  35.411  17.884  1.00  0.00     0.006 C 
BRANCH  10  11
HETATM   11  C16 UNL     1      20.691  36.757  18.169  1.00  0.00     0.007 C 
BRANCH  11  12
HETATM   12  C17 UNL     1      19.365  36.683  18.885  1.00  0.00     0.066 C 
BRANCH  12  13
HETATM   13  C18 UNL     1      18.367  36.108  17.920  1.00  0.00     0.069 A 
HETATM   14  N4  UNL     1      17.565  36.741  17.077  1.00  0.00    -0.296 N 
HETATM   15  N5  UNL     1      16.781  36.114  16.321  1.00  0.00    -0.279 N 
ATOM     16  H4  UNL     1      17.585  37.759  17.039  1.00  0.00     0.187 HD
HETATM   17  C19 UNL     1      16.767  34.753  16.385  1.00  0.00     0.167 A 
ATOM     18  H5  UNL     1      16.169  36.612  15.676  1.00  0.00     0.189 HD
HETATM   19  N6  UNL     1      16.019  33.994  15.672  1.00  0.00    -0.306 N 
HETATM   20  S1  UNL     1      17.949  34.486  17.592  1.00  0.00    -0.038 SA
HETATM   21  C20 UNL     1      16.013  32.611  15.745  1.00  0.00     0.227 C 
ATOM     22  H6  UNL     1      15.387  34.438  15.007  1.00  0.00     0.171 HD
HETATM   23  O3  UNL     1      14.917  31.972  15.509  1.00  0.00    -0.273 OA
BRANCH  21  24
HETATM   24  C21 UNL     1      17.197  31.803  16.078  1.00  0.00     0.143 C 
BRANCH  24  25
HETATM   25  C22 UNL     1      17.671  31.136  14.820  1.00  0.00    -0.024 A 
HETATM   26  C23 UNL     1      17.283  29.854  14.506  1.00  0.00     0.033 A 
HETATM   27  C24 UNL     1      17.730  29.246  13.333  1.00  0.00     0.036 A 
HETATM   28 CL1  UNL     1      17.226  27.618  12.953  1.00  0.00    -0.084 Cl
HETATM   29  C25 UNL     1      18.565  29.905  12.463  1.00  0.00     0.049 A 
HETATM   30  C26 UNL     1      18.954  31.189  12.776  1.00  0.00     0.058 A 
HETATM   31 CL2  UNL     1      20.024  32.041  11.666  1.00  0.00    -0.082 Cl
HETATM   32  C27 UNL     1      18.504  31.797  13.953  1.00  0.00     0.062 A 
HETATM   33 CL3  UNL     1      19.026  33.420  14.302  1.00  0.00    -0.082 Cl
ENDBRANCH  24  25
ENDBRANCH  21  24
ENDBRANCH  12  13
ENDBRANCH  11  12
ENDBRANCH  10  11
ENDBRANCH   9  10
ENDBRANCH   4   9
BRANCH   1  34
HETATM   34  N3  UNL     1      22.428  30.054  14.900  1.00  0.00    -0.306 N 
HETATM   35  C9  UNL     1      21.526  29.078  14.475  1.00  0.00     0.282 C 
HETATM   36  O2  UNL     1      20.486  28.803  15.123  1.00  0.00    -0.265 OA
ATOM     37  H3  UNL     1      23.411  29.780  14.895  1.00  0.00     0.170 HD
BRANCH  35  38
HETATM   38  C8  UNL     1      21.752  28.321  13.241  1.00  0.00     0.163 A 
HETATM   39  C7  UNL     1      22.805  28.369  12.380  1.00  0.00     0.143 A 
HETATM   40  N2  UNL     1      22.559  27.487  11.389  1.00  0.00    -0.294 N 
HETATM   41  C6  UNL     1      23.015  26.959  10.262  1.00  0.00     0.117 A 
HETATM   42  C28 UNL     1      21.364  26.923  11.666  1.00  0.00     0.237 A 
HETATM   43  C5  UNL     1      22.082  26.048   9.833  1.00  0.00     0.112 A 
HETATM   44  N1  UNL     1      21.038  26.027  10.723  1.00  0.00    -0.319 N 
HETATM   45  O4  UNL     1      20.918  27.439  12.765  1.00  0.00    -0.272 OA
BRANCH  44  46
HETATM   46  C4  UNL     1      19.883  25.172  10.576  1.00  0.00     0.158 C 
BRANCH  46  47
HETATM   47  C3  UNL     1      18.656  25.931  10.149  1.00  0.00     0.187 C 
BRANCH  47  48
HETATM   48  O1  UNL     1      17.479  25.245  10.231  1.00  0.00    -0.390 OA
BRANCH  48  49
HETATM   49  C2  UNL     1      17.604  23.873  10.028  1.00  0.00     0.163 C 
HETATM   50  C1  UNL     1      17.071  23.129  11.259  1.00  0.00     0.033 C 
ENDBRANCH  48  49
ENDBRANCH  47  48
ENDBRANCH  46  47
ENDBRANCH  44  46
ENDBRANCH  35  38
ENDBRANCH   1  34
TORSDOF 13
ENDMDL
MODEL 2
REMARK VINA RESULT: -8.657440046      3.601      6.781
REMARK  13 active torsions:
REMARK  status: ('A' for Active; 'I' for Inactive)
REMARK    1  A    between atoms: C2_2  and  O1_3 
REMARK    2  A    between atoms: O1_3  and  C3_4 
REMARK    3  A    between atoms: C3_4  and  C4_5 
REMARK    4  A    between atoms: C4_5  and  N1_6 
REMARK    5  A    between atoms: C8_11  and  C9_12 
REMARK       I    between atoms: C9_12  and  N3_14 
REMARK    6  A    between atoms: N3_14  and  C10_16 
REMARK    7  A    between atoms: C13_19  and  C14_20 
REMARK    8  A    between atoms: C14_20  and  C15_21 
REMARK    9  A    between atoms: C15_21  and  C16_22 
REMARK   10  A    between atoms: C16_22  and  C17_23 
REMARK   11  A    between atoms: C17_23  and  C18_24 
REMARK       I    between atoms: N6_30  and  C20_32 
REMARK   12  A    between atoms: C20_32  and  C21_34 
REMARK   13  A    between atoms: C21_34  and  C22_35 
ROOT
HETATM    1  C10 UNL     1      18.057  27.919  10.436  1.00  0.00     0.122 A 
HETATM    2  C11 UNL     1      18.834  27.869  11.596  1.00  0.00     0.052 A 
HETATM    3  C12 UNL     1      18.564  28.789  12.577  1.00  0.00     0.030 A 
HETATM    4  C13 UNL     1      17.556  29.709  12.383  1.00  0.00     0.026 A 
HETATM    5  N7  UNL     1      16.824  29.736  11.259  1.00  0.00    -0.303 N 
ATOM      6  H7  UNL     1      16.081  30.424  11.132  1.00  0.00     0.186 HD
HETATM    7  N8  UNL     1      17.094  28.846  10.324  1.00  0.00    -0.285 N 
ATOM      8  H8  UNL     1      16.540  28.863   9.468  1.00  0.00     0.188 HD
ENDROOT
BRANCH   4   9
HETATM    9  C14 UNL     1      17.334  30.681  13.508  1.00  0.00     0.058 C 
BRANCH   9  10
HETATM   10  C15 UNL     1      18.630  31.086  14.168  1.00  0.00     0.006 C 
BRANCH  10  11
HETATM   11  C16 UNL     1      19.410  32.017  13.301  1.00  0.00     0.007 C 
BRANCH  11  12
HETATM   12  C17 UNL     1      20.902  31.862  13.470  1.00  0.00     0.066 C 
BRANCH  12  13
HETATM   13  C18 UNL     1      21.246  32.338  14.855  1.00  0.00     0.069 A 
HETATM   14  N4  UNL     1      22.186  31.895  15.676  1.00  0.00    -0.296 N 
HETATM   15  N5  UNL     1      22.357  32.403  16.812  1.00  0.00    -0.279 N 
ATOM     16  H4  UNL     1      22.785  31.125  15.379  1.00  0.00     0.187 HD
HETATM   17  C19 UNL     1      21.547  33.431  17.192  1.00  0.00     0.167 A 
ATOM     18  H5  UNL     1      23.085  32.054  17.436  1.00  0.00     0.189 HD
HETATM   19  N6  UNL     1      21.614  34.038  18.320  1.00  0.00    -0.306 N 
HETATM   20  S1  UNL     1      20.561  33.579  15.803  1.00  0.00    -0.038 SA
HETATM   21  C20 UNL     1      20.785  35.082  18.696  1.00  0.00     0.227 C 
ATOM     22  H6  UNL     1      22.325  33.732  18.984  1.00  0.00     0.171 HD
HETATM   23  O3  UNL     1      20.481  35.228  19.941  1.00  0.00    -0.273 OA
BRANCH  21  24
HETATM   24  C21 UNL     1      20.217  36.057  17.752  1.00  0.00     0.143 C 
BRANCH  24  25
HETATM   25  C22 UNL     1      18.763  36.226  18.081  1.00  0.00    -0.024 A 
HETATM   26  C23 UNL     1      17.872  35.191  17.917  1.00  0.00     0.033 A 
HETATM   27  C24 UNL     1      16.522  35.362  18.227  1.00  0.00     0.036 A 
HETATM   28 CL1  UNL     1      15.408  34.035  18.011  1.00  0.00    -0.084 Cl
HETATM   29  C25 UNL     1      16.047  36.560  18.701  1.00  0.00     0.049 A 
HETATM   30  C26 UNL     1      16.938  37.598  18.865  1.00  0.00     0.058 A 
HETATM   31 CL2  UNL     1      16.337  39.139  19.473  1.00  0.00    -0.082 Cl
HETATM   32  C27 UNL     1      18.291  37.424  18.554  1.00  0.00     0.062 A 
HETATM   33 CL3  UNL     1      19.375  38.767  18.779  1.00  0.00    -0.082 Cl
ENDBRANCH  24  25
ENDBRANCH  21  24
ENDBRANCH  12  13
ENDBRANCH  11  12
ENDBRANCH  10  11
ENDBRANCH   9  10
ENDBRANCH   4   9
BRANCH   1  34
HETATM   34  N3  UNL     1      18.330  27.052   9.545  1.00  0.00    -0.306 N 
HETATM   35  C9  UNL     1      18.740  27.255   8.226  1.00  0.00     0.282 C 
HETATM   36  O2  UNL     1      18.153  28.061   7.462  1.00  0.00    -0.265 OA
ATOM     37  H3  UNL     1      18.236  26.077   9.832  1.00  0.00     0.170 HD
BRANCH  35  38
HETATM   38  C8  UNL     1      19.884  26.532   7.666  1.00  0.00     0.163 A 
HETATM   39  C7  UNL     1      20.165  26.235   6.367  1.00  0.00     0.143 A 
HETATM   40  N2  UNL     1      21.330  25.555   6.350  1.00  0.00    -0.294 N 
HETATM   41  C6  UNL     1      22.229  24.952   5.584  1.00  0.00     0.117 A 
HETATM   42  C28 UNL     1      21.732  25.451   7.634  1.00  0.00     0.237 A 
HETATM   43  C5  UNL     1      23.208  24.465   6.414  1.00  0.00     0.112 A 
HETATM   44  N1  UNL     1      22.892  24.782   7.711  1.00  0.00    -0.319 N 
HETATM   45  O4  UNL     1      20.855  26.038   8.382  1.00  0.00    -0.272 OA
BRANCH  44  46
HETATM   46  C4  UNL     1      23.715  24.423   8.842  1.00  0.00     0.158 C 
BRANCH  46  47
HETATM   47  C3  UNL     1      24.074  25.610   9.693  1.00  0.00     0.187 C 
BRANCH  47  48
HETATM   48  O1  UNL     1      24.342  25.339  11.004  1.00  0.00    -0.390 OA
BRANCH  48  49
HETATM   49  C2  UNL     1      24.515  26.471  11.796  1.00  0.00     0.163 C 
HETATM   50  C1  UNL     1      23.223  27.297  11.788  1.00  0.00     0.033 C 
ENDBRANCH  48  49
ENDBRANCH  47  48
ENDBRANCH  46  47
ENDBRANCH  44  46
ENDBRANCH  35  38
ENDBRANCH   1  34
TORSDOF 13
ENDMDL
MODEL 3
REMARK VINA RESULT: -8.601554427      3.398      6.008
REMARK  13 active torsions:
REMARK  status: ('A' for Active; 'I' for Inactive)
REMARK    1  A    between atoms: C2_2  and  O1_3 
REMARK    2  A    between atoms: O1_3  and  C3_4 
REMARK    3  A    between atoms: C3_4  and  C4_5 
REMARK    4  A    between atoms: C4_5  and  N1_6 
REMARK    5  A    between atoms: C8_11  and  C9_12 
REMARK       I    between atoms: C9_12  and  N3_14 
REMARK    6  A    between atoms: N3_14  and  C10_16 
REMARK    7  A    between atoms: C13_19  and  C14_20 
REMARK    8  A    between atoms: C14_20  and  C15_21 
REMARK    9  A    between atoms: C15_21  and  C16_22 
REMARK   10  A    between atoms: C16_22  and  C17_23 
REMARK   11  A    between atoms: C17_23  and  C18_24 
REMARK       I    between atoms: N6_30  and  C20_32 
REMARK   12  A    between atoms: C20_32  and  C21_34 
REMARK   13  A    between atoms: C21_34  and  C22_35 
ROOT
HETATM    1  C10 UNL     1      20.269  31.354  14.776  1.00  0.00     0.122 A 
HETATM    2  C11 UNL     1      20.224  32.706  14.426  1.00  0.00     0.052 A 
HETATM    3  C12 UNL     1      19.559  33.555  15.273  1.00  0.00     0.030 A 
HETATM    4  C13 UNL     1      18.973  33.052  16.414  1.00  0.00     0.026 A 
HETATM    5  N7  UNL     1      19.030  31.748  16.728  1.00  0.00    -0.303 N 
ATOM      6  H7  UNL     1      18.590  31.392  17.577  1.00  0.00     0.186 HD
HETATM    7  N8  UNL     1      19.672  30.942  15.905  1.00  0.00    -0.285 N 
ATOM      8  H8  UNL     1      19.717  29.950  16.139  1.00  0.00     0.188 HD
ENDROOT
BRANCH   4   9
HETATM    9  C14 UNL     1      18.262  34.054  17.280  1.00  0.00     0.058 C 
BRANCH   9  10
HETATM   10  C15 UNL     1      16.806  33.704  17.470  1.00  0.00     0.006 C 
BRANCH  10  11
HETATM   11  C16 UNL     1      15.946  34.411  16.475  1.00  0.00     0.007 C 
BRANCH  11  12
HETATM   12  C17 UNL     1      14.890  35.273  17.125  1.00  0.00     0.066 C 
BRANCH  12  13
HETATM   13  C18 UNL     1      15.600  36.403  17.817  1.00  0.00     0.069 A 
HETATM   14  N4  UNL     1      15.642  36.691  19.109  1.00  0.00    -0.296 N 
HETATM   15  N5  UNL     1      16.289  37.678  19.540  1.00  0.00    -0.279 N 
ATOM     16  H4  UNL     1      15.139  36.098  19.769  1.00  0.00     0.187 HD
HETATM   17  C19 UNL     1      16.955  38.459  18.645  1.00  0.00     0.167 A 
ATOM     18  H5  UNL     1      16.315  37.889  20.538  1.00  0.00     0.189 HD
HETATM   19  N6  UNL     1      17.652  39.492  18.949  1.00  0.00    -0.306 N 
HETATM   20  S1  UNL     1      16.567  37.658  17.184  1.00  0.00    -0.038 SA
HETATM   21  C20 UNL     1      18.324  40.280  18.030  1.00  0.00     0.227 C 
ATOM     22  H6  UNL     1      17.715  39.750  19.934  1.00  0.00     0.171 HD
HETATM   23  O3  UNL     1      18.467  41.540  18.266  1.00  0.00    -0.273 OA
BRANCH  21  24
HETATM   24  C21 UNL     1      18.902  39.766  16.778  1.00  0.00     0.143 C 
BRANCH  24  25
HETATM   25  C22 UNL     1      20.232  39.151  17.100  1.00  0.00    -0.024 A 
HETATM   26  C23 UNL     1      20.331  37.837  17.496  1.00  0.00     0.033 A 
HETATM   27  C24 UNL     1      21.574  37.278  17.792  1.00  0.00     0.036 A 
HETATM   28 CL1  UNL     1      21.678  35.609  18.293  1.00  0.00    -0.084 Cl
HETATM   29  C25 UNL     1      22.727  38.018  17.698  1.00  0.00     0.049 A 
HETATM   30  C26 UNL     1      22.630  39.334  17.302  1.00  0.00     0.058 A 
HETATM   31 CL2  UNL     1      24.105  40.290  17.179  1.00  0.00    -0.082 Cl
HETATM   32  C27 UNL     1      21.382  39.893  17.005  1.00  0.00     0.062 A 
HETATM   33 CL3  UNL     1      21.314  41.560  16.510  1.00  0.00    -0.082 Cl
ENDBRANCH  24  25
ENDBRANCH  21  24
ENDBRANCH  12  13
ENDBRANCH  11  12
ENDBRANCH  10  11
ENDBRANCH   9  10
ENDBRANCH   4   9
BRANCH   1  34
HETATM   34  N3  UNL     1      20.894  30.590  13.972  1.00  0.00    -0.306 N 
HETATM   35  C9  UNL     1      20.868  29.197  13.893  1.00  0.00     0.282 C 
HETATM   36  O2  UNL     1      21.001  28.469  14.909  1.00  0.00    -0.265 OA
ATOM     37  H3  UNL     1      21.495  31.059  13.293  1.00  0.00     0.170 HD
BRANCH  35  38
HETATM   38  C8  UNL     1      20.682  28.511  12.613  1.00  0.00     0.163 A 
HETATM   39  C7  UNL     1      19.867  28.834  11.571  1.00  0.00     0.143 A 
HETATM   40  N2  UNL     1      20.045  27.901  10.613  1.00  0.00    -0.294 N 
HETATM   41  C6  UNL     1      19.682  27.499   9.402  1.00  0.00     0.117 A 
HETATM   42  C28 UNL     1      20.960  27.031  11.089  1.00  0.00     0.237 A 
HETATM   43  C5  UNL     1      20.389  26.356   9.126  1.00  0.00     0.112 A 
HETATM   44  N1  UNL     1      21.198  26.061  10.195  1.00  0.00    -0.319 N 
HETATM   45  O4  UNL     1      21.313  27.423  12.270  1.00  0.00    -0.272 OA
BRANCH  44  46
HETATM   46  C4  UNL     1      22.083  24.921  10.233  1.00  0.00     0.158 C 
BRANCH  46  47
HETATM   47  C3  UNL     1      23.533  25.320  10.278  1.00  0.00     0.187 C 
BRANCH  47  48
HETATM   48  O1  UNL     1      24.058  25.498  11.526  1.00  0.00    -0.390 OA
BRANCH  48  49
HETATM   49  C2  UNL     1      24.714  26.714  11.698  1.00  0.00     0.163 C 
HETATM   50  C1  UNL     1      24.655  27.511  10.389  1.00  0.00     0.033 C 
ENDBRANCH  48  49
ENDBRANCH  47  48
ENDBRANCH  46  47
ENDBRANCH  44  46
ENDBRANCH  35  38
ENDBRANCH   1  34
TORSDOF 13
ENDMDL
MODEL 4
REMARK VINA RESULT: -8.564417778      3.360     10.191
REMARK  13 active torsions:
REMARK  status: ('A' for Active; 'I' for Inactive)
REMARK    1  A    between atoms: C2_2  and  O1_3 
REMARK    2  A    between atoms: O1_3  and  C3_4 
REMARK    3  A    between atoms: C3_4  and  C4_5 
REMARK    4  A    between atoms: C4_5  and  N1_6 
REMARK    5  A    between atoms: C8_11  and  C9_12 
REMARK       I    between atoms: C9_12  and  N3_14 
REMARK    6  A    between atoms: N3_14  and  C10_16 
REMARK    7  A    between atoms: C13_19  and  C14_20 
REMARK    8  A    between atoms: C14_20  and  C15_21 
REMARK    9  A    between atoms: C15_21  and  C16_22 
REMARK   10  A    between atoms: C16_22  and  C17_23 
REMARK   11  A    between atoms: C17_23  and  C18_24 
REMARK       I    between atoms: N6_30  and  C20_32 
REMARK   12  A    between atoms: C20_32  and  C21_34 
REMARK   13  A    between atoms: C21_34  and  C22_35 
ROOT
HETATM    1  C10 UNL     1      20.616  30.419  13.715  1.00  0.00     0.122 A 
HETATM    2  C11 UNL     1      20.959  30.515  12.364  1.00  0.00     0.052 A 
HETATM    3  C12 UNL     1      21.584  29.435  11.794  1.00  0.00     0.030 A 
HETATM    4  C13 UNL     1      21.845  28.320  12.561  1.00  0.00     0.026 A 
HETATM    5  N7  UNL     1      21.505  28.253  13.858  1.00  0.00    -0.303 N 
ATOM      6  H7  UNL     1      21.705  27.421  14.412  1.00  0.00     0.186 HD
HETATM    7  N8  UNL     1      20.904  29.299  14.394  1.00  0.00    -0.285 N 
ATOM      8  H8  UNL     1      20.645  29.253  15.379  1.00  0.00     0.188 HD
ENDROOT
BRANCH   4   9
HETATM    9  C14 UNL     1      22.536  27.188  11.856  1.00  0.00     0.058 C 
BRANCH   9  10
HETATM   10  C15 UNL     1      23.963  27.533  11.499  1.00  0.00     0.006 C 
BRANCH  10  11
HETATM   11  C16 UNL     1      24.689  26.342  10.967  1.00  0.00     0.007 C 
BRANCH  11  12
HETATM   12  C17 UNL     1      24.826  26.366   9.464  1.00  0.00     0.066 C 
BRANCH  12  13
HETATM   13  C18 UNL     1      23.752  25.475   8.903  1.00  0.00     0.069 A 
HETATM   14  N4  UNL     1      23.737  24.155   8.798  1.00  0.00    -0.296 N 
HETATM   15  N5  UNL     1      22.753  23.548   8.306  1.00  0.00    -0.279 N 
ATOM     16  H4  UNL     1      24.541  23.620   9.125  1.00  0.00     0.187 HD
HETATM   17  C19 UNL     1      21.688  24.279   7.875  1.00  0.00     0.167 A 
ATOM     18  H5  UNL     1      22.753  22.531   8.231  1.00  0.00     0.189 HD
HETATM   19  N6  UNL     1      20.623  23.787   7.356  1.00  0.00    -0.306 N 
HETATM   20  S1  UNL     1      22.229  25.860   8.237  1.00  0.00    -0.038 SA
HETATM   21  C20 UNL     1      19.546  24.540   6.920  1.00  0.00     0.227 C 
ATOM     22  H6  UNL     1      20.567  22.773   7.257  1.00  0.00     0.171 HD
HETATM   23  O3  UNL     1      18.844  24.117   5.924  1.00  0.00    -0.273 OA
BRANCH  21  24
HETATM   24  C21 UNL     1      19.138  25.815   7.531  1.00  0.00     0.143 C 
BRANCH  24  25
HETATM   25  C22 UNL     1      18.577  25.518   8.890  1.00  0.00    -0.024 A 
HETATM   26  C23 UNL     1      17.958  24.319   9.157  1.00  0.00     0.033 A 
HETATM   27  C24 UNL     1      17.441  24.055  10.426  1.00  0.00     0.036 A 
HETATM   28 CL1  UNL     1      16.659  22.527  10.744  1.00  0.00    -0.084 Cl
HETATM   29  C25 UNL     1      17.535  24.979  11.438  1.00  0.00     0.049 A 
HETATM   30  C26 UNL     1      18.155  26.181  11.173  1.00  0.00     0.058 A 
HETATM   31 CL2  UNL     1      18.280  27.371  12.466  1.00  0.00    -0.082 Cl
HETATM   32  C27 UNL     1      18.672  26.442   9.899  1.00  0.00     0.062 A 
HETATM   33 CL3  UNL     1      19.445  27.976   9.616  1.00  0.00    -0.082 Cl
ENDBRANCH  24  25
ENDBRANCH  21  24
ENDBRANCH  12  13
ENDBRANCH  11  12
ENDBRANCH  10  11
ENDBRANCH   9  10
ENDBRANCH   4   9
BRANCH   1  34
HETATM   34  N3  UNL     1      20.036  31.436  14.216  1.00  0.00    -0.306 N 
HETATM   35  C9  UNL     1      19.827  31.747  15.560  1.00  0.00     0.282 C 
HETATM   36  O2  UNL     1      19.367  30.909  16.375  1.00  0.00    -0.265 OA
ATOM     37  H3  UNL     1      19.675  32.114  13.544  1.00  0.00     0.170 HD
BRANCH  35  38
HETATM   38  C8  UNL     1      20.136  33.077  16.089  1.00  0.00     0.163 A 
HETATM   39  C7  UNL     1      21.215  33.872  15.849  1.00  0.00     0.143 A 
HETATM   40  N2  UNL     1      21.052  35.004  16.565  1.00  0.00    -0.294 N 
HETATM   41  C6  UNL     1      21.577  36.181  16.878  1.00  0.00     0.117 A 
HETATM   42  C28 UNL     1      19.882  34.875  17.224  1.00  0.00     0.237 A 
HETATM   43  C5  UNL     1      20.712  36.792  17.750  1.00  0.00     0.112 A 
HETATM   44  N1  UNL     1      19.639  35.964  17.969  1.00  0.00    -0.319 N 
HETATM   45  O4  UNL     1      19.370  33.727  16.920  1.00  0.00    -0.272 OA
BRANCH  44  46
HETATM   46  C4  UNL     1      18.535  36.303  18.835  1.00  0.00     0.158 C 
BRANCH  46  47
HETATM   47  C3  UNL     1      17.204  35.916  18.250  1.00  0.00     0.187 C 
BRANCH  47  48
HETATM   48  O1  UNL     1      16.641  34.783  18.762  1.00  0.00    -0.390 OA
BRANCH  48  49
HETATM   49  C2  UNL     1      15.561  34.302  18.026  1.00  0.00     0.163 C 
HETATM   50  C1  UNL     1      14.633  35.469  17.667  1.00  0.00     0.033 C 
ENDBRANCH  48  49
ENDBRANCH  47  48
ENDBRANCH  46  47
ENDBRANCH  44  46
ENDBRANCH  35  38
ENDBRANCH   1  34
TORSDOF 13
ENDMDL
MODEL 5
REMARK VINA RESULT: -8.543081453      3.695     10.046
REMARK  13 active torsions:
REMARK  status: ('A' for Active; 'I' for Inactive)
REMARK    1  A    between atoms: C2_2  and  O1_3 
REMARK    2  A    between atoms: O1_3  and  C3_4 
REMARK    3  A    between atoms: C3_4  and  C4_5 
REMARK    4  A    between atoms: C4_5  and  N1_6 
REMARK    5  A    between atoms: C8_11  and  C9_12 
REMARK       I    between atoms: C9_12  and  N3_14 
REMARK    6  A    between atoms: N3_14  and  C10_16 
REMARK    7  A    between atoms: C13_19  and  C14_20 
REMARK    8  A    between atoms: C14_20  and  C15_21 
REMARK    9  A    between atoms: C15_21  and  C16_22 
REMARK   10  A    between atoms: C16_22  and  C17_23 
REMARK   11  A    between atoms: C17_23  and  C18_24 
REMARK       I    between atoms: N6_30  and  C20_32 
REMARK   12  A    between atoms: C20_32  and  C21_34 
REMARK   13  A    between atoms: C21_34  and  C22_35 
ROOT
HETATM    1  C10 UNL     1      19.812  30.503  16.008  1.00  0.00     0.122 A 
HETATM    2  C11 UNL     1      18.825  30.986  15.145  1.00  0.00     0.052 A 
HETATM    3  C12 UNL     1      18.227  30.083  14.303  1.00  0.00     0.030 A 
HETATM    4  C13 UNL     1      18.615  28.761  14.340  1.00  0.00     0.026 A 
HETATM    5  N7  UNL     1      19.567  28.323  15.179  1.00  0.00    -0.303 N 
ATOM      6  H7  UNL     1      19.844  27.341  15.194  1.00  0.00     0.186 HD
HETATM    7  N8  UNL     1      20.135  29.201  15.983  1.00  0.00    -0.285 N 
ATOM      8  H8  UNL     1      20.859  28.872  16.622  1.00  0.00     0.188 HD
ENDROOT
BRANCH   4   9
HETATM    9  C14 UNL     1      17.910  27.845  13.380  1.00  0.00     0.058 C 
BRANCH   9  10
HETATM   10  C15 UNL     1      17.066  28.610  12.389  1.00  0.00     0.006 C 
BRANCH  10  11
HETATM   11  C16 UNL     1      17.871  29.030  11.204  1.00  0.00     0.007 C 
BRANCH  11  12
HETATM   12  C17 UNL     1      17.055  29.092   9.935  1.00  0.00     0.066 C 
BRANCH  12  13
HETATM   13  C18 UNL     1      17.712  28.179   8.937  1.00  0.00     0.069 A 
HETATM   14  N4  UNL     1      17.872  28.351   7.634  1.00  0.00    -0.296 N 
HETATM   15  N5  UNL     1      18.452  27.491   6.925  1.00  0.00    -0.279 N 
ATOM     16  H4  UNL     1      17.517  29.201   7.195  1.00  0.00     0.187 HD
HETATM   17  C19 UNL     1      18.920  26.362   7.528  1.00  0.00     0.167 A 
ATOM     18  H5  UNL     1      18.571  27.635   5.922  1.00  0.00     0.189 HD
HETATM   19  N6  UNL     1      19.529  25.408   6.925  1.00  0.00    -0.306 N 
HETATM   20  S1  UNL     1      18.455  26.658   9.147  1.00  0.00    -0.038 SA
HETATM   21  C20 UNL     1      20.000  24.264   7.547  1.00  0.00     0.227 C 
ATOM     22  H6  UNL     1      19.677  25.498   5.919  1.00  0.00     0.171 HD
HETATM   23  O3  UNL     1      20.029  23.155   6.888  1.00  0.00    -0.273 OA
BRANCH  21  24
HETATM   24  C21 UNL     1      20.481  24.227   8.937  1.00  0.00     0.143 C 
BRANCH  24  25
HETATM   25  C22 UNL     1      21.905  24.700   8.946  1.00  0.00    -0.024 A 
HETATM   26  C23 UNL     1      22.728  24.497   7.863  1.00  0.00     0.033 A 
HETATM   27  C24 UNL     1      24.050  24.942   7.885  1.00  0.00     0.036 A 
HETATM   28 CL1  UNL     1      25.079  24.675   6.500  1.00  0.00    -0.084 Cl
HETATM   29  C25 UNL     1      24.564  25.591   8.981  1.00  0.00     0.049 A 
HETATM   30  C26 UNL     1      23.741  25.795  10.067  1.00  0.00     0.058 A 
HETATM   31 CL2  UNL     1      24.392  26.627  11.476  1.00  0.00    -0.082 Cl
HETATM   32  C27 UNL     1      22.415  25.348  10.042  1.00  0.00     0.062 A 
HETATM   33 CL3  UNL     1      21.417  25.630  11.440  1.00  0.00    -0.082 Cl
ENDBRANCH  24  25
ENDBRANCH  21  24
ENDBRANCH  12  13
ENDBRANCH  11  12
ENDBRANCH  10  11
ENDBRANCH   9  10
ENDBRANCH   4   9
BRANCH   1  34
HETATM   34  N3  UNL     1      20.348  31.363  16.779  1.00  0.00    -0.306 N 
HETATM   35  C9  UNL     1      21.271  32.362  16.464  1.00  0.00     0.282 C 
HETATM   36  O2  UNL     1      22.298  32.129  15.779  1.00  0.00    -0.265 OA
ATOM     37  H3  UNL     1      20.065  31.317  17.758  1.00  0.00     0.170 HD
BRANCH  35  38
HETATM   38  C8  UNL     1      21.084  33.741  16.921  1.00  0.00     0.163 A 
HETATM   39  C7  UNL     1      21.971  34.774  16.933  1.00  0.00     0.143 A 
HETATM   40  N2  UNL     1      21.336  35.847  17.447  1.00  0.00    -0.294 N 
HETATM   41  C6  UNL     1      21.451  37.126  17.779  1.00  0.00     0.117 A 
HETATM   42  C28 UNL     1      20.080  35.448  17.736  1.00  0.00     0.237 A 
HETATM   43  C5  UNL     1      20.239  37.524  18.286  1.00  0.00     0.112 A 
HETATM   44  N1  UNL     1      19.373  36.460  18.258  1.00  0.00    -0.319 N 
HETATM   45  O4  UNL     1      19.968  34.201  17.413  1.00  0.00    -0.272 OA
BRANCH  44  46
HETATM   46  C4  UNL     1      18.005  36.535  18.715  1.00  0.00     0.158 C 
BRANCH  46  47
HETATM   47  C3  UNL     1      17.086  35.636  17.934  1.00  0.00     0.187 C 
BRANCH  47  48
HETATM   48  O1  UNL     1      16.334  34.771  18.676  1.00  0.00    -0.390 OA
BRANCH  48  49
HETATM   49  C2  UNL     1      15.354  34.101  17.949  1.00  0.00     0.163 C 
HETATM   50  C1  UNL     1      16.002  33.409  16.744  1.00  0.00     0.033 C 
ENDBRANCH  48  49
ENDBRANCH  47  48
ENDBRANCH  46  47
ENDBRANCH  44  46
ENDBRANCH  35  38
ENDBRANCH   1  34
TORSDOF 13
ENDMDL
