MODEL 1
REMARK VINA RESULT: -8.589707000      0.000      0.000
REMARK  15 active torsions:
REMARK  status: ('A' for Active; 'I' for Inactive)
REMARK    1  A    between atoms: C7_9  and  C8_10 
REMARK    2  A    between atoms: C8_10  and  C9_11 
REMARK    3  A    between atoms: C9_11  and  C10_12 
REMARK    4  A    between atoms: C10_12  and  N2_13 
REMARK    5  A    between atoms: C10_12  and  C11_17 
REMARK    6  A    between atoms: C10_12  and  C17_27 
REMARK    7  A    between atoms: C11_17  and  C12_18 
REMARK    8  A    between atoms: C17_27  and  O1_28 
REMARK    9  A    between atoms: C17_27  and  N4_30 
REMARK   10  A    between atoms: N5_33  and  C20_34 
REMARK   11  A    between atoms: C20_34  and  C21_35 
REMARK   12  A    between atoms: C21_35  and  C22_36 
REMARK   13  A    between atoms: N6_41  and  C25_42 
REMARK   14  A    between atoms: C25_42  and  C26_43 
REMARK   15  A    between atoms: C26_43  and  O4_44 
ROOT
HETATM    1  C1  UNL     1      16.426  26.946  12.071  1.00  0.00     0.229 C 
HETATM    2  N1  UNL     1      16.888  26.839  11.010  1.00  0.00    -0.429 NA
HETATM    3  C2  UNL     1      17.441  26.734   9.755  1.00  0.00     0.113 A 
HETATM    4  C3  UNL     1      16.784  25.910   8.832  1.00  0.00     0.069 A 
HETATM    5  C4  UNL     1      17.270  25.752   7.557  1.00  0.00     0.037 A 
HETATM    6 CL1  UNL     1      16.484  24.733   6.372  1.00  0.00    -0.084 Cl
HETATM    7  C5  UNL     1      18.412  26.410   7.191  1.00  0.00     0.024 A 
HETATM    8  C6  UNL     1      19.062  27.233   8.124  1.00  0.00     0.012 A 
HETATM    9  C7  UNL     1      18.592  27.397   9.387  1.00  0.00    -0.017 A 
ENDROOT
BRANCH   9  10
HETATM   10  C8  UNL     1      19.249  28.252  10.388  1.00  0.00     0.045 C 
BRANCH  10  11
HETATM   11  C9  UNL     1      20.713  28.004  10.391  1.00  0.00     0.056 C 
BRANCH  11  12
HETATM   12  C10 UNL     1      21.236  27.084  11.464  1.00  0.00     0.206 C 
BRANCH  12  13
HETATM   13  N2  UNL     1      20.004  26.681  12.206  1.00  0.00    -0.059 N 
ATOM     14  H23 UNL     1      19.131  26.988  11.776  1.00  0.00     0.276 HD
ATOM     15  H22 UNL     1      19.794  25.684  12.168  1.00  0.00     0.276 HD
ATOM     16  H21 UNL     1      20.164  27.046  13.144  1.00  0.00     0.276 HD
ENDBRANCH  12  13
BRANCH  12  17
HETATM   17  C11 UNL     1      22.134  25.994  11.115  1.00  0.00     0.035 C 
BRANCH  17  18
HETATM   18  C12 UNL     1      22.303  25.452   9.780  1.00  0.00     0.009 A 
HETATM   19  C13 UNL     1      21.407  24.597   9.192  1.00  0.00     0.061 A 
HETATM   20 CL2  UNL     1      19.952  24.013   9.979  1.00  0.00    -0.082 Cl
HETATM   21  C14 UNL     1      21.652  24.091   7.910  1.00  0.00     0.112 A 
HETATM   22  N3  UNL     1      22.768  24.447   7.260  1.00  0.00    -0.372 N 
HETATM   23  C15 UNL     1      23.659  25.284   7.823  1.00  0.00     0.112 A 
ATOM     24  H3  UNL     1      22.945  24.079   6.326  1.00  0.00     0.164 HD
HETATM   25  C16 UNL     1      23.471  25.809   9.070  1.00  0.00     0.061 A 
HETATM   26 CL3  UNL     1      24.664  26.898   9.789  1.00  0.00    -0.082 Cl
ENDBRANCH  17  18
ENDBRANCH  12  17
BRANCH  12  27
HETATM   27  C17 UNL     1      21.860  28.041  12.462  1.00  0.00     0.154 C 
BRANCH  27  28
HETATM   28  O1  UNL     1      23.164  27.951  12.559  1.00  0.00    -0.347 OA
ATOM     29  H1  UNL     1      23.602  27.696  11.756  1.00  0.00     0.219 HD
ENDBRANCH  27  28
BRANCH  27  30
HETATM   30  N4  UNL     1      21.330  28.994  13.294  1.00  0.00    -0.360 N 
HETATM   31  C18 UNL     1      21.214  30.372  12.782  1.00  0.00     0.144 C 
HETATM   32  C19 UNL     1      20.012  31.070  13.312  1.00  0.00     0.137 C 
HETATM   33  N5  UNL     1      19.879  30.928  14.714  1.00  0.00    -0.400 N 
HETATM   34  C30 UNL     1      20.900  30.176  15.315  1.00  0.00     0.137 C 
HETATM   35  C31 UNL     1      20.867  28.780  14.633  1.00  0.00     0.144 C 
BRANCH  33  36
HETATM   36  C20 UNL     1      19.253  31.976  15.416  1.00  0.00     0.040 C 
HETATM   37  C23 UNL     1      18.157  31.541  16.360  1.00  0.00     0.061 C 
HETATM   38  C24 UNL     1      16.785  32.000  15.956  1.00  0.00     0.275 C 
HETATM   39  N6  UNL     1      16.708  33.445  15.976  1.00  0.00     0.090 N 
HETATM   40  C28 UNL     1      17.841  34.025  15.284  1.00  0.00     0.275 C 
HETATM   41  C29 UNL     1      18.610  32.956  14.472  1.00  0.00     0.061 C 
BRANCH  36  42
HETATM   42  C21 UNL     1      20.332  32.637  16.258  1.00  0.00     0.144 C 
BRANCH  42  43
HETATM   43  C22 UNL     1      21.126  33.646  15.583  1.00  0.00     0.174 C 
HETATM   44  O2  UNL     1      21.936  33.390  14.678  1.00  0.00    -0.648 OA
HETATM   45  O3  UNL     1      20.998  34.986  15.946  1.00  0.00    -0.648 OA
ENDBRANCH  42  43
ENDBRANCH  36  42
BRANCH  39  46
HETATM   46  C25 UNL     1      16.716  33.927  17.329  1.00  0.00     0.298 C 
BRANCH  46  47
HETATM   47  C26 UNL     1      15.355  34.186  17.900  1.00  0.00     0.197 C 
BRANCH  47  48
HETATM   48  O4  UNL     1      15.234  34.921  19.013  1.00  0.00    -0.394 OA
HETATM   49  C27 UNL     1      15.263  36.263  18.909  1.00  0.00     0.201 C 
ENDBRANCH  47  48
ENDBRANCH  46  47
ENDBRANCH  39  46
ENDBRANCH  33  36
ENDBRANCH  27  30
ENDBRANCH  12  27
ENDBRANCH  11  12
ENDBRANCH  10  11
ENDBRANCH   9  10
TORSDOF 15
ENDMDL
MODEL 2
REMARK VINA RESULT: -8.436928235      2.431      3.391
REMARK  15 active torsions:
REMARK  status: ('A' for Active; 'I' for Inactive)
REMARK    1  A    between atoms: C7_9  and  C8_10 
REMARK    2  A    between atoms: C8_10  and  C9_11 
REMARK    3  A    between atoms: C9_11  and  C10_12 
REMARK    4  A    between atoms: C10_12  and  N2_13 
REMARK    5  A    between atoms: C10_12  and  C11_17 
REMARK    6  A    between atoms: C10_12  and  C17_27 
REMARK    7  A    between atoms: C11_17  and  C12_18 
REMARK    8  A    between atoms: C17_27  and  O1_28 
REMARK    9  A    between atoms: C17_27  and  N4_30 
REMARK   10  A    between atoms: N5_33  and  C20_34 
REMARK   11  A    between atoms: C20_34  and  C21_35 
REMARK   12  A    between atoms: C21_35  and  C22_36 
REMARK   13  A    between atoms: N6_41  and  C25_42 
REMARK   14  A    between atoms: C25_42  and  C26_43 
REMARK   15  A    between atoms: C26_43  and  O4_44 
ROOT
HETATM    1  C1  UNL     1      16.237  23.340   5.957  1.00  0.00     0.229 C 
HETATM    2  N1  UNL     1      16.621  24.435   5.882  1.00  0.00    -0.429 NA
HETATM    3  C2  UNL     1      17.073  25.733   5.816  1.00  0.00     0.113 A 
HETATM    4  C3  UNL     1      16.725  26.474   4.680  1.00  0.00     0.069 A 
HETATM    5  C4  UNL     1      17.134  27.778   4.536  1.00  0.00     0.037 A 
HETATM    6 CL1  UNL     1      16.725  28.742   3.135  1.00  0.00    -0.084 Cl
HETATM    7  C5  UNL     1      17.892  28.352   5.519  1.00  0.00     0.024 A 
HETATM    8  C6  UNL     1      18.234  27.600   6.654  1.00  0.00     0.012 A 
HETATM    9  C7  UNL     1      17.836  26.310   6.807  1.00  0.00    -0.017 A 
ENDROOT
BRANCH   9  10
HETATM   10  C8  UNL     1      18.177  25.495   7.982  1.00  0.00     0.045 C 
BRANCH  10  11
HETATM   11  C9  UNL     1      18.094  26.316   9.217  1.00  0.00     0.056 C 
BRANCH  11  12
HETATM   12  C10 UNL     1      19.257  26.215  10.171  1.00  0.00     0.206 C 
BRANCH  12  13
HETATM   13  N2  UNL     1      19.411  24.743  10.373  1.00  0.00    -0.059 N 
ATOM     14  H23 UNL     1      18.774  24.170   9.819  1.00  0.00     0.276 HD
ATOM     15  H22 UNL     1      20.269  24.350   9.986  1.00  0.00     0.276 HD
ATOM     16  H21 UNL     1      19.311  24.632  11.381  1.00  0.00     0.276 HD
ENDBRANCH  12  13
BRANCH  12  17
HETATM   17  C11 UNL     1      20.491  26.935   9.895  1.00  0.00     0.035 C 
BRANCH  17  18
HETATM   18  C12 UNL     1      21.825  26.427  10.156  1.00  0.00     0.009 A 
HETATM   19  C13 UNL     1      22.522  26.690  11.306  1.00  0.00     0.061 A 
HETATM   20 CL2  UNL     1      21.917  27.699  12.608  1.00  0.00    -0.082 Cl
HETATM   21  C14 UNL     1      23.818  26.189  11.476  1.00  0.00     0.112 A 
HETATM   22  N3  UNL     1      24.374  25.452  10.505  1.00  0.00    -0.372 N 
HETATM   23  C15 UNL     1      23.705  25.186   9.369  1.00  0.00     0.112 A 
ATOM     24  H3  UNL     1      25.319  25.087  10.629  1.00  0.00     0.164 HD
HETATM   25  C16 UNL     1      22.438  25.647   9.150  1.00  0.00     0.061 A 
HETATM   26 CL3  UNL     1      21.586  25.292   7.643  1.00  0.00    -0.082 Cl
ENDBRANCH  17  18
ENDBRANCH  12  17
BRANCH  12  27
HETATM   27  C17 UNL     1      18.646  26.615  11.500  1.00  0.00     0.154 C 
BRANCH  27  28
HETATM   28  O1  UNL     1      18.225  25.609  12.229  1.00  0.00    -0.347 OA
ATOM     29  H1  UNL     1      17.306  25.652  12.465  1.00  0.00     0.219 HD
ENDBRANCH  27  28
BRANCH  27  30
HETATM   30  N4  UNL     1      18.440  27.829  12.103  1.00  0.00    -0.360 N 
HETATM   31  C18 UNL     1      18.406  27.872  13.576  1.00  0.00     0.144 C 
HETATM   32  C19 UNL     1      18.977  29.136  14.116  1.00  0.00     0.137 C 
HETATM   33  N5  UNL     1      18.467  30.282  13.460  1.00  0.00    -0.400 N 
HETATM   34  C30 UNL     1      17.531  30.000  12.454  1.00  0.00     0.137 C 
HETATM   35  C31 UNL     1      18.257  29.083  11.433  1.00  0.00     0.144 C 
BRANCH  33  36
HETATM   36  C20 UNL     1      18.379  31.472  14.208  1.00  0.00     0.040 C 
HETATM   37  C23 UNL     1      19.072  31.433  15.549  1.00  0.00     0.061 C 
HETATM   38  C24 UNL     1      18.138  31.513  16.723  1.00  0.00     0.275 C 
HETATM   39  N6  UNL     1      17.441  32.782  16.729  1.00  0.00     0.090 N 
HETATM   40  C28 UNL     1      16.898  33.070  15.418  1.00  0.00     0.275 C 
HETATM   41  C29 UNL     1      16.945  31.824  14.503  1.00  0.00     0.061 C 
BRANCH  36  42
HETATM   42  C21 UNL     1      19.060  32.552  13.383  1.00  0.00     0.144 C 
BRANCH  42  43
HETATM   43  C22 UNL     1      20.347  32.195  12.819  1.00  0.00     0.174 C 
HETATM   44  O2  UNL     1      21.405  32.198  13.469  1.00  0.00    -0.648 OA
HETATM   45  O3  UNL     1      20.439  31.823  11.479  1.00  0.00    -0.648 OA
ENDBRANCH  42  43
ENDBRANCH  36  42
BRANCH  39  46
HETATM   46  C25 UNL     1      18.340  33.843  17.085  1.00  0.00     0.298 C 
BRANCH  46  47
HETATM   47  C26 UNL     1      17.771  34.835  18.053  1.00  0.00     0.197 C 
BRANCH  47  48
HETATM   48  O4  UNL     1      16.571  34.609  18.604  1.00  0.00    -0.394 OA
HETATM   49  C27 UNL     1      15.662  35.603  18.604  1.00  0.00     0.201 C 
ENDBRANCH  47  48
ENDBRANCH  46  47
ENDBRANCH  39  46
ENDBRANCH  33  36
ENDBRANCH  27  30
ENDBRANCH  12  27
ENDBRANCH  11  12
ENDBRANCH  10  11
ENDBRANCH   9  10
TORSDOF 15
ENDMDL
MODEL 3
REMARK VINA RESULT: -8.382282933      0.925      1.864
REMARK  15 active torsions:
REMARK  status: ('A' for Active; 'I' for Inactive)
REMARK    1  A    between atoms: C7_9  and  C8_10 
REMARK    2  A    between atoms: C8_10  and  C9_11 
REMARK    3  A    between atoms: C9_11  and  C10_12 
REMARK    4  A    between atoms: C10_12  and  N2_13 
REMARK    5  A    between atoms: C10_12  and  C11_17 
REMARK    6  A    between atoms: C10_12  and  C17_27 
REMARK    7  A    between atoms: C11_17  and  C12_18 
REMARK    8  A    between atoms: C17_27  and  O1_28 
REMARK    9  A    between atoms: C17_27  and  N4_30 
REMARK   10  A    between atoms: N5_33  and  C20_34 
REMARK   11  A    between atoms: C20_34  and  C21_35 
REMARK   12  A    between atoms: C21_35  and  C22_36 
REMARK   13  A    between atoms: N6_41  and  C25_42 
REMARK   14  A    between atoms: C25_42  and  C26_43 
REMARK   15  A    between atoms: C26_43  and  O4_44 
ROOT
HETATM    1  C1  UNL     1      16.359  26.965  11.941  1.00  0.00     0.229 C 
HETATM    2  N1  UNL     1      16.862  26.840  10.899  1.00  0.00    -0.429 NA
HETATM    3  C2  UNL     1      17.461  26.715   9.668  1.00  0.00     0.113 A 
HETATM    4  C3  UNL     1      16.857  25.851   8.746  1.00  0.00     0.069 A 
HETATM    5  C4  UNL     1      17.392  25.670   7.493  1.00  0.00     0.037 A 
HETATM    6 CL1  UNL     1      16.673  24.601   6.310  1.00  0.00    -0.084 Cl
HETATM    7  C5  UNL     1      18.530  26.346   7.149  1.00  0.00     0.024 A 
HETATM    8  C6  UNL     1      19.127  27.210   8.081  1.00  0.00     0.012 A 
HETATM    9  C7  UNL     1      18.609  27.396   9.322  1.00  0.00    -0.017 A 
ENDROOT
BRANCH   9  10
HETATM   10  C8  UNL     1      19.209  28.293  10.321  1.00  0.00     0.045 C 
BRANCH  10  11
HETATM   11  C9  UNL     1      20.652  27.985  10.485  1.00  0.00     0.056 C 
BRANCH  11  12
HETATM   12  C10 UNL     1      21.044  27.250  11.741  1.00  0.00     0.206 C 
BRANCH  12  13
HETATM   13  N2  UNL     1      19.742  26.730  12.258  1.00  0.00    -0.059 N 
ATOM     14  H23 UNL     1      19.173  26.248  11.562  1.00  0.00     0.276 HD
ATOM     15  H22 UNL     1      19.826  25.937  12.894  1.00  0.00     0.276 HD
ATOM     16  H21 UNL     1      19.304  27.555  12.665  1.00  0.00     0.276 HD
ENDBRANCH  12  13
BRANCH  12  17
HETATM   17  C11 UNL     1      22.130  26.282  11.711  1.00  0.00     0.035 C 
BRANCH  17  18
HETATM   18  C12 UNL     1      22.901  25.935  10.532  1.00  0.00     0.009 A 
HETATM   19  C13 UNL     1      24.145  26.446  10.265  1.00  0.00     0.061 A 
HETATM   20 CL2  UNL     1      24.964  27.610  11.290  1.00  0.00    -0.082 Cl
HETATM   21  C14 UNL     1      24.817  26.088   9.091  1.00  0.00     0.112 A 
HETATM   22  N3  UNL     1      24.237  25.242   8.228  1.00  0.00    -0.372 N 
HETATM   23  C15 UNL     1      23.016  24.733   8.473  1.00  0.00     0.112 A 
ATOM     24  H3  UNL     1      24.728  24.982   7.373  1.00  0.00     0.164 HD
HETATM   25  C16 UNL     1      22.315  25.047   9.603  1.00  0.00     0.061 A 
HETATM   26 CL3  UNL     1      20.707  24.372   9.894  1.00  0.00    -0.082 Cl
ENDBRANCH  17  18
ENDBRANCH  12  17
BRANCH  12  27
HETATM   27  C17 UNL     1      21.305  28.372  12.727  1.00  0.00     0.154 C 
BRANCH  27  28
HETATM   28  O1  UNL     1      22.545  28.451  13.145  1.00  0.00    -0.347 OA
ATOM     29  H1  UNL     1      22.720  27.981  13.952  1.00  0.00     0.219 HD
ENDBRANCH  27  28
BRANCH  27  30
HETATM   30  N4  UNL     1      20.497  29.334  13.279  1.00  0.00    -0.360 N 
HETATM   31  C18 UNL     1      19.541  28.918  14.321  1.00  0.00     0.144 C 
HETATM   32  C19 UNL     1      19.341  29.971  15.354  1.00  0.00     0.137 C 
HETATM   33  N5  UNL     1      19.108  31.246  14.787  1.00  0.00    -0.400 N 
HETATM   34  C30 UNL     1      19.102  31.260  13.384  1.00  0.00     0.137 C 
HETATM   35  C31 UNL     1      20.493  30.726  12.941  1.00  0.00     0.144 C 
BRANCH  33  36
HETATM   36  C20 UNL     1      18.303  32.143  15.515  1.00  0.00     0.040 C 
HETATM   37  C23 UNL     1      17.067  31.532  16.130  1.00  0.00     0.061 C 
HETATM   38  C24 UNL     1      15.779  32.031  15.540  1.00  0.00     0.275 C 
HETATM   39  N6  UNL     1      15.625  33.449  15.787  1.00  0.00     0.090 N 
HETATM   40  C28 UNL     1      16.840  34.160  15.446  1.00  0.00     0.275 C 
HETATM   41  C29 UNL     1      17.808  33.263  14.639  1.00  0.00     0.061 C 
BRANCH  36  42
HETATM   42  C21 UNL     1      19.160  32.665  16.656  1.00  0.00     0.144 C 
BRANCH  42  43
HETATM   43  C22 UNL     1      20.433  33.246  16.273  1.00  0.00     0.174 C 
HETATM   44  O2  UNL     1      20.546  34.371  15.760  1.00  0.00    -0.648 OA
HETATM   45  O3  UNL     1      21.612  32.532  16.478  1.00  0.00    -0.648 OA
ENDBRANCH  42  43
ENDBRANCH  36  42
BRANCH  39  46
HETATM   46  C25 UNL     1      15.342  33.685  17.175  1.00  0.00     0.298 C 
BRANCH  46  47
HETATM   47  C26 UNL     1      16.301  34.616  17.851  1.00  0.00     0.197 C 
BRANCH  47  48
HETATM   48  O4  UNL     1      15.948  35.212  18.998  1.00  0.00    -0.394 OA
HETATM   49  C27 UNL     1      15.361  36.423  18.943  1.00  0.00     0.201 C 
ENDBRANCH  47  48
ENDBRANCH  46  47
ENDBRANCH  39  46
ENDBRANCH  33  36
ENDBRANCH  27  30
ENDBRANCH  12  27
ENDBRANCH  11  12
ENDBRANCH  10  11
ENDBRANCH   9  10
TORSDOF 15
ENDMDL
MODEL 4
REMARK VINA RESULT: -8.297282836      2.355      3.296
REMARK  15 active torsions:
REMARK  status: ('A' for Active; 'I' for Inactive)
REMARK    1  A    between atoms: C7_9  and  C8_10 
REMARK    2  A    between atoms: C8_10  and  C9_11 
REMARK    3  A    between atoms: C9_11  and  C10_12 
REMARK    4  A    between atoms: C10_12  and  N2_13 
REMARK    5  A    between atoms: C10_12  and  C11_17 
REMARK    6  A    between atoms: C10_12  and  C17_27 
REMARK    7  A    between atoms: C11_17  and  C12_18 
REMARK    8  A    between atoms: C17_27  and  O1_28 
REMARK    9  A    between atoms: C17_27  and  N4_30 
REMARK   10  A    between atoms: N5_33  and  C20_34 
REMARK   11  A    between atoms: C20_34  and  C21_35 
REMARK   12  A    between atoms: C21_35  and  C22_36 
REMARK   13  A    between atoms: N6_41  and  C25_42 
REMARK   14  A    between atoms: C25_42  and  C26_43 
REMARK   15  A    between atoms: C26_43  and  O4_44 
ROOT
HETATM    1  C1  UNL     1      18.270  28.026   5.786  1.00  0.00     0.229 C 
HETATM    2  N1  UNL     1      17.907  26.985   6.156  1.00  0.00    -0.429 NA
HETATM    3  C2  UNL     1      17.498  25.750   6.601  1.00  0.00     0.113 A 
HETATM    4  C3  UNL     1      16.540  25.077   5.833  1.00  0.00     0.069 A 
HETATM    5  C4  UNL     1      16.078  23.838   6.207  1.00  0.00     0.037 A 
HETATM    6 CL1  UNL     1      14.882  22.961   5.279  1.00  0.00    -0.084 Cl
HETATM    7  C5  UNL     1      16.566  23.260   7.346  1.00  0.00     0.024 A 
HETATM    8  C6  UNL     1      17.527  23.943   8.109  1.00  0.00     0.012 A 
HETATM    9  C7  UNL     1      17.990  25.168   7.750  1.00  0.00    -0.017 A 
ENDROOT
BRANCH   9  10
HETATM   10  C8  UNL     1      18.995  25.910   8.526  1.00  0.00     0.045 C 
BRANCH  10  11
HETATM   11  C9  UNL     1      19.354  25.154   9.753  1.00  0.00     0.056 C 
BRANCH  11  12
HETATM   12  C10 UNL     1      19.989  25.946  10.867  1.00  0.00     0.206 C 
BRANCH  12  13
HETATM   13  N2  UNL     1      20.414  24.896  11.840  1.00  0.00    -0.059 N 
ATOM     14  H23 UNL     1      20.610  23.986  11.423  1.00  0.00     0.276 HD
ATOM     15  H22 UNL     1      21.344  25.034  12.233  1.00  0.00     0.276 HD
ATOM     16  H21 UNL     1      19.660  24.892  12.527  1.00  0.00     0.276 HD
ENDBRANCH  12  13
BRANCH  12  17
HETATM   17  C11 UNL     1      20.995  26.953  10.565  1.00  0.00     0.035 C 
BRANCH  17  18
HETATM   18  C12 UNL     1      22.422  26.790  10.771  1.00  0.00     0.009 A 
HETATM   19  C13 UNL     1      23.220  26.028   9.960  1.00  0.00     0.061 A 
HETATM   20 CL2  UNL     1      22.629  25.118   8.581  1.00  0.00    -0.082 Cl
HETATM   21  C14 UNL     1      24.586  25.893  10.238  1.00  0.00     0.112 A 
HETATM   22  N3  UNL     1      25.107  26.514  11.305  1.00  0.00    -0.372 N 
HETATM   23  C15 UNL     1      24.338  27.265  12.113  1.00  0.00     0.112 A 
ATOM     24  H3  UNL     1      26.102  26.416  11.507  1.00  0.00     0.164 HD
HETATM   25  C16 UNL     1      23.001  27.432  11.888  1.00  0.00     0.061 A 
HETATM   26 CL3  UNL     1      22.011  28.417  12.973  1.00  0.00    -0.082 Cl
ENDBRANCH  17  18
ENDBRANCH  12  17
BRANCH  12  27
HETATM   27  C17 UNL     1      18.794  26.532  11.595  1.00  0.00     0.154 C 
BRANCH  27  28
HETATM   28  O1  UNL     1      17.772  25.717  11.705  1.00  0.00    -0.347 OA
ATOM     29  H1  UNL     1      17.140  25.967  12.368  1.00  0.00     0.219 HD
ENDBRANCH  27  28
BRANCH  27  30
HETATM   30  N4  UNL     1      18.562  27.755  12.170  1.00  0.00    -0.360 N 
HETATM   31  C18 UNL     1      18.457  27.820  13.639  1.00  0.00     0.144 C 
HETATM   32  C19 UNL     1      19.003  29.091  14.187  1.00  0.00     0.137 C 
HETATM   33  N5  UNL     1      18.526  30.228  13.491  1.00  0.00    -0.400 N 
HETATM   34  C30 UNL     1      17.638  29.931  12.446  1.00  0.00     0.137 C 
HETATM   35  C31 UNL     1      18.412  28.999  11.473  1.00  0.00     0.144 C 
BRANCH  33  36
HETATM   36  C20 UNL     1      18.403  31.429  14.216  1.00  0.00     0.040 C 
HETATM   37  C23 UNL     1      19.070  31.424  15.570  1.00  0.00     0.061 C 
HETATM   38  C24 UNL     1      18.112  31.508  16.725  1.00  0.00     0.275 C 
HETATM   39  N6  UNL     1      17.394  32.765  16.695  1.00  0.00     0.090 N 
HETATM   40  C28 UNL     1      16.872  33.022  15.368  1.00  0.00     0.275 C 
HETATM   41  C29 UNL     1      16.959  31.761  14.476  1.00  0.00     0.061 C 
BRANCH  36  42
HETATM   42  C21 UNL     1      19.083  32.506  13.386  1.00  0.00     0.144 C 
BRANCH  42  43
HETATM   43  C22 UNL     1      20.372  32.149  12.826  1.00  0.00     0.174 C 
HETATM   44  O2  UNL     1      21.427  32.147  13.480  1.00  0.00    -0.648 OA
HETATM   45  O3  UNL     1      20.468  31.783  11.484  1.00  0.00    -0.648 OA
ENDBRANCH  42  43
ENDBRANCH  36  42
BRANCH  39  46
HETATM   46  C25 UNL     1      18.268  33.847  17.050  1.00  0.00     0.298 C 
BRANCH  46  47
HETATM   47  C26 UNL     1      17.747  34.727  18.145  1.00  0.00     0.197 C 
BRANCH  47  48
HETATM   48  O4  UNL     1      16.499  34.552  18.598  1.00  0.00    -0.394 OA
HETATM   49  C27 UNL     1      15.653  35.600  18.585  1.00  0.00     0.201 C 
ENDBRANCH  47  48
ENDBRANCH  46  47
ENDBRANCH  39  46
ENDBRANCH  33  36
ENDBRANCH  27  30
ENDBRANCH  12  27
ENDBRANCH  11  12
ENDBRANCH  10  11
ENDBRANCH   9  10
TORSDOF 15
ENDMDL
MODEL 5
REMARK VINA RESULT: -8.287883629      2.201      3.200
REMARK  15 active torsions:
REMARK  status: ('A' for Active; 'I' for Inactive)
REMARK    1  A    between atoms: C7_9  and  C8_10 
REMARK    2  A    between atoms: C8_10  and  C9_11 
REMARK    3  A    between atoms: C9_11  and  C10_12 
REMARK    4  A    between atoms: C10_12  and  N2_13 
REMARK    5  A    between atoms: C10_12  and  C11_17 
REMARK    6  A    between atoms: C10_12  and  C17_27 
REMARK    7  A    between atoms: C11_17  and  C12_18 
REMARK    8  A    between atoms: C17_27  and  O1_28 
REMARK    9  A    between atoms: C17_27  and  N4_30 
REMARK   10  A    between atoms: N5_33  and  C20_34 
REMARK   11  A    between atoms: C20_34  and  C21_35 
REMARK   12  A    between atoms: C21_35  and  C22_36 
REMARK   13  A    between atoms: N6_41  and  C25_42 
REMARK   14  A    between atoms: C25_42  and  C26_43 
REMARK   15  A    between atoms: C26_43  and  O4_44 
ROOT
HETATM    1  C1  UNL     1      17.968  28.831   4.868  1.00  0.00     0.229 C 
HETATM    2  N1  UNL     1      17.655  27.773   5.236  1.00  0.00    -0.429 NA
HETATM    3  C2  UNL     1      17.301  26.522   5.684  1.00  0.00     0.113 A 
HETATM    4  C3  UNL     1      16.739  25.643   4.751  1.00  0.00     0.069 A 
HETATM    5  C4  UNL     1      16.359  24.374   5.117  1.00  0.00     0.037 A 
HETATM    6 CL1  UNL     1      15.652  23.242   3.986  1.00  0.00    -0.084 Cl
HETATM    7  C5  UNL     1      16.537  23.971   6.411  1.00  0.00     0.024 A 
HETATM    8  C6  UNL     1      17.103  24.861   7.339  1.00  0.00     0.012 A 
HETATM    9  C7  UNL     1      17.481  26.118   6.989  1.00  0.00    -0.017 A 
ENDROOT
BRANCH   9  10
HETATM   10  C8  UNL     1      18.076  27.073   7.935  1.00  0.00     0.045 C 
BRANCH  10  11
HETATM   11  C9  UNL     1      17.852  26.619   9.331  1.00  0.00     0.056 C 
BRANCH  11  12
HETATM   12  C10 UNL     1      19.085  26.315  10.144  1.00  0.00     0.206 C 
BRANCH  12  13
HETATM   13  N2  UNL     1      19.085  24.823  10.229  1.00  0.00    -0.059 N 
ATOM     14  H23 UNL     1      18.284  24.427  10.721  1.00  0.00     0.276 HD
ATOM     15  H22 UNL     1      18.909  24.349   9.343  1.00  0.00     0.276 HD
ATOM     16  H21 UNL     1      19.988  24.611  10.651  1.00  0.00     0.276 HD
ENDBRANCH  12  13
BRANCH  12  17
HETATM   17  C11 UNL     1      20.361  26.915   9.784  1.00  0.00     0.035 C 
BRANCH  17  18
HETATM   18  C12 UNL     1      21.651  26.262   9.911  1.00  0.00     0.009 A 
HETATM   19  C13 UNL     1      22.465  26.402  11.004  1.00  0.00     0.061 A 
HETATM   20 CL2  UNL     1      22.081  27.413  12.386  1.00  0.00    -0.082 Cl
HETATM   21  C14 UNL     1      23.711  25.764  11.043  1.00  0.00     0.112 A 
HETATM   22  N3  UNL     1      24.103  25.015  10.003  1.00  0.00    -0.372 N 
HETATM   23  C15 UNL     1      23.317  24.867   8.922  1.00  0.00     0.112 A 
ATOM     24  H3  UNL     1      25.010  24.550  10.033  1.00  0.00     0.164 HD
HETATM   25  C16 UNL     1      22.092  25.466   8.830  1.00  0.00     0.061 A 
HETATM   26 CL3  UNL     1      21.085  25.263   7.392  1.00  0.00    -0.082 Cl
ENDBRANCH  17  18
ENDBRANCH  12  17
BRANCH  12  27
HETATM   27  C17 UNL     1      18.662  26.673  11.555  1.00  0.00     0.154 C 
BRANCH  27  28
HETATM   28  O1  UNL     1      18.286  25.651  12.286  1.00  0.00    -0.347 OA
ATOM     29  H1  UNL     1      18.756  25.560  13.107  1.00  0.00     0.219 HD
ENDBRANCH  27  28
BRANCH  27  30
HETATM   30  N4  UNL     1      18.592  27.864  12.232  1.00  0.00    -0.360 N 
HETATM   31  C18 UNL     1      18.145  27.834  13.637  1.00  0.00     0.144 C 
HETATM   32  C19 UNL     1      18.823  28.867  14.466  1.00  0.00     0.137 C 
HETATM   33  N5  UNL     1      18.818  30.141  13.851  1.00  0.00    -0.400 N 
HETATM   34  C30 UNL     1      18.173  30.177  12.606  1.00  0.00     0.137 C 
HETATM   35  C31 UNL     1      18.919  29.155  11.704  1.00  0.00     0.144 C 
BRANCH  33  36
HETATM   36  C20 UNL     1      18.808  31.269  14.695  1.00  0.00     0.040 C 
HETATM   37  C23 UNL     1      17.959  31.127  15.935  1.00  0.00     0.061 C 
HETATM   38  C24 UNL     1      16.759  32.031  15.963  1.00  0.00     0.275 C 
HETATM   39  N6  UNL     1      17.173  33.418  15.982  1.00  0.00     0.090 N 
HETATM   40  C28 UNL     1      18.177  33.664  14.967  1.00  0.00     0.275 C 
HETATM   41  C29 UNL     1      18.276  32.480  13.977  1.00  0.00     0.061 C 
BRANCH  36  42
HETATM   42  C21 UNL     1      20.241  31.477  15.155  1.00  0.00     0.144 C 
BRANCH  42  43
HETATM   43  C22 UNL     1      21.243  31.492  14.107  1.00  0.00     0.174 C 
HETATM   44  O2  UNL     1      21.370  32.421  13.292  1.00  0.00    -0.648 OA
HETATM   45  O3  UNL     1      22.128  30.423  13.977  1.00  0.00    -0.648 OA
ENDBRANCH  42  43
ENDBRANCH  36  42
BRANCH  39  46
HETATM   46  C25 UNL     1      17.736  33.754  17.260  1.00  0.00     0.298 C 
BRANCH  46  47
HETATM   47  C26 UNL     1      16.943  34.758  18.039  1.00  0.00     0.197 C 
BRANCH  47  48
HETATM   48  O4  UNL     1      15.762  34.405  18.564  1.00  0.00    -0.394 OA
HETATM   49  C27 UNL     1      14.635  34.783  17.931  1.00  0.00     0.201 C 
ENDBRANCH  47  48
ENDBRANCH  46  47
ENDBRANCH  39  46
ENDBRANCH  33  36
ENDBRANCH  27  30
ENDBRANCH  12  27
ENDBRANCH  11  12
ENDBRANCH  10  11
ENDBRANCH   9  10
TORSDOF 15
ENDMDL
