MODEL 1
REMARK VINA RESULT: -5.767360980      0.000      0.000
REMARK  4 active torsions:
REMARK  status: ('A' for Active; 'I' for Inactive)
REMARK    1  A    between atoms: N1_1  and  C1_5 
REMARK    2  A    between atoms: C1_5  and  C2_6 
REMARK    3  A    between atoms: C1_5  and  C9_16 
REMARK       I    between atoms: C2_6  and  N2_8 
REMARK    4  A    between atoms: N2_8  and  C3_10 
ROOT
HETATM    1  C1  UNL     1      12.202   9.587   9.074  1.00  0.00     0.280 C 
ENDROOT
BRANCH   1   2
HETATM    2  N1  UNL     1      13.190  10.064   9.992  1.00  0.00    -0.066 N 
ATOM      3  H13 UNL     1      14.064   9.549   9.888  1.00  0.00     0.275 HD
ATOM      4  H12 UNL     1      13.513  10.994   9.729  1.00  0.00     0.275 HD
ATOM      5  H11 UNL     1      12.872  10.048  10.962  1.00  0.00     0.275 HD
ENDBRANCH   1   2
BRANCH   1   6
HETATM    6  C2  UNL     1      11.246   8.642   9.693  1.00  0.00     0.249 C 
HETATM    7  O1  UNL     1      11.430   7.398   9.663  1.00  0.00    -0.271 OA
HETATM    8  N2  UNL     1      10.088   9.111  10.342  1.00  0.00    -0.355 N 
ATOM      9  H2  UNL     1       9.928  10.118  10.372  1.00  0.00     0.162 HD
BRANCH   8  10
HETATM   10  C3  UNL     1       9.109   8.245  10.970  1.00  0.00     0.084 C 
HETATM   11  C4  UNL     1       7.973   8.068  10.029  1.00  0.00     0.025 C 
HETATM   12  C5  UNL     1       6.693   7.604  10.624  1.00  0.00     0.002 C 
HETATM   13  C6  UNL     1       6.745   7.492  12.139  1.00  0.00     0.000 C 
HETATM   14  C7  UNL     1       7.293   8.846  12.599  1.00  0.00     0.002 C 
HETATM   15  C8  UNL     1       8.771   8.822  12.305  1.00  0.00     0.025 C 
ENDBRANCH   8  10
ENDBRANCH   1   6
BRANCH   1  16
HETATM   16  C9  UNL     1      11.464  10.731   8.372  1.00  0.00     0.052 C 
HETATM   17  C10 UNL     1      11.428  11.963   9.229  1.00  0.00     0.239 C 
HETATM   18  N3  UNL     1      10.311  12.811   8.934  1.00  0.00    -0.075 N 
HETATM   19  C11 UNL     1       9.929  12.804   7.555  1.00  0.00     0.233 C 
ATOM     20  H32 UNL     1       9.515  12.577   9.528  1.00  0.00     0.277 HD
ATOM     21  H31 UNL     1      10.489  13.763   9.253  1.00  0.00     0.277 HD
HETATM   22  C12 UNL     1      11.024  13.254   6.640  1.00  0.00     0.037 C 
HETATM   23  C13 UNL     1      12.268  12.445   6.720  1.00  0.00    -0.038 A 
HETATM   24  C14 UNL     1      13.223  12.671   5.537  1.00  0.00     0.010 A 
HETATM   25  C15 UNL     1      13.574  13.107   6.915  1.00  0.00     0.010 A 
HETATM   26  C16 UNL     1      12.051  10.993   7.026  1.00  0.00     0.018 C 
ENDBRANCH   1  16
TORSDOF 4
ENDMDL
MODEL 2
REMARK VINA RESULT: -5.651184986      8.480     10.552
REMARK  4 active torsions:
REMARK  status: ('A' for Active; 'I' for Inactive)
REMARK    1  A    between atoms: N1_1  and  C1_5 
REMARK    2  A    between atoms: C1_5  and  C2_6 
REMARK    3  A    between atoms: C1_5  and  C9_16 
REMARK       I    between atoms: C2_6  and  N2_8 
REMARK    4  A    between atoms: N2_8  and  C3_10 
ROOT
HETATM    1  C1  UNL     1       5.457   5.976  14.328  1.00  0.00     0.280 C 
ENDROOT
BRANCH   1   2
HETATM    2  N1  UNL     1       5.800   6.081  12.943  1.00  0.00    -0.066 N 
ATOM      3  H13 UNL     1       6.725   5.691  12.766  1.00  0.00     0.275 HD
ATOM      4  H12 UNL     1       5.240   5.443  12.378  1.00  0.00     0.275 HD
ATOM      5  H11 UNL     1       5.734   7.036  12.588  1.00  0.00     0.275 HD
ENDBRANCH   1   2
BRANCH   1   6
HETATM    6  C2  UNL     1       6.620   6.151  15.226  1.00  0.00     0.249 C 
HETATM    7  O1  UNL     1       6.775   7.192  15.913  1.00  0.00    -0.271 OA
HETATM    8  N2  UNL     1       7.600   5.146  15.339  1.00  0.00    -0.355 N 
ATOM      9  H2  UNL     1       7.484   4.297  14.786  1.00  0.00     0.162 HD
BRANCH   8  10
HETATM   10  C3  UNL     1       8.764   5.249  16.198  1.00  0.00     0.084 C 
HETATM   11  C4  UNL     1       9.977   5.207  15.342  1.00  0.00     0.025 C 
HETATM   12  C5  UNL     1      11.250   4.851  16.023  1.00  0.00     0.002 C 
HETATM   13  C6  UNL     1      11.061   4.481  17.485  1.00  0.00     0.000 C 
HETATM   14  C7  UNL     1       9.946   3.432  17.468  1.00  0.00     0.002 C 
HETATM   15  C8  UNL     1       8.661   4.188  17.244  1.00  0.00     0.025 C 
ENDBRANCH   8  10
ENDBRANCH   1   6
BRANCH   1  16
HETATM   16  C9  UNL     1       4.318   6.924  14.715  1.00  0.00     0.052 C 
HETATM   17  C10 UNL     1       3.601   7.439  13.502  1.00  0.00     0.239 C 
HETATM   18  N3  UNL     1       2.977   8.710  13.724  1.00  0.00    -0.075 N 
HETATM   19  C11 UNL     1       2.489   8.889  15.057  1.00  0.00     0.233 C 
ATOM     20  H32 UNL     1       3.608   9.470  13.467  1.00  0.00     0.277 HD
ATOM     21  H31 UNL     1       2.233   8.869  13.045  1.00  0.00     0.277 HD
HETATM   22  C12 UNL     1       1.468   7.870  15.450  1.00  0.00     0.037 C 
HETATM   23  C13 UNL     1       1.938   6.462  15.376  1.00  0.00    -0.038 A 
HETATM   24  C14 UNL     1       1.032   5.472  16.127  1.00  0.00     0.010 A 
HETATM   25  C15 UNL     1       1.148   5.451  14.643  1.00  0.00     0.010 A 
HETATM   26  C16 UNL     1       3.393   6.272  15.688  1.00  0.00     0.018 C 
ENDBRANCH   1  16
TORSDOF 4
ENDMDL
MODEL 3
REMARK VINA RESULT: -5.632279862      5.288      9.847
REMARK  4 active torsions:
REMARK  status: ('A' for Active; 'I' for Inactive)
REMARK    1  A    between atoms: N1_1  and  C1_5 
REMARK    2  A    between atoms: C1_5  and  C2_6 
REMARK    3  A    between atoms: C1_5  and  C9_16 
REMARK       I    between atoms: C2_6  and  N2_8 
REMARK    4  A    between atoms: N2_8  and  C3_10 
ROOT
HETATM    1  C1  UNL     1       4.923   8.917  15.869  1.00  0.00     0.280 C 
ENDROOT
BRANCH   1   2
HETATM    2  N1  UNL     1       5.385   8.992  17.221  1.00  0.00    -0.066 N 
ATOM      3  H13 UNL     1       5.571   8.062  17.595  1.00  0.00     0.275 HD
ATOM      4  H12 UNL     1       6.327   9.380  17.263  1.00  0.00     0.275 HD
ATOM      5  H11 UNL     1       4.750   9.509  17.830  1.00  0.00     0.275 HD
ENDBRANCH   1   2
BRANCH   1   6
HETATM    6  C2  UNL     1       5.907   8.292  14.957  1.00  0.00     0.249 C 
HETATM    7  O1  UNL     1       6.782   7.491  15.375  1.00  0.00    -0.271 OA
HETATM    8  N2  UNL     1       5.895   8.579  13.578  1.00  0.00    -0.355 N 
ATOM      9  H2  UNL     1       5.190   9.228  13.229  1.00  0.00     0.162 HD
BRANCH   8  10
HETATM   10  C3  UNL     1       6.827   8.004  12.628  1.00  0.00     0.084 C 
HETATM   11  C4  UNL     1       7.902   8.998  12.373  1.00  0.00     0.025 C 
HETATM   12  C5  UNL     1       8.691   8.807  11.128  1.00  0.00     0.002 C 
HETATM   13  C6  UNL     1       8.178   7.666  10.265  1.00  0.00     0.000 C 
HETATM   14  C7  UNL     1       6.680   7.947  10.120  1.00  0.00     0.002 C 
HETATM   15  C8  UNL     1       6.051   7.556  11.434  1.00  0.00     0.025 C 
ENDBRANCH   8  10
ENDBRANCH   1   6
BRANCH   1  16
HETATM   16  C9  UNL     1       3.560   8.226  15.761  1.00  0.00     0.052 C 
HETATM   17  C10 UNL     1       2.765   8.765  14.608  1.00  0.00     0.239 C 
HETATM   18  N3  UNL     1       1.351   8.627  14.798  1.00  0.00    -0.075 N 
HETATM   19  C11 UNL     1       0.977   7.454  15.527  1.00  0.00     0.233 C 
ATOM     20  H32 UNL     1       0.964   9.463  15.238  1.00  0.00     0.277 HD
ATOM     21  H31 UNL     1       0.863   8.665  13.903  1.00  0.00     0.277 HD
HETATM   22  C12 UNL     1       1.416   6.187  14.865  1.00  0.00     0.037 C 
HETATM   23  C13 UNL     1       2.882   6.078  14.646  1.00  0.00    -0.038 A 
HETATM   24  C14 UNL     1       3.350   4.650  14.324  1.00  0.00     0.010 A 
HETATM   25  C15 UNL     1       3.411   5.738  13.310  1.00  0.00     0.010 A 
HETATM   26  C16 UNL     1       3.721   6.744  15.696  1.00  0.00     0.018 C 
ENDBRANCH   1  16
TORSDOF 4
ENDMDL
MODEL 4
REMARK VINA RESULT: -5.614364713      8.319     10.401
REMARK  4 active torsions:
REMARK  status: ('A' for Active; 'I' for Inactive)
REMARK    1  A    between atoms: N1_1  and  C1_5 
REMARK    2  A    between atoms: C1_5  and  C2_6 
REMARK    3  A    between atoms: C1_5  and  C9_16 
REMARK       I    between atoms: C2_6  and  N2_8 
REMARK    4  A    between atoms: N2_8  and  C3_10 
ROOT
HETATM    1  C1  UNL     1       5.390   5.971  13.755  1.00  0.00     0.280 C 
ENDROOT
BRANCH   1   2
HETATM    2  N1  UNL     1       5.421   6.095  12.330  1.00  0.00    -0.066 N 
ATOM      3  H13 UNL     1       4.646   5.589  11.903  1.00  0.00     0.275 HD
ATOM      4  H12 UNL     1       5.179   7.043  12.041  1.00  0.00     0.275 HD
ATOM      5  H11 UNL     1       6.312   5.807  11.925  1.00  0.00     0.275 HD
ENDBRANCH   1   2
BRANCH   1   6
HETATM    6  C2  UNL     1       6.722   6.141  14.379  1.00  0.00     0.249 C 
HETATM    7  O1  UNL     1       7.562   6.964  13.932  1.00  0.00    -0.271 OA
HETATM    8  N2  UNL     1       7.094   5.378  15.501  1.00  0.00    -0.355 N 
ATOM      9  H2  UNL     1       6.421   4.707  15.871  1.00  0.00     0.162 HD
BRANCH   8  10
HETATM   10  C3  UNL     1       8.380   5.492  16.163  1.00  0.00     0.084 C 
HETATM   11  C4  UNL     1       8.799   4.135  16.599  1.00  0.00     0.025 C 
HETATM   12  C5  UNL     1       9.835   4.078  17.664  1.00  0.00     0.002 C 
HETATM   13  C6  UNL     1      10.212   5.449  18.203  1.00  0.00     0.000 C 
HETATM   14  C7  UNL     1       8.871   6.100  18.551  1.00  0.00     0.002 C 
HETATM   15  C8  UNL     1       8.255   6.519  17.239  1.00  0.00     0.025 C 
ENDBRANCH   8  10
ENDBRANCH   1   6
BRANCH   1  16
HETATM   16  C9  UNL     1       4.362   6.908  14.395  1.00  0.00     0.052 C 
HETATM   17  C10 UNL     1       3.511   7.575  13.355  1.00  0.00     0.239 C 
HETATM   18  N3  UNL     1       2.985   8.835  13.792  1.00  0.00    -0.075 N 
HETATM   19  C11 UNL     1       2.694   8.884  15.192  1.00  0.00     0.233 C 
ATOM     20  H32 UNL     1       3.611   9.597  13.529  1.00  0.00     0.277 HD
ATOM     21  H31 UNL     1       2.163   9.091  13.245  1.00  0.00     0.277 HD
HETATM   22  C12 UNL     1       1.688   7.862  15.619  1.00  0.00     0.037 C 
HETATM   23  C13 UNL     1       2.076   6.456  15.335  1.00  0.00    -0.038 A 
HETATM   24  C14 UNL     1       1.235   5.421  16.100  1.00  0.00     0.010 A 
HETATM   25  C15 UNL     1       1.146   5.558  14.621  1.00  0.00     0.010 A 
HETATM   26  C16 UNL     1       3.549   6.186  15.416  1.00  0.00     0.018 C 
ENDBRANCH   1  16
TORSDOF 4
ENDMDL
MODEL 5
REMARK VINA RESULT: -5.603229501      8.405     11.166
REMARK  4 active torsions:
REMARK  status: ('A' for Active; 'I' for Inactive)
REMARK    1  A    between atoms: N1_1  and  C1_5 
REMARK    2  A    between atoms: C1_5  and  C2_6 
REMARK    3  A    between atoms: C1_5  and  C9_16 
REMARK       I    between atoms: C2_6  and  N2_8 
REMARK    4  A    between atoms: N2_8  and  C3_10 
ROOT
HETATM    1  C1  UNL     1       2.550   6.155  16.027  1.00  0.00     0.280 C 
ENDROOT
BRANCH   1   2
HETATM    2  N1  UNL     1       2.522   7.396  16.739  1.00  0.00    -0.066 N 
ATOM      3  H13 UNL     1       1.803   8.014  16.365  1.00  0.00     0.275 HD
ATOM      4  H12 UNL     1       2.156   7.267  17.682  1.00  0.00     0.275 HD
ATOM      5  H11 UNL     1       3.429   7.863  16.760  1.00  0.00     0.275 HD
ENDBRANCH   1   2
BRANCH   1   6
HETATM    6  C2  UNL     1       1.199   5.619  15.747  1.00  0.00     0.249 C 
HETATM    7  O1  UNL     1       0.369   5.401  16.666  1.00  0.00    -0.271 OA
HETATM    8  N2  UNL     1       0.798   5.333  14.428  1.00  0.00    -0.355 N 
ATOM      9  H2  UNL     1       1.463   5.505  13.675  1.00  0.00     0.162 HD
BRANCH   8  10
HETATM   10  C3  UNL     1      -0.509   4.808  14.080  1.00  0.00     0.084 C 
HETATM   11  C4  UNL     1      -0.318   3.679  13.133  1.00  0.00     0.025 C 
HETATM   12  C5  UNL     1      -1.501   3.298  12.317  1.00  0.00     0.002 C 
HETATM   13  C6  UNL     1      -2.691   4.220  12.526  1.00  0.00     0.000 C 
HETATM   14  C7  UNL     1      -2.118   5.627  12.333  1.00  0.00     0.002 C 
HETATM   15  C8  UNL     1      -1.346   5.942  13.590  1.00  0.00     0.025 C 
ENDBRANCH   8  10
ENDBRANCH   1   6
BRANCH   1  16
HETATM   16  C9  UNL     1       3.382   6.243  14.745  1.00  0.00     0.052 C 
HETATM   17  C10 UNL     1       3.532   7.664  14.288  1.00  0.00     0.239 C 
HETATM   18  N3  UNL     1       3.747   7.774  12.875  1.00  0.00    -0.075 N 
HETATM   19  C11 UNL     1       4.497   6.689  12.320  1.00  0.00     0.233 C 
ATOM     20  H32 UNL     1       2.859   7.886  12.384  1.00  0.00     0.277 HD
ATOM     21  H31 UNL     1       4.183   8.667  12.646  1.00  0.00     0.277 HD
HETATM   22  C12 UNL     1       5.860   6.549  12.921  1.00  0.00     0.037 C 
HETATM   23  C13 UNL     1       5.868   6.336  14.392  1.00  0.00    -0.038 A 
HETATM   24  C14 UNL     1       7.214   5.825  14.930  1.00  0.00     0.010 A 
HETATM   25  C15 UNL     1       6.708   7.184  15.261  1.00  0.00     0.010 A 
HETATM   26  C16 UNL     1       4.697   5.560  14.917  1.00  0.00     0.018 C 
ENDBRANCH   1  16
TORSDOF 4
ENDMDL
