MODEL 1
REMARK VINA RESULT: -6.597360014      0.000      0.000
REMARK  3 active torsions:
REMARK  status: ('A' for Active; 'I' for Inactive)
REMARK    1  A    between atoms: C1_2  and  C2_4 
REMARK    2  A    between atoms: C2_4  and  N2_5 
REMARK    3  A    between atoms: N2_5  and  C3_6 
ROOT
HETATM    1  N2  UNL     1      -3.826  -4.903  17.157  1.00  0.00    -0.035 N 
HETATM    2  C7  UNL     1      -2.696  -5.621  16.572  1.00  0.00     0.272 A 
HETATM    3  C8  UNL     1      -2.548  -4.634  17.697  1.00  0.00     0.272 A 
ENDROOT
BRANCH   1   4
HETATM    4  C2  UNL     1      -4.521  -4.043  16.246  1.00  0.00     0.273 C 
BRANCH   4   5
HETATM    5  C1  UNL     1      -3.867  -2.885  15.708  1.00  0.00     0.278 C 
HETATM    6  N1  UNL     1      -4.154  -1.614  16.293  1.00  0.00    -0.057 NA
HETATM    7  O1  UNL     1      -3.066  -2.885  14.772  1.00  0.00    -0.270 OA
ENDBRANCH   4   5
ENDBRANCH   1   4
BRANCH   1   8
HETATM    8  C3  UNL     1      -4.781  -5.729  17.885  1.00  0.00     0.196 C 
HETATM    9  C4  UNL     1      -4.415  -7.193  17.679  1.00  0.00     0.034 C 
HETATM   10  C5  UNL     1      -5.916  -7.471  17.712  1.00  0.00     0.004 C 
HETATM   11  C6  UNL     1      -6.098  -5.999  17.302  1.00  0.00     0.034 C 
ENDBRANCH   1   8
TORSDOF 3
ENDMDL
MODEL 2
REMARK VINA RESULT: -6.002877103      1.037      1.037
REMARK  3 active torsions:
REMARK  status: ('A' for Active; 'I' for Inactive)
REMARK    1  A    between atoms: C1_2  and  C2_4 
REMARK    2  A    between atoms: C2_4  and  N2_5 
REMARK    3  A    between atoms: N2_5  and  C3_6 
ROOT
HETATM    1  N2  UNL     1      -4.021  -5.079  17.288  1.00  0.00    -0.035 N 
HETATM    2  C7  UNL     1      -2.861  -5.795  16.761  1.00  0.00     0.272 A 
HETATM    3  C8  UNL     1      -2.771  -4.804  17.889  1.00  0.00     0.272 A 
ENDROOT
BRANCH   1   4
HETATM    4  C2  UNL     1      -4.674  -4.224  16.341  1.00  0.00     0.273 C 
BRANCH   4   5
HETATM    5  C1  UNL     1      -3.929  -3.206  15.658  1.00  0.00     0.278 C 
HETATM    6  N1  UNL     1      -3.054  -3.602  14.602  1.00  0.00    -0.057 NA
HETATM    7  O1  UNL     1      -3.976  -1.999  15.902  1.00  0.00    -0.270 OA
ENDBRANCH   4   5
ENDBRANCH   1   4
BRANCH   1   8
HETATM    8  C3  UNL     1      -5.007  -5.907  17.971  1.00  0.00     0.196 C 
HETATM    9  C4  UNL     1      -4.745  -7.365  17.622  1.00  0.00     0.034 C 
HETATM   10  C5  UNL     1      -6.260  -7.550  17.681  1.00  0.00     0.004 C 
HETATM   11  C6  UNL     1      -6.356  -6.038  17.411  1.00  0.00     0.034 C 
ENDBRANCH   1   8
TORSDOF 3
ENDMDL
MODEL 3
REMARK VINA RESULT: -5.999942178      0.967      1.309
REMARK  3 active torsions:
REMARK  status: ('A' for Active; 'I' for Inactive)
REMARK    1  A    between atoms: C1_2  and  C2_4 
REMARK    2  A    between atoms: C2_4  and  N2_5 
REMARK    3  A    between atoms: N2_5  and  C3_6 
ROOT
HETATM    1  N2  UNL     1      -3.041  -4.764  17.141  1.00  0.00    -0.035 N 
HETATM    2  C7  UNL     1      -1.656  -4.912  16.700  1.00  0.00     0.272 A 
HETATM    3  C8  UNL     1      -2.047  -4.772  18.146  1.00  0.00     0.272 A 
ENDROOT
BRANCH   1   4
HETATM    4  C2  UNL     1      -3.698  -3.585  16.656  1.00  0.00     0.273 C 
BRANCH   4   5
HETATM    5  C1  UNL     1      -3.378  -3.066  15.357  1.00  0.00     0.278 C 
HETATM    6  N1  UNL     1      -3.257  -1.652  15.206  1.00  0.00    -0.057 NA
HETATM    7  O1  UNL     1      -3.195  -3.740  14.342  1.00  0.00    -0.270 OA
ENDBRANCH   4   5
ENDBRANCH   1   4
BRANCH   1   8
HETATM    8  C3  UNL     1      -3.892  -5.927  16.928  1.00  0.00     0.196 C 
HETATM    9  C4  UNL     1      -5.337  -5.531  17.197  1.00  0.00     0.034 C 
HETATM   10  C5  UNL     1      -5.521  -6.945  17.743  1.00  0.00     0.004 C 
HETATM   11  C6  UNL     1      -4.000  -6.948  17.976  1.00  0.00     0.034 C 
ENDBRANCH   1   8
TORSDOF 3
ENDMDL
MODEL 4
REMARK VINA RESULT: -5.975837947      1.121      1.121
REMARK  3 active torsions:
REMARK  status: ('A' for Active; 'I' for Inactive)
REMARK    1  A    between atoms: C1_2  and  C2_4 
REMARK    2  A    between atoms: C2_4  and  N2_5 
REMARK    3  A    between atoms: N2_5  and  C3_6 
ROOT
HETATM    1  N2  UNL     1      -3.462  -4.567  16.814  1.00  0.00    -0.035 N 
HETATM    2  C7  UNL     1      -2.434  -5.568  16.537  1.00  0.00     0.272 A 
HETATM    3  C8  UNL     1      -2.221  -4.408  17.472  1.00  0.00     0.272 A 
ENDROOT
BRANCH   1   4
HETATM    4  C2  UNL     1      -3.880  -3.810  15.671  1.00  0.00     0.273 C 
BRANCH   4   5
HETATM    5  C1  UNL     1      -3.860  -2.376  15.712  1.00  0.00     0.278 C 
HETATM    6  N1  UNL     1      -2.795  -1.696  15.046  1.00  0.00    -0.057 NA
HETATM    7  O1  UNL     1      -4.692  -1.664  16.277  1.00  0.00    -0.270 OA
ENDBRANCH   4   5
ENDBRANCH   1   4
BRANCH   1   8
HETATM    8  C3  UNL     1      -4.629  -5.056  17.538  1.00  0.00     0.196 C 
HETATM    9  C4  UNL     1      -4.345  -6.472  18.021  1.00  0.00     0.034 C 
HETATM   10  C5  UNL     1      -5.827  -6.747  17.776  1.00  0.00     0.004 C 
HETATM   11  C6  UNL     1      -5.784  -5.565  16.792  1.00  0.00     0.034 C 
ENDBRANCH   1   8
TORSDOF 3
ENDMDL
MODEL 5
REMARK VINA RESULT: -5.833820025      1.590      2.538
REMARK  3 active torsions:
REMARK  status: ('A' for Active; 'I' for Inactive)
REMARK    1  A    between atoms: C1_2  and  C2_4 
REMARK    2  A    between atoms: C2_4  and  N2_5 
REMARK    3  A    between atoms: N2_5  and  C3_6 
ROOT
HETATM    1  N2  UNL     1      -3.686  -4.797  16.595  1.00  0.00    -0.035 N 
HETATM    2  C7  UNL     1      -3.540  -3.348  16.708  1.00  0.00     0.272 A 
HETATM    3  C8  UNL     1      -4.127  -4.022  15.498  1.00  0.00     0.272 A 
ENDROOT
BRANCH   1   4
HETATM    4  C2  UNL     1      -2.452  -5.525  16.632  1.00  0.00     0.273 C 
BRANCH   4   5
HETATM    5  C1  UNL     1      -1.256  -4.889  17.106  1.00  0.00     0.278 C 
HETATM    6  N1  UNL     1      -1.063  -4.779  18.517  1.00  0.00    -0.057 NA
HETATM    7  O1  UNL     1      -0.364  -4.422  16.397  1.00  0.00    -0.270 OA
ENDBRANCH   4   5
ENDBRANCH   1   4
BRANCH   1   8
HETATM    8  C3  UNL     1      -4.645  -5.401  17.511  1.00  0.00     0.196 C 
HETATM    9  C4  UNL     1      -4.317  -6.880  17.655  1.00  0.00     0.034 C 
HETATM   10  C5  UNL     1      -5.823  -7.103  17.774  1.00  0.00     0.004 C 
HETATM   11  C6  UNL     1      -5.980  -5.766  17.027  1.00  0.00     0.034 C 
ENDBRANCH   1   8
TORSDOF 3
ENDMDL
