MODEL 1
REMARK VINA RESULT: -5.328107503      0.000      0.000
REMARK  10 active torsions:
REMARK  status: ('A' for Active; 'I' for Inactive)
REMARK    1  A    between atoms: C2_2  and  N4_21 
REMARK    2  A    between atoms: C3_3  and  C4_4 
REMARK    3  A    between atoms: C4_4  and  C5_5 
REMARK    4  A    between atoms: C5_5  and  C7_8 
REMARK    5  A    between atoms: C7_8  and  N2_9 
REMARK    6  A    between atoms: C7_8  and  C8_13 
REMARK    7  A    between atoms: C8_13  and  O1_14 
REMARK    8  A    between atoms: C8_13  and  N3_16 
REMARK    9  A    between atoms: N3_16  and  S1_18 
REMARK   10  A    between atoms: N4_21  and  N5_23 
ROOT
HETATM    1  C5  UNL     1      -0.712  16.910  10.015  1.00  0.00     0.131 C 
HETATM    2  C6  UNL     1      -0.921  17.400   8.676  1.00  0.00     0.066 C 
HETATM    3  N1  UNL     1      -1.104  17.819   7.602  1.00  0.00    -0.197 NA
ENDROOT
BRANCH   1   4
HETATM    4  C4  UNL     1      -1.787  17.489  10.927  1.00  0.00     0.050 C 
BRANCH   4   5
HETATM    5  C3  UNL     1      -1.210  17.846  12.265  1.00  0.00     0.001 C 
HETATM    6  C2  UNL     1      -1.917  17.717  13.371  1.00  0.00     0.017 C 
HETATM    7  C1  UNL     1      -3.310  17.216  13.362  1.00  0.00     0.069 C 
BRANCH   6   8
HETATM    8  N4  UNL     1      -1.325  18.069  14.608  1.00  0.00    -0.312 N 
ATOM      9  H4  UNL     1      -0.309  18.036  14.689  1.00  0.00     0.186 HD
BRANCH   8  10
HETATM   10  N5  UNL     1      -2.059  18.452  15.706  1.00  0.00    -0.345 N 
ATOM     11  H52 UNL     1      -2.480  19.381  15.691  1.00  0.00     0.176 HD
ATOM     12  H51 UNL     1      -2.196  17.850  16.519  1.00  0.00     0.176 HD
ENDBRANCH   8  10
ENDBRANCH   6   8
ENDBRANCH   4   5
ENDBRANCH   1   4
BRANCH   1  13
HETATM   13  C7  UNL     1      -0.677  15.392  10.130  1.00  0.00     0.249 C 
BRANCH  13  14
HETATM   14  N2  UNL     1      -0.549  14.868   8.765  1.00  0.00    -0.070 N 
ATOM     15  H23 UNL     1      -1.286  15.193   8.139  1.00  0.00     0.275 HD
ATOM     16  H22 UNL     1       0.238  15.266   8.254  1.00  0.00     0.275 HD
ATOM     17  H21 UNL     1      -0.507  13.852   8.843  1.00  0.00     0.275 HD
ENDBRANCH  13  14
BRANCH  13  18
HETATM   18  C8  UNL     1      -1.936  14.922  10.773  1.00  0.00     0.257 C 
BRANCH  18  19
HETATM   19  O1  UNL     1      -1.671  13.831  11.582  1.00  0.00    -0.374 OA
ATOM     20  H1  UNL     1      -2.183  13.084  11.293  1.00  0.00     0.212 HD
ENDBRANCH  18  19
BRANCH  18  21
HETATM   21  N3  UNL     1      -2.950  14.541   9.848  1.00  0.00    -0.312 N 
ATOM     22  H3  UNL     1      -2.735  14.630   8.856  1.00  0.00     0.172 HD
BRANCH  21  23
HETATM   23  S1  UNL     1      -4.201  14.060  10.184  1.00  0.00     0.107 S 
HETATM   24  C9  UNL     1      -5.438  14.550   9.278  1.00  0.00     0.152 C 
HETATM   25  O2  UNL     1      -4.254  12.599  10.636  1.00  0.00    -0.236 OA
ENDBRANCH  21  23
ENDBRANCH  18  21
ENDBRANCH  13  18
ENDBRANCH   1  13
TORSDOF 10
ENDMDL
MODEL 2
REMARK VINA RESULT: -5.253398901      3.415      5.617
REMARK  10 active torsions:
REMARK  status: ('A' for Active; 'I' for Inactive)
REMARK    1  A    between atoms: C2_2  and  N4_21 
REMARK    2  A    between atoms: C3_3  and  C4_4 
REMARK    3  A    between atoms: C4_4  and  C5_5 
REMARK    4  A    between atoms: C5_5  and  C7_8 
REMARK    5  A    between atoms: C7_8  and  N2_9 
REMARK    6  A    between atoms: C7_8  and  C8_13 
REMARK    7  A    between atoms: C8_13  and  O1_14 
REMARK    8  A    between atoms: C8_13  and  N3_16 
REMARK    9  A    between atoms: N3_16  and  S1_18 
REMARK   10  A    between atoms: N4_21  and  N5_23 
ROOT
HETATM    1  C5  UNL     1      -2.667  18.906  13.260  1.00  0.00     0.131 C 
HETATM    2  C6  UNL     1      -2.307  20.008  12.402  1.00  0.00     0.066 C 
HETATM    3  N1  UNL     1      -2.000  20.882  11.692  1.00  0.00    -0.197 NA
ENDROOT
BRANCH   1   4
HETATM    4  C4  UNL     1      -1.577  17.843  13.183  1.00  0.00     0.050 C 
BRANCH   4   5
HETATM    5  C3  UNL     1      -1.958  16.765  12.211  1.00  0.00     0.001 C 
HETATM    6  C2  UNL     1      -1.248  16.544  11.122  1.00  0.00     0.017 C 
HETATM    7  C1  UNL     1      -0.042  17.336  10.793  1.00  0.00     0.069 C 
BRANCH   6   8
HETATM    8  N4  UNL     1      -1.651  15.513  10.238  1.00  0.00    -0.312 N 
ATOM      9  H4  UNL     1      -2.611  15.173  10.292  1.00  0.00     0.186 HD
BRANCH   8  10
HETATM   10  N5  UNL     1      -0.806  14.951   9.310  1.00  0.00    -0.345 N 
ATOM     11  H52 UNL     1      -0.007  14.422   9.661  1.00  0.00     0.176 HD
ATOM     12  H51 UNL     1      -0.947  15.043   8.304  1.00  0.00     0.176 HD
ENDBRANCH   8  10
ENDBRANCH   6   8
ENDBRANCH   4   5
ENDBRANCH   1   4
BRANCH   1  13
HETATM   13  C7  UNL     1      -2.928  19.297  14.708  1.00  0.00     0.249 C 
BRANCH  13  14
HETATM   14  N2  UNL     1      -2.145  18.378  15.542  1.00  0.00    -0.070 N 
ATOM     15  H23 UNL     1      -1.562  17.740  15.000  1.00  0.00     0.275 HD
ATOM     16  H22 UNL     1      -1.390  18.840  16.050  1.00  0.00     0.275 HD
ATOM     17  H21 UNL     1      -2.806  17.899  16.153  1.00  0.00     0.275 HD
ENDBRANCH  13  14
BRANCH  13  18
HETATM   18  C8  UNL     1      -4.385  19.174  14.991  1.00  0.00     0.257 C 
BRANCH  18  19
HETATM   19  O1  UNL     1      -4.706  19.895  16.128  1.00  0.00    -0.374 OA
ATOM     20  H1  UNL     1      -4.811  19.305  16.865  1.00  0.00     0.212 HD
ENDBRANCH  18  19
BRANCH  18  21
HETATM   21  N3  UNL     1      -4.824  17.834  15.190  1.00  0.00    -0.312 N 
ATOM     22  H3  UNL     1      -4.185  17.198  15.667  1.00  0.00     0.172 HD
BRANCH  21  23
HETATM   23  S1  UNL     1      -6.044  17.322  14.790  1.00  0.00     0.107 S 
HETATM   24  C9  UNL     1      -7.127  18.374  14.230  1.00  0.00     0.152 C 
HETATM   25  O2  UNL     1      -5.997  15.977  14.064  1.00  0.00    -0.236 OA
ENDBRANCH  21  23
ENDBRANCH  18  21
ENDBRANCH  13  18
ENDBRANCH   1  13
TORSDOF 10
ENDMDL
MODEL 3
REMARK VINA RESULT: -5.231990908      3.785      5.806
REMARK  10 active torsions:
REMARK  status: ('A' for Active; 'I' for Inactive)
REMARK    1  A    between atoms: C2_2  and  N4_21 
REMARK    2  A    between atoms: C3_3  and  C4_4 
REMARK    3  A    between atoms: C4_4  and  C5_5 
REMARK    4  A    between atoms: C5_5  and  C7_8 
REMARK    5  A    between atoms: C7_8  and  N2_9 
REMARK    6  A    between atoms: C7_8  and  C8_13 
REMARK    7  A    between atoms: C8_13  and  O1_14 
REMARK    8  A    between atoms: C8_13  and  N3_16 
REMARK    9  A    between atoms: N3_16  and  S1_18 
REMARK   10  A    between atoms: N4_21  and  N5_23 
ROOT
HETATM    1  C5  UNL     1      -2.536  19.023  13.195  1.00  0.00     0.131 C 
HETATM    2  C6  UNL     1      -2.230  20.130  12.323  1.00  0.00     0.066 C 
HETATM    3  N1  UNL     1      -1.966  21.008  11.601  1.00  0.00    -0.197 NA
ENDROOT
BRANCH   1   4
HETATM    4  C4  UNL     1      -1.420  17.991  13.094  1.00  0.00     0.050 C 
BRANCH   4   5
HETATM    5  C3  UNL     1      -1.825  16.858  12.199  1.00  0.00     0.001 C 
HETATM    6  C2  UNL     1      -1.162  16.591  11.090  1.00  0.00     0.017 C 
HETATM    7  C1  UNL     1       0.013  17.385  10.665  1.00  0.00     0.069 C 
BRANCH   6   8
HETATM    8  N4  UNL     1      -1.587  15.510  10.280  1.00  0.00    -0.312 N 
ATOM      9  H4  UNL     1      -2.526  15.138  10.418  1.00  0.00     0.186 HD
BRANCH   8  10
HETATM   10  N5  UNL     1      -0.789  14.940   9.316  1.00  0.00    -0.345 N 
ATOM     11  H52 UNL     1       0.081  15.419   9.081  1.00  0.00     0.176 HD
ATOM     12  H51 UNL     1      -1.031  14.072   8.838  1.00  0.00     0.176 HD
ENDBRANCH   8  10
ENDBRANCH   6   8
ENDBRANCH   4   5
ENDBRANCH   1   4
BRANCH   1  13
HETATM   13  C7  UNL     1      -2.771  19.415  14.647  1.00  0.00     0.249 C 
BRANCH  13  14
HETATM   14  N2  UNL     1      -2.081  18.416  15.472  1.00  0.00    -0.070 N 
ATOM     15  H23 UNL     1      -1.635  17.680  14.923  1.00  0.00     0.275 HD
ATOM     16  H22 UNL     1      -1.236  18.776  15.915  1.00  0.00     0.275 HD
ATOM     17  H21 UNL     1      -2.766  18.061  16.139  1.00  0.00     0.275 HD
ENDBRANCH  13  14
BRANCH  13  18
HETATM   18  C8  UNL     1      -4.236  19.421  14.920  1.00  0.00     0.257 C 
BRANCH  18  19
HETATM   19  O1  UNL     1      -4.468  19.792  16.232  1.00  0.00    -0.374 OA
ATOM     20  H1  UNL     1      -3.747  19.507  16.781  1.00  0.00     0.212 HD
ENDBRANCH  18  19
BRANCH  18  21
HETATM   21  N3  UNL     1      -4.869  18.163  14.707  1.00  0.00    -0.312 N 
ATOM     22  H3  UNL     1      -4.272  17.336  14.689  1.00  0.00     0.172 HD
BRANCH  21  23
HETATM   23  S1  UNL     1      -6.224  17.968  14.522  1.00  0.00     0.107 S 
HETATM   24  C9  UNL     1      -6.811  16.518  14.901  1.00  0.00     0.152 C 
HETATM   25  O2  UNL     1      -7.122  19.155  14.877  1.00  0.00    -0.236 OA
ENDBRANCH  21  23
ENDBRANCH  18  21
ENDBRANCH  13  18
ENDBRANCH   1  13
TORSDOF 10
ENDMDL
MODEL 4
REMARK VINA RESULT: -5.216005262      1.730      1.843
REMARK  10 active torsions:
REMARK  status: ('A' for Active; 'I' for Inactive)
REMARK    1  A    between atoms: C2_2  and  N4_21 
REMARK    2  A    between atoms: C3_3  and  C4_4 
REMARK    3  A    between atoms: C4_4  and  C5_5 
REMARK    4  A    between atoms: C5_5  and  C7_8 
REMARK    5  A    between atoms: C7_8  and  N2_9 
REMARK    6  A    between atoms: C7_8  and  C8_13 
REMARK    7  A    between atoms: C8_13  and  O1_14 
REMARK    8  A    between atoms: C8_13  and  N3_16 
REMARK    9  A    between atoms: N3_16  and  S1_18 
REMARK   10  A    between atoms: N4_21  and  N5_23 
ROOT
HETATM    1  C5  UNL     1      -1.006  17.191  10.025  1.00  0.00     0.131 C 
HETATM    2  C6  UNL     1      -1.655  17.774   8.877  1.00  0.00     0.066 C 
HETATM    3  N1  UNL     1      -2.192  18.265   7.965  1.00  0.00    -0.197 NA
ENDROOT
BRANCH   1   4
HETATM    4  C4  UNL     1      -1.789  17.565  11.278  1.00  0.00     0.050 C 
BRANCH   4   5
HETATM    5  C3  UNL     1      -1.968  19.052  11.366  1.00  0.00     0.001 C 
HETATM    6  C2  UNL     1      -2.286  19.637  12.505  1.00  0.00     0.017 C 
HETATM    7  C1  UNL     1      -2.482  18.870  13.756  1.00  0.00     0.069 C 
BRANCH   6   8
HETATM    8  N4  UNL     1      -2.443  21.043  12.533  1.00  0.00    -0.312 N 
ATOM      9  H4  UNL     1      -2.915  21.465  13.332  1.00  0.00     0.186 HD
BRANCH   8  10
HETATM   10  N5  UNL     1      -1.986  21.867  11.530  1.00  0.00    -0.345 N 
ATOM     11  H52 UNL     1      -1.339  21.466  10.850  1.00  0.00     0.176 HD
ATOM     12  H51 UNL     1      -2.266  22.844  11.444  1.00  0.00     0.176 HD
ENDBRANCH   8  10
ENDBRANCH   6   8
ENDBRANCH   4   5
ENDBRANCH   1   4
BRANCH   1  13
HETATM   13  C7  UNL     1      -0.820  15.683   9.943  1.00  0.00     0.249 C 
BRANCH  13  14
HETATM   14  N2  UNL     1      -0.819  15.334   8.517  1.00  0.00    -0.070 N 
ATOM     15  H23 UNL     1      -1.724  15.000   8.185  1.00  0.00     0.275 HD
ATOM     16  H22 UNL     1      -0.749  16.146   7.905  1.00  0.00     0.275 HD
ATOM     17  H21 UNL     1      -0.067  14.659   8.380  1.00  0.00     0.275 HD
ENDBRANCH  13  14
BRANCH  13  18
HETATM   18  C8  UNL     1      -1.939  15.012  10.662  1.00  0.00     0.257 C 
BRANCH  18  19
HETATM   19  O1  UNL     1      -1.470  13.890  11.321  1.00  0.00    -0.374 OA
ATOM     20  H1  UNL     1      -1.986  13.132  11.074  1.00  0.00     0.212 HD
ENDBRANCH  18  19
BRANCH  18  21
HETATM   21  N3  UNL     1      -3.008  14.603   9.814  1.00  0.00    -0.312 N 
ATOM     22  H3  UNL     1      -2.878  14.718   8.809  1.00  0.00     0.172 HD
BRANCH  21  23
HETATM   23  S1  UNL     1      -4.206  14.062  10.239  1.00  0.00     0.107 S 
HETATM   24  C9  UNL     1      -5.515  14.417   9.371  1.00  0.00     0.152 C 
HETATM   25  O2  UNL     1      -4.138  12.629  10.771  1.00  0.00    -0.236 OA
ENDBRANCH  21  23
ENDBRANCH  18  21
ENDBRANCH  13  18
ENDBRANCH   1  13
TORSDOF 10
ENDMDL
MODEL 5
REMARK VINA RESULT: -5.150016257      2.490      4.576
REMARK  10 active torsions:
REMARK  status: ('A' for Active; 'I' for Inactive)
REMARK    1  A    between atoms: C2_2  and  N4_21 
REMARK    2  A    between atoms: C3_3  and  C4_4 
REMARK    3  A    between atoms: C4_4  and  C5_5 
REMARK    4  A    between atoms: C5_5  and  C7_8 
REMARK    5  A    between atoms: C7_8  and  N2_9 
REMARK    6  A    between atoms: C7_8  and  C8_13 
REMARK    7  A    between atoms: C8_13  and  O1_14 
REMARK    8  A    between atoms: C8_13  and  N3_16 
REMARK    9  A    between atoms: N3_16  and  S1_18 
REMARK   10  A    between atoms: N4_21  and  N5_23 
ROOT
HETATM    1  C5  UNL     1      -1.294  16.462  10.060  1.00  0.00     0.131 C 
HETATM    2  C6  UNL     1      -0.186  17.135  10.691  1.00  0.00     0.066 C 
HETATM    3  N1  UNL     1       0.719  17.689  11.176  1.00  0.00    -0.197 NA
ENDROOT
BRANCH   1   4
HETATM    4  C4  UNL     1      -0.952  16.213   8.596  1.00  0.00     0.050 C 
BRANCH   4   5
HETATM    5  C3  UNL     1      -1.126  17.468   7.791  1.00  0.00     0.001 C 
HETATM    6  C2  UNL     1      -2.228  17.690   7.101  1.00  0.00     0.017 C 
HETATM    7  C1  UNL     1      -3.352  16.727   7.077  1.00  0.00     0.069 C 
BRANCH   6   8
HETATM    8  N4  UNL     1      -2.341  18.891   6.358  1.00  0.00    -0.312 N 
ATOM      9  H4  UNL     1      -1.730  19.025   5.553  1.00  0.00     0.186 HD
BRANCH   8  10
HETATM   10  N5  UNL     1      -3.239  19.883   6.675  1.00  0.00    -0.345 N 
ATOM     11  H52 UNL     1      -4.151  19.597   7.031  1.00  0.00     0.176 HD
ATOM     12  H51 UNL     1      -3.029  20.876   6.568  1.00  0.00     0.176 HD
ENDBRANCH   8  10
ENDBRANCH   6   8
ENDBRANCH   4   5
ENDBRANCH   1   4
BRANCH   1  13
HETATM   13  C7  UNL     1      -1.709  15.164  10.738  1.00  0.00     0.249 C 
BRANCH  13  14
HETATM   14  N2  UNL     1      -2.640  14.489   9.826  1.00  0.00    -0.070 N 
ATOM     15  H23 UNL     1      -2.587  14.836   8.868  1.00  0.00     0.275 HD
ATOM     16  H22 UNL     1      -2.378  13.523   9.627  1.00  0.00     0.275 HD
ATOM     17  H21 UNL     1      -3.570  14.578  10.235  1.00  0.00     0.275 HD
ENDBRANCH  13  14
BRANCH  13  18
HETATM   18  C8  UNL     1      -2.364  15.481  12.038  1.00  0.00     0.257 C 
BRANCH  18  19
HETATM   19  O1  UNL     1      -2.744  14.310  12.670  1.00  0.00    -0.374 OA
ATOM     20  H1  UNL     1      -3.660  14.360  12.918  1.00  0.00     0.212 HD
ENDBRANCH  18  19
BRANCH  18  21
HETATM   21  N3  UNL     1      -3.519  16.305  11.919  1.00  0.00    -0.312 N 
ATOM     22  H3  UNL     1      -3.643  16.811  11.042  1.00  0.00     0.172 HD
BRANCH  21  23
HETATM   23  S1  UNL     1      -4.486  16.475  12.890  1.00  0.00     0.107 S 
HETATM   24  C9  UNL     1      -5.165  17.932  12.996  1.00  0.00     0.152 C 
HETATM   25  O2  UNL     1      -5.431  15.292  13.106  1.00  0.00    -0.236 OA
ENDBRANCH  21  23
ENDBRANCH  18  21
ENDBRANCH  13  18
ENDBRANCH   1  13
TORSDOF 10
ENDMDL
