MODEL 1
REMARK VINA RESULT: -5.778891381      0.000      0.000
REMARK  6 active torsions:
REMARK  status: ('A' for Active; 'I' for Inactive)
REMARK    1  A    between atoms: N2_4  and  N3_6 
REMARK    2  A    between atoms: N3_6  and  N4_8 
REMARK    3  A    between atoms: N4_8  and  C1_9 
REMARK    4  A    between atoms: C1_9  and  C2_10 
REMARK    5  A    between atoms: C9_22  and  C10_23 
REMARK    6  A    between atoms: N8_24  and  O1_26 
ROOT
HETATM    1  C2  UNL     1      -0.955  17.679  10.576  1.00  0.00     0.054 A 
HETATM    2  N5  UNL     1      -0.755  17.637  11.902  1.00  0.00    -0.355 N 
ATOM      3  H5  UNL     1       0.083  17.180  12.260  1.00  0.00     0.166 HD
HETATM    4  C3  UNL     1      -1.636  18.184  12.786  1.00  0.00     0.061 A 
HETATM    5  C4  UNL     1      -1.428  18.139  14.139  1.00  0.00     0.032 A 
HETATM    6  C5  UNL     1      -2.325  18.696  15.026  1.00  0.00     0.004 A 
HETATM    7  C6  UNL     1      -3.453  19.309  14.523  1.00  0.00     0.029 A 
HETATM    8  C7  UNL     1      -3.676  19.362  13.162  1.00  0.00     0.075 A 
HETATM    9  N6  UNL     1      -4.822  19.982  12.608  1.00  0.00    -0.100 NA
HETATM   10  C8  UNL     1      -2.766  18.799  12.289  1.00  0.00     0.084 A 
HETATM   11  N7  UNL     1      -2.998  18.859  10.959  1.00  0.00    -0.350 N 
ATOM     12  H7  UNL     1      -3.836  19.315  10.598  1.00  0.00     0.166 HD
HETATM   13  C9  UNL     1      -2.091  18.298  10.109  1.00  0.00     0.074 A 
ENDROOT
BRANCH   1  14
HETATM   14  C1  UNL     1       0.017  17.076   9.631  1.00  0.00     0.196 C 
BRANCH  14  15
HETATM   15  N4  UNL     1       0.190  15.672   9.831  1.00  0.00    -0.118 NA
BRANCH  15  16
HETATM   16  N3  UNL     1      -0.847  14.993   9.206  1.00  0.00    -0.232 N 
ATOM     17  H3  UNL     1      -0.757  14.760   8.217  1.00  0.00     0.205 HD
BRANCH  16  18
HETATM   18  N2  UNL     1      -2.008  14.619   9.886  1.00  0.00    -0.238 N 
HETATM   19  N1  UNL     1      -1.958  14.232  11.095  1.00  0.00    -0.330 N 
ATOM     20  H12 UNL     1      -1.051  14.199  11.559  1.00  0.00     0.178 HD
ATOM     21  H11 UNL     1      -2.806  13.959  11.591  1.00  0.00     0.178 HD
ATOM     22  H2  UNL     1      -2.908  14.658   9.407  1.00  0.00     0.209 HD
ENDBRANCH  16  18
ENDBRANCH  15  16
ENDBRANCH  14  15
ENDBRANCH   1  14
BRANCH  13  23
HETATM   23  C10 UNL     1      -2.334  18.360   8.677  1.00  0.00     0.145 C 
HETATM   24  N8  UNL     1      -2.838  19.419   8.147  1.00  0.00    -0.278 N 
ATOM     25  H8  UNL     1      -3.068  20.218   8.737  1.00  0.00     0.193 HD
BRANCH  24  26
HETATM   26  O1  UNL     1      -3.069  19.482   6.808  1.00  0.00    -0.290 OA
ATOM     27  H1  UNL     1      -3.637  20.151   6.445  1.00  0.00     0.244 HD
ENDBRANCH  24  26
ENDBRANCH  13  23
TORSDOF 6
ENDMDL
MODEL 2
REMARK VINA RESULT: -5.774244717      3.005      5.859
REMARK  6 active torsions:
REMARK  status: ('A' for Active; 'I' for Inactive)
REMARK    1  A    between atoms: N2_4  and  N3_6 
REMARK    2  A    between atoms: N3_6  and  N4_8 
REMARK    3  A    between atoms: N4_8  and  C1_9 
REMARK    4  A    between atoms: C1_9  and  C2_10 
REMARK    5  A    between atoms: C9_22  and  C10_23 
REMARK    6  A    between atoms: N8_24  and  O1_26 
ROOT
HETATM    1  C2  UNL     1      -2.592  18.820  13.120  1.00  0.00     0.054 A 
HETATM    2  N5  UNL     1      -1.647  18.708  12.174  1.00  0.00    -0.355 N 
ATOM      3  H5  UNL     1      -1.110  19.534  11.913  1.00  0.00     0.166 HD
HETATM    4  C3  UNL     1      -1.381  17.525  11.551  1.00  0.00     0.061 A 
HETATM    5  C4  UNL     1      -0.414  17.415  10.588  1.00  0.00     0.032 A 
HETATM    6  C5  UNL     1      -0.153  16.213   9.963  1.00  0.00     0.004 A 
HETATM    7  C6  UNL     1      -0.888  15.107  10.330  1.00  0.00     0.029 A 
HETATM    8  C7  UNL     1      -1.865  15.203  11.300  1.00  0.00     0.075 A 
HETATM    9  N6  UNL     1      -2.642  14.090  11.704  1.00  0.00    -0.100 NA
HETATM   10  C8  UNL     1      -2.114  16.415  11.915  1.00  0.00     0.084 A 
HETATM   11  N7  UNL     1      -3.073  16.493  12.863  1.00  0.00    -0.350 N 
ATOM     12  H7  UNL     1      -3.612  15.668  13.126  1.00  0.00     0.166 HD
HETATM   13  C9  UNL     1      -3.307  17.697  13.460  1.00  0.00     0.074 A 
ENDROOT
BRANCH   1  14
HETATM   14  C1  UNL     1      -2.866  20.119  13.784  1.00  0.00     0.196 C 
BRANCH  14  15
HETATM   15  N4  UNL     1      -3.642  21.005  12.975  1.00  0.00    -0.118 NA
BRANCH  15  16
HETATM   16  N3  UNL     1      -2.887  22.132  12.685  1.00  0.00    -0.232 N 
ATOM     17  H3  UNL     1      -2.972  22.951  13.287  1.00  0.00     0.205 HD
BRANCH  16  18
HETATM   18  N2  UNL     1      -2.014  22.182  11.595  1.00  0.00    -0.238 N 
HETATM   19  N1  UNL     1      -2.425  21.932  10.420  1.00  0.00    -0.330 N 
ATOM     20  H12 UNL     1      -3.408  21.693  10.288  1.00  0.00     0.178 HD
ATOM     21  H11 UNL     1      -1.788  21.969   9.625  1.00  0.00     0.178 HD
ATOM     22  H2  UNL     1      -1.034  22.423  11.745  1.00  0.00     0.209 HD
ENDBRANCH  16  18
ENDBRANCH  15  16
ENDBRANCH  14  15
ENDBRANCH   1  14
BRANCH  13  23
HETATM   23  C10 UNL     1      -4.338  17.788  14.482  1.00  0.00     0.145 C 
HETATM   24  N8  UNL     1      -5.435  17.127  14.361  1.00  0.00    -0.278 N 
ATOM     25  H8  UNL     1      -5.581  16.536  13.543  1.00  0.00     0.193 HD
BRANCH  24  26
HETATM   26  O1  UNL     1      -6.403  17.209  15.314  1.00  0.00    -0.290 OA
ATOM     27  H1  UNL     1      -7.290  17.462  15.083  1.00  0.00     0.244 HD
ENDBRANCH  24  26
ENDBRANCH  13  23
TORSDOF 6
ENDMDL
MODEL 3
REMARK VINA RESULT: -5.735379570      2.579      3.355
REMARK  6 active torsions:
REMARK  status: ('A' for Active; 'I' for Inactive)
REMARK    1  A    between atoms: N2_4  and  N3_6 
REMARK    2  A    between atoms: N3_6  and  N4_8 
REMARK    3  A    between atoms: N4_8  and  C1_9 
REMARK    4  A    between atoms: C1_9  and  C2_10 
REMARK    5  A    between atoms: C9_22  and  C10_23 
REMARK    6  A    between atoms: N8_24  and  O1_26 
ROOT
HETATM    1  C2  UNL     1      -1.581  18.194  11.882  1.00  0.00     0.054 A 
HETATM    2  N5  UNL     1      -1.714  19.523  11.750  1.00  0.00    -0.355 N 
ATOM      3  H5  UNL     1      -1.004  20.041  11.233  1.00  0.00     0.166 HD
HETATM    4  C3  UNL     1      -2.768  20.203  12.284  1.00  0.00     0.061 A 
HETATM    5  C4  UNL     1      -2.900  21.559  12.146  1.00  0.00     0.032 A 
HETATM    6  C5  UNL     1      -3.970  22.238  12.690  1.00  0.00     0.004 A 
HETATM    7  C6  UNL     1      -4.919  21.521  13.385  1.00  0.00     0.029 A 
HETATM    8  C7  UNL     1      -4.800  20.154  13.532  1.00  0.00     0.075 A 
HETATM    9  N6  UNL     1      -5.755  19.383  14.238  1.00  0.00    -0.100 NA
HETATM   10  C8  UNL     1      -3.721  19.490  12.979  1.00  0.00     0.084 A 
HETATM   11  N7  UNL     1      -3.618  18.152  13.132  1.00  0.00    -0.350 N 
ATOM     12  H7  UNL     1      -4.327  17.631  13.648  1.00  0.00     0.166 HD
HETATM   13  C9  UNL     1      -2.547  17.511  12.581  1.00  0.00     0.074 A 
ENDROOT
BRANCH   1  14
HETATM   14  C1  UNL     1      -0.425  17.474  11.292  1.00  0.00     0.196 C 
BRANCH  14  15
HETATM   15  N4  UNL     1      -0.549  17.284   9.881  1.00  0.00    -0.118 NA
BRANCH  15  16
HETATM   16  N3  UNL     1      -0.248  15.965   9.573  1.00  0.00    -0.232 N 
ATOM     17  H3  UNL     1       0.728  15.697   9.453  1.00  0.00     0.205 HD
BRANCH  16  18
HETATM   18  N2  UNL     1      -1.239  14.992   9.422  1.00  0.00    -0.238 N 
HETATM   19  N1  UNL     1      -2.396  15.302   9.000  1.00  0.00    -0.330 N 
ATOM     20  H12 UNL     1      -2.588  16.278   8.773  1.00  0.00     0.178 HD
ATOM     21  H11 UNL     1      -3.120  14.592   8.889  1.00  0.00     0.178 HD
ATOM     22  H2  UNL     1      -1.031  14.020   9.652  1.00  0.00     0.209 HD
ENDBRANCH  16  18
ENDBRANCH  15  16
ENDBRANCH  14  15
ENDBRANCH   1  14
BRANCH  13  23
HETATM   23  C10 UNL     1      -2.430  16.070  12.740  1.00  0.00     0.145 C 
HETATM   24  N8  UNL     1      -3.378  15.293  12.349  1.00  0.00    -0.278 N 
ATOM     25  H8  UNL     1      -4.215  15.692  11.925  1.00  0.00     0.193 HD
BRANCH  24  26
HETATM   26  O1  UNL     1      -3.274  13.944  12.496  1.00  0.00    -0.290 OA
ATOM     27  H1  UNL     1      -3.304  13.370  11.738  1.00  0.00     0.244 HD
ENDBRANCH  24  26
ENDBRANCH  13  23
TORSDOF 6
ENDMDL
MODEL 4
REMARK VINA RESULT: -5.724079796      2.603      3.395
REMARK  6 active torsions:
REMARK  status: ('A' for Active; 'I' for Inactive)
REMARK    1  A    between atoms: N2_4  and  N3_6 
REMARK    2  A    between atoms: N3_6  and  N4_8 
REMARK    3  A    between atoms: N4_8  and  C1_9 
REMARK    4  A    between atoms: C1_9  and  C2_10 
REMARK    5  A    between atoms: C9_22  and  C10_23 
REMARK    6  A    between atoms: N8_24  and  O1_26 
ROOT
HETATM    1  C2  UNL     1      -3.461  16.955  10.989  1.00  0.00     0.054 A 
HETATM    2  N5  UNL     1      -4.620  16.580  11.552  1.00  0.00    -0.355 N 
ATOM      3  H5  UNL     1      -5.290  16.050  10.996  1.00  0.00     0.166 HD
HETATM    4  C3  UNL     1      -4.931  16.886  12.844  1.00  0.00     0.061 A 
HETATM    5  C4  UNL     1      -6.115  16.501  13.414  1.00  0.00     0.032 A 
HETATM    6  C5  UNL     1      -6.420  16.815  14.722  1.00  0.00     0.004 A 
HETATM    7  C6  UNL     1      -5.502  17.532  15.458  1.00  0.00     0.029 A 
HETATM    8  C7  UNL     1      -4.304  17.926  14.897  1.00  0.00     0.075 A 
HETATM    9  N6  UNL     1      -3.336  18.663  15.620  1.00  0.00    -0.100 NA
HETATM   10  C8  UNL     1      -4.015  17.602  13.585  1.00  0.00     0.084 A 
HETATM   11  N7  UNL     1      -2.839  17.995  13.049  1.00  0.00    -0.350 N 
ATOM     12  H7  UNL     1      -2.166  18.526  13.603  1.00  0.00     0.166 HD
HETATM   13  C9  UNL     1      -2.568  17.669  11.753  1.00  0.00     0.074 A 
ENDROOT
BRANCH   1  14
HETATM   14  C1  UNL     1      -3.143  16.612   9.581  1.00  0.00     0.196 C 
BRANCH  14  15
HETATM   15  N4  UNL     1      -3.110  15.202   9.345  1.00  0.00    -0.118 NA
BRANCH  15  16
HETATM   16  N3  UNL     1      -1.933  14.683   9.865  1.00  0.00    -0.232 N 
ATOM     17  H3  UNL     1      -1.975  14.127  10.719  1.00  0.00     0.205 HD
BRANCH  16  18
HETATM   18  N2  UNL     1      -0.694  14.896   9.257  1.00  0.00    -0.238 N 
HETATM   19  N1  UNL     1       0.370  14.427   9.768  1.00  0.00    -0.330 N 
ATOM     20  H12 UNL     1       0.301  13.891  10.633  1.00  0.00     0.178 HD
ATOM     21  H11 UNL     1       1.275  14.583   9.324  1.00  0.00     0.178 HD
ATOM     22  H2  UNL     1      -0.642  15.434   8.392  1.00  0.00     0.209 HD
ENDBRANCH  16  18
ENDBRANCH  15  16
ENDBRANCH  14  15
ENDBRANCH   1  14
BRANCH  13  23
HETATM   23  C10 UNL     1      -1.303  18.087  11.170  1.00  0.00     0.145 C 
HETATM   24  N8  UNL     1      -0.210  17.488  11.488  1.00  0.00    -0.278 N 
ATOM     25  H8  UNL     1      -0.233  16.716  12.153  1.00  0.00     0.193 HD
BRANCH  24  26
HETATM   26  O1  UNL     1       0.977  17.876  10.946  1.00  0.00    -0.290 OA
ATOM     27  H1  UNL     1       1.345  18.729  11.146  1.00  0.00     0.244 HD
ENDBRANCH  24  26
ENDBRANCH  13  23
TORSDOF 6
ENDMDL
MODEL 5
REMARK VINA RESULT: -5.690041252      2.978      5.659
REMARK  6 active torsions:
REMARK  status: ('A' for Active; 'I' for Inactive)
REMARK    1  A    between atoms: N2_4  and  N3_6 
REMARK    2  A    between atoms: N3_6  and  N4_8 
REMARK    3  A    between atoms: N4_8  and  C1_9 
REMARK    4  A    between atoms: C1_9  and  C2_10 
REMARK    5  A    between atoms: C9_22  and  C10_23 
REMARK    6  A    between atoms: N8_24  and  O1_26 
ROOT
HETATM    1  C2  UNL     1      -1.639  17.177  12.400  1.00  0.00     0.054 A 
HETATM    2  N5  UNL     1      -0.627  17.340  11.534  1.00  0.00    -0.355 N 
ATOM      3  H5  UNL     1       0.262  17.702  11.877  1.00  0.00     0.166 HD
HETATM    4  C3  UNL     1      -0.749  17.039  10.210  1.00  0.00     0.061 A 
HETATM    5  C4  UNL     1       0.286  17.206   9.330  1.00  0.00     0.032 A 
HETATM    6  C5  UNL     1       0.152  16.898   7.992  1.00  0.00     0.004 A 
HETATM    7  C6  UNL     1      -1.057  16.410   7.547  1.00  0.00     0.029 A 
HETATM    8  C7  UNL     1      -2.109  16.235   8.423  1.00  0.00     0.075 A 
HETATM    9  N6  UNL     1      -3.367  15.737   8.004  1.00  0.00    -0.100 NA
HETATM   10  C8  UNL     1      -1.957  16.550   9.760  1.00  0.00     0.084 A 
HETATM   11  N7  UNL     1      -2.997  16.373  10.604  1.00  0.00    -0.350 N 
ATOM     12  H7  UNL     1      -3.888  16.012  10.264  1.00  0.00     0.166 HD
HETATM   13  C9  UNL     1      -2.831  16.689  11.921  1.00  0.00     0.074 A 
ENDROOT
BRANCH   1  14
HETATM   14  C1  UNL     1      -1.484  17.513  13.837  1.00  0.00     0.196 C 
BRANCH  14  15
HETATM   15  N4  UNL     1      -1.950  18.826  14.155  1.00  0.00    -0.118 NA
BRANCH  15  16
HETATM   16  N3  UNL     1      -2.353  18.855  15.482  1.00  0.00    -0.232 N 
ATOM     17  H3  UNL     1      -1.668  19.087  16.201  1.00  0.00     0.205 HD
BRANCH  16  18
HETATM   18  N2  UNL     1      -3.667  18.576  15.867  1.00  0.00    -0.238 N 
HETATM   19  N1  UNL     1      -4.627  19.313  15.482  1.00  0.00    -0.330 N 
ATOM     20  H12 UNL     1      -4.419  20.113  14.885  1.00  0.00     0.178 HD
ATOM     21  H11 UNL     1      -5.587  19.109  15.762  1.00  0.00     0.178 HD
ATOM     22  H2  UNL     1      -3.858  17.772  16.464  1.00  0.00     0.209 HD
ENDBRANCH  16  18
ENDBRANCH  15  16
ENDBRANCH  14  15
ENDBRANCH   1  14
BRANCH  13  23
HETATM   23  C10 UNL     1      -3.946  16.500  12.837  1.00  0.00     0.145 C 
HETATM   24  N8  UNL     1      -4.858  15.630  12.581  1.00  0.00    -0.278 N 
ATOM     25  H8  UNL     1      -4.797  15.069  11.732  1.00  0.00     0.193 HD
BRANCH  24  26
HETATM   26  O1  UNL     1      -5.903  15.450  13.434  1.00  0.00    -0.290 OA
ATOM     27  H1  UNL     1      -6.792  15.641  13.158  1.00  0.00     0.244 HD
ENDBRANCH  24  26
ENDBRANCH  13  23
TORSDOF 6
ENDMDL
