MODEL 1
REMARK VINA RESULT: -5.606806601      0.000      0.000
REMARK  3 active torsions:
REMARK  status: ('A' for Active; 'I' for Inactive)
REMARK    1  A    between atoms: C3_3  and  S1_4 
REMARK    2  A    between atoms: S1_4  and  C4_5 
REMARK    3  A    between atoms: C9_12  and  N2_13 
ROOT
HETATM    1  C1  UNL     1      22.712   4.203  10.684  1.00  0.00     0.098 C 
HETATM    2  C2  UNL     1      22.313   4.627   9.607  1.00  0.00    -0.177 C 
HETATM    3  C3  UNL     1      21.800   5.150   8.316  1.00  0.00     0.158 C 
ENDROOT
BRANCH   3   4
HETATM    4  S1  UNL     1      22.273   6.825   8.050  1.00  0.00    -0.117 SA
BRANCH   4   5
HETATM    5  C4  UNL     1      23.960   7.203   7.859  1.00  0.00     0.020 A 
HETATM    6  C5  UNL     1      24.816   7.318   8.977  1.00  0.00     0.020 A 
HETATM    7  C6  UNL     1      26.112   7.648   8.710  1.00  0.00     0.004 A 
HETATM    8  C7  UNL     1      26.614   7.865   7.475  1.00  0.00     0.031 A 
HETATM    9  C8  UNL     1      25.783   7.758   6.338  1.00  0.00     0.052 A 
HETATM   10  N1  UNL     1      26.150   7.958   5.091  1.00  0.00    -0.336 N 
HETATM   11  C10 UNL     1      24.475   7.429   6.574  1.00  0.00     0.052 A 
HETATM   12  C9  UNL     1      25.240   7.830   4.126  1.00  0.00     0.143 A 
ATOM     13  H1  UNL     1      27.114   8.207   4.866  1.00  0.00     0.168 HD
HETATM   14  S2  UNL     1      23.832   7.421   4.992  1.00  0.00    -0.051 SA
BRANCH  12  15
HETATM   15  N2  UNL     1      25.409   7.989   2.830  1.00  0.00    -0.380 N 
ATOM     16  H22 UNL     1      24.805   8.451   2.150  1.00  0.00     0.158 HD
ATOM     17  H21 UNL     1      26.192   7.675   2.258  1.00  0.00     0.158 HD
ENDBRANCH  12  15
ENDBRANCH   4   5
ENDBRANCH   3   4
TORSDOF 3
ENDMDL
MODEL 2
REMARK VINA RESULT: -5.588542556      0.972      1.113
REMARK  3 active torsions:
REMARK  status: ('A' for Active; 'I' for Inactive)
REMARK    1  A    between atoms: C3_3  and  S1_4 
REMARK    2  A    between atoms: S1_4  and  C4_5 
REMARK    3  A    between atoms: C9_12  and  N2_13 
ROOT
HETATM    1  C1  UNL     1      23.068   3.772  11.813  1.00  0.00     0.098 C 
HETATM    2  C2  UNL     1      22.604   4.077  10.722  1.00  0.00    -0.177 C 
HETATM    3  C3  UNL     1      22.010   4.447   9.414  1.00  0.00     0.158 C 
ENDROOT
BRANCH   3   4
HETATM    4  S1  UNL     1      22.086   6.183   9.124  1.00  0.00    -0.117 SA
BRANCH   4   5
HETATM    5  C4  UNL     1      23.609   6.894   8.672  1.00  0.00     0.020 A 
HETATM    6  C5  UNL     1      24.560   7.268   9.647  1.00  0.00     0.020 A 
HETATM    7  C6  UNL     1      25.704   7.845   9.180  1.00  0.00     0.004 A 
HETATM    8  C7  UNL     1      25.976   8.074   7.877  1.00  0.00     0.031 A 
HETATM    9  C8  UNL     1      25.044   7.712   6.879  1.00  0.00     0.052 A 
HETATM   10  N1  UNL     1      25.187   7.895   5.584  1.00  0.00    -0.336 N 
HETATM   11  C10 UNL     1      23.884   7.131   7.318  1.00  0.00     0.052 A 
HETATM   12  C9  UNL     1      24.207   7.508   4.770  1.00  0.00     0.143 A 
ATOM     13  H1  UNL     1      26.034   8.325   5.211  1.00  0.00     0.168 HD
HETATM   14  S2  UNL     1      23.052   6.873   5.848  1.00  0.00    -0.051 SA
BRANCH  12  15
HETATM   15  N2  UNL     1      24.161   7.605   3.457  1.00  0.00    -0.380 N 
ATOM     16  H22 UNL     1      24.925   7.697   2.787  1.00  0.00     0.158 HD
ATOM     17  H21 UNL     1      23.336   7.602   2.858  1.00  0.00     0.158 HD
ENDBRANCH  12  15
ENDBRANCH   4   5
ENDBRANCH   3   4
TORSDOF 3
ENDMDL
MODEL 3
REMARK VINA RESULT: -5.538075929      1.164      1.194
REMARK  3 active torsions:
REMARK  status: ('A' for Active; 'I' for Inactive)
REMARK    1  A    between atoms: C3_3  and  S1_4 
REMARK    2  A    between atoms: S1_4  and  C4_5 
REMARK    3  A    between atoms: C9_12  and  N2_13 
ROOT
HETATM    1  C1  UNL     1      23.806   4.944  11.410  1.00  0.00     0.098 C 
HETATM    2  C2  UNL     1      23.087   5.617  10.683  1.00  0.00    -0.177 C 
HETATM    3  C3  UNL     1      22.201   6.448   9.830  1.00  0.00     0.158 C 
ENDROOT
BRANCH   3   4
HETATM    4  S1  UNL     1      23.001   7.919   9.287  1.00  0.00    -0.117 SA
BRANCH   4   5
HETATM    5  C4  UNL     1      24.536   7.793   8.477  1.00  0.00     0.020 A 
HETATM    6  C5  UNL     1      25.748   7.788   9.203  1.00  0.00     0.020 A 
HETATM    7  C6  UNL     1      26.891   7.716   8.462  1.00  0.00     0.004 A 
HETATM    8  C7  UNL     1      26.934   7.650   7.114  1.00  0.00     0.031 A 
HETATM    9  C8  UNL     1      25.739   7.653   6.361  1.00  0.00     0.052 A 
HETATM   10  N1  UNL     1      25.651   7.606   5.049  1.00  0.00    -0.336 N 
HETATM   11  C10 UNL     1      24.574   7.726   7.077  1.00  0.00     0.052 A 
HETATM   12  C9  UNL     1      24.444   7.630   4.486  1.00  0.00     0.143 A 
ATOM     13  H1  UNL     1      26.492   7.553   4.474  1.00  0.00     0.168 HD
HETATM   14  S2  UNL     1      23.405   7.723   5.832  1.00  0.00    -0.051 SA
BRANCH  12  15
HETATM   15  N2  UNL     1      24.151   7.594   3.203  1.00  0.00    -0.380 N 
ATOM     16  H22 UNL     1      24.761   7.425   2.403  1.00  0.00     0.158 HD
ATOM     17  H21 UNL     1      23.239   7.727   2.766  1.00  0.00     0.158 HD
ENDBRANCH  12  15
ENDBRANCH   4   5
ENDBRANCH   3   4
TORSDOF 3
ENDMDL
MODEL 4
REMARK VINA RESULT: -5.496227416      4.207      6.758
REMARK  3 active torsions:
REMARK  status: ('A' for Active; 'I' for Inactive)
REMARK    1  A    between atoms: C3_3  and  S1_4 
REMARK    2  A    between atoms: S1_4  and  C4_5 
REMARK    3  A    between atoms: C9_12  and  N2_13 
ROOT
HETATM    1  C1  UNL     1      27.197   7.638   8.006  1.00  0.00     0.098 C 
HETATM    2  C2  UNL     1      25.976   7.665   7.916  1.00  0.00    -0.177 C 
HETATM    3  C3  UNL     1      24.497   7.663   7.799  1.00  0.00     0.158 C 
ENDROOT
BRANCH   3   4
HETATM    4  S1  UNL     1      23.713   7.474   9.365  1.00  0.00    -0.117 SA
BRANCH   4   5
HETATM    5  C4  UNL     1      23.190   5.889   9.858  1.00  0.00     0.020 A 
HETATM    6  C5  UNL     1      22.309   5.128   9.059  1.00  0.00     0.020 A 
HETATM    7  C6  UNL     1      21.942   3.914   9.560  1.00  0.00     0.004 A 
HETATM    8  C7  UNL     1      22.359   3.407  10.741  1.00  0.00     0.031 A 
HETATM    9  C8  UNL     1      23.240   4.145  11.561  1.00  0.00     0.052 A 
HETATM   10  N1  UNL     1      23.705   3.768  12.732  1.00  0.00    -0.336 N 
HETATM   11  C10 UNL     1      23.626   5.371  11.085  1.00  0.00     0.052 A 
HETATM   12  C9  UNL     1      24.522   4.587  13.393  1.00  0.00     0.143 A 
ATOM     13  H1  UNL     1      23.445   2.864  13.128  1.00  0.00     0.168 HD
HETATM   14  S2  UNL     1      24.640   5.924  12.344  1.00  0.00    -0.051 SA
BRANCH  12  15
HETATM   15  N2  UNL     1      25.086   4.393  14.567  1.00  0.00    -0.380 N 
ATOM     16  H22 UNL     1      25.990   4.716  14.913  1.00  0.00     0.158 HD
ATOM     17  H21 UNL     1      24.713   3.875  15.362  1.00  0.00     0.158 HD
ENDBRANCH  12  15
ENDBRANCH   4   5
ENDBRANCH   3   4
TORSDOF 3
ENDMDL
MODEL 5
REMARK VINA RESULT: -5.423489166      1.930      2.985
REMARK  3 active torsions:
REMARK  status: ('A' for Active; 'I' for Inactive)
REMARK    1  A    between atoms: C3_3  and  S1_4 
REMARK    2  A    between atoms: S1_4  and  C4_5 
REMARK    3  A    between atoms: C9_12  and  N2_13 
ROOT
HETATM    1  C1  UNL     1      22.685  11.342   6.889  1.00  0.00     0.098 C 
HETATM    2  C2  UNL     1      22.327  10.489   7.691  1.00  0.00    -0.177 C 
HETATM    3  C3  UNL     1      21.865   9.451   8.644  1.00  0.00     0.158 C 
ENDROOT
BRANCH   3   4
HETATM    4  S1  UNL     1      22.528   7.864   8.262  1.00  0.00    -0.117 SA
BRANCH   4   5
HETATM    5  C4  UNL     1      24.227   7.725   7.913  1.00  0.00     0.020 A 
HETATM    6  C5  UNL     1      25.179   7.598   8.948  1.00  0.00     0.020 A 
HETATM    7  C6  UNL     1      26.484   7.528   8.559  1.00  0.00     0.004 A 
HETATM    8  C7  UNL     1      26.910   7.570   7.277  1.00  0.00     0.031 A 
HETATM    9  C8  UNL     1      25.982   7.696   6.221  1.00  0.00     0.052 A 
HETATM   10  N1  UNL     1      26.273   7.761   4.939  1.00  0.00    -0.336 N 
HETATM   11  C10 UNL     1      24.662   7.771   6.581  1.00  0.00     0.052 A 
HETATM   12  C9  UNL     1      25.279   7.894   4.062  1.00  0.00     0.143 A 
ATOM     13  H1  UNL     1      27.242   7.712   4.623  1.00  0.00     0.168 HD
HETATM   14  S2  UNL     1      23.900   7.930   5.061  1.00  0.00    -0.051 SA
BRANCH  12  15
HETATM   15  N2  UNL     1      25.365   7.977   2.751  1.00  0.00    -0.380 N 
ATOM     16  H22 UNL     1      26.193   7.976   2.154  1.00  0.00     0.158 HD
ATOM     17  H21 UNL     1      24.603   8.056   2.078  1.00  0.00     0.158 HD
ENDBRANCH  12  15
ENDBRANCH   4   5
ENDBRANCH   3   4
TORSDOF 3
ENDMDL
