MODEL 1
REMARK VINA RESULT: -5.315984120      0.000      0.000
REMARK  4 active torsions:
REMARK  status: ('A' for Active; 'I' for Inactive)
REMARK    1  A    between atoms: C2_2  and  O1_4 
REMARK    2  A    between atoms: O1_4  and  C4_5 
REMARK    3  A    between atoms: C10_11  and  N1_12 
REMARK    4  A    between atoms: C10_11  and  N2_16 
ROOT
HETATM    1  C4  UNL     1     -35.367   4.918  17.607  1.00  0.00     0.186 C 
HETATM    2  C5  UNL     1     -36.473   5.755  18.230  1.00  0.00     0.036 C 
HETATM    3  C6  UNL     1     -36.228   7.234  18.053  1.00  0.00     0.003 C 
HETATM    4  C7  UNL     1     -36.471   7.515  16.577  1.00  0.00     0.000 C 
HETATM    5  C8  UNL     1     -35.189   7.224  15.872  1.00  0.00     0.004 C 
HETATM    6  C9  UNL     1     -35.079   5.868  15.285  1.00  0.00     0.072 C 
HETATM    7  C10 UNL     1     -35.551   4.740  16.131  1.00  0.00     0.307 C 
ENDROOT
BRANCH   7   8
HETATM    8  N1  UNL     1     -36.944   4.398  15.901  1.00  0.00    -0.042 N 
ATOM      9  H13 UNL     1     -37.590   4.994  16.420  1.00  0.00     0.277 HD
ATOM     10  H12 UNL     1     -37.262   4.641  14.964  1.00  0.00     0.277 HD
ATOM     11  H11 UNL     1     -37.057   3.407  16.115  1.00  0.00     0.277 HD
ENDBRANCH   7   8
BRANCH   7  12
HETATM   12  N2  UNL     1     -34.789   3.561  15.743  1.00  0.00    -0.042 N 
ATOM     13  H23 UNL     1     -33.780   3.696  15.814  1.00  0.00     0.277 HD
ATOM     14  H22 UNL     1     -34.866   2.796  16.413  1.00  0.00     0.277 HD
ATOM     15  H21 UNL     1     -35.092   3.303  14.804  1.00  0.00     0.277 HD
ENDBRANCH   7  12
BRANCH   1  16
HETATM   16  O1  UNL     1     -34.122   5.403  17.853  1.00  0.00    -0.377 OA
BRANCH  16  17
HETATM   17  C2  UNL     1     -33.450   4.903  18.918  1.00  0.00     0.114 C 
HETATM   18  C1  UNL     1     -33.242   5.800  20.076  1.00  0.00     0.039 C 
HETATM   19  C3  UNL     1     -34.135   3.630  19.435  1.00  0.00     0.039 C 
ENDBRANCH  16  17
ENDBRANCH   1  16
TORSDOF 4
ENDMDL
MODEL 2
REMARK VINA RESULT: -5.179957211      0.780      1.112
REMARK  4 active torsions:
REMARK  status: ('A' for Active; 'I' for Inactive)
REMARK    1  A    between atoms: C2_2  and  O1_4 
REMARK    2  A    between atoms: O1_4  and  C4_5 
REMARK    3  A    between atoms: C10_11  and  N1_12 
REMARK    4  A    between atoms: C10_11  and  N2_16 
ROOT
HETATM    1  C4  UNL     1     -36.039   5.072  17.776  1.00  0.00     0.186 C 
HETATM    2  C5  UNL     1     -37.259   5.973  17.882  1.00  0.00     0.036 C 
HETATM    3  C6  UNL     1     -36.904   7.427  17.682  1.00  0.00     0.003 C 
HETATM    4  C7  UNL     1     -36.587   7.570  16.200  1.00  0.00     0.000 C 
HETATM    5  C8  UNL     1     -35.151   7.203  16.035  1.00  0.00     0.004 C 
HETATM    6  C9  UNL     1     -34.894   5.796  15.645  1.00  0.00     0.072 C 
HETATM    7  C10 UNL     1     -35.686   4.757  16.355  1.00  0.00     0.307 C 
ENDROOT
BRANCH   7   8
HETATM    8  N1  UNL     1     -36.915   4.407  15.665  1.00  0.00    -0.042 N 
ATOM      9  H13 UNL     1     -36.807   3.608  15.041  1.00  0.00     0.277 HD
ATOM     10  H12 UNL     1     -37.615   3.999  16.284  1.00  0.00     0.277 HD
ATOM     11  H11 UNL     1     -37.248   5.244  15.187  1.00  0.00     0.277 HD
ENDBRANCH   7   8
BRANCH   7  12
HETATM   12  N2  UNL     1     -34.885   3.540  16.371  1.00  0.00    -0.042 N 
ATOM     13  H23 UNL     1     -34.096   3.589  17.015  1.00  0.00     0.277 HD
ATOM     14  H22 UNL     1     -35.363   2.752  16.808  1.00  0.00     0.277 HD
ATOM     15  H21 UNL     1     -34.603   3.353  15.408  1.00  0.00     0.277 HD
ENDBRANCH   7  12
BRANCH   1  16
HETATM   16  O1  UNL     1     -34.947   5.567  18.415  1.00  0.00    -0.377 OA
BRANCH  16  17
HETATM   17  C2  UNL     1     -34.577   4.981  19.579  1.00  0.00     0.114 C 
HETATM   18  C1  UNL     1     -35.321   3.773  20.000  1.00  0.00     0.039 C 
HETATM   19  C3  UNL     1     -33.085   4.619  19.548  1.00  0.00     0.039 C 
ENDBRANCH  16  17
ENDBRANCH   1  16
TORSDOF 4
ENDMDL
MODEL 3
REMARK VINA RESULT: -4.833806297      1.294      1.618
REMARK  4 active torsions:
REMARK  status: ('A' for Active; 'I' for Inactive)
REMARK    1  A    between atoms: C2_2  and  O1_4 
REMARK    2  A    between atoms: O1_4  and  C4_5 
REMARK    3  A    between atoms: C10_11  and  N1_12 
REMARK    4  A    between atoms: C10_11  and  N2_16 
ROOT
HETATM    1  C4  UNL     1     -35.318   4.796  16.721  1.00  0.00     0.186 C 
HETATM    2  C5  UNL     1     -36.824   4.683  16.544  1.00  0.00     0.036 C 
HETATM    3  C6  UNL     1     -37.556   5.830  17.198  1.00  0.00     0.003 C 
HETATM    4  C7  UNL     1     -37.269   7.046  16.330  1.00  0.00     0.000 C 
HETATM    5  C8  UNL     1     -35.973   7.611  16.805  1.00  0.00     0.004 C 
HETATM    6  C9  UNL     1     -34.774   7.170  16.054  1.00  0.00     0.072 C 
HETATM    7  C10 UNL     1     -34.695   5.722  15.723  1.00  0.00     0.307 C 
ENDROOT
BRANCH   7   8
HETATM    8  N1  UNL     1     -35.256   5.405  14.421  1.00  0.00    -0.042 N 
ATOM      9  H13 UNL     1     -35.162   4.418  14.178  1.00  0.00     0.277 HD
ATOM     10  H12 UNL     1     -36.274   5.449  14.406  1.00  0.00     0.277 HD
ATOM     11  H11 UNL     1     -34.821   6.026  13.739  1.00  0.00     0.277 HD
ENDBRANCH   7   8
BRANCH   7  12
HETATM   12  N2  UNL     1     -33.283   5.375  15.637  1.00  0.00    -0.042 N 
ATOM     13  H23 UNL     1     -33.108   4.378  15.762  1.00  0.00     0.277 HD
ATOM     14  H22 UNL     1     -32.908   5.457  14.692  1.00  0.00     0.277 HD
ATOM     15  H21 UNL     1     -32.790   5.955  16.315  1.00  0.00     0.277 HD
ENDBRANCH   7  12
BRANCH   1  16
HETATM   16  O1  UNL     1     -34.951   5.169  17.976  1.00  0.00    -0.377 OA
BRANCH  16  17
HETATM   17  C2  UNL     1     -34.423   4.220  18.785  1.00  0.00     0.114 C 
HETATM   18  C1  UNL     1     -33.111   4.508  19.407  1.00  0.00     0.039 C 
HETATM   19  C3  UNL     1     -35.403   3.870  19.914  1.00  0.00     0.039 C 
ENDBRANCH  16  17
ENDBRANCH   1  16
TORSDOF 4
ENDMDL
MODEL 4
REMARK VINA RESULT: -4.761546858      1.790      2.363
REMARK  4 active torsions:
REMARK  status: ('A' for Active; 'I' for Inactive)
REMARK    1  A    between atoms: C2_2  and  O1_4 
REMARK    2  A    between atoms: O1_4  and  C4_5 
REMARK    3  A    between atoms: C10_11  and  N1_12 
REMARK    4  A    between atoms: C10_11  and  N2_16 
ROOT
HETATM    1  C4  UNL     1     -35.712   4.895  17.881  1.00  0.00     0.186 C 
HETATM    2  C5  UNL     1     -36.876   4.841  16.903  1.00  0.00     0.036 C 
HETATM    3  C6  UNL     1     -37.530   6.190  16.730  1.00  0.00     0.003 C 
HETATM    4  C7  UNL     1     -36.540   7.024  15.930  1.00  0.00     0.000 C 
HETATM    5  C8  UNL     1     -35.590   7.618  16.916  1.00  0.00     0.004 C 
HETATM    6  C9  UNL     1     -34.330   6.865  17.117  1.00  0.00     0.072 C 
HETATM    7  C10 UNL     1     -34.452   5.388  17.239  1.00  0.00     0.307 C 
ENDROOT
BRANCH   7   8
HETATM    8  N1  UNL     1     -34.309   4.698  15.969  1.00  0.00    -0.042 N 
ATOM      9  H13 UNL     1     -34.911   3.878  15.892  1.00  0.00     0.277 HD
ATOM     10  H12 UNL     1     -34.696   5.223  15.186  1.00  0.00     0.277 HD
ATOM     11  H11 UNL     1     -33.320   4.477  15.849  1.00  0.00     0.277 HD
ENDBRANCH   7   8
BRANCH   7  12
HETATM   12  N2  UNL     1     -33.342   4.929  18.063  1.00  0.00    -0.042 N 
ATOM     13  H23 UNL     1     -32.849   4.132  17.661  1.00  0.00     0.277 HD
ATOM     14  H22 UNL     1     -32.556   5.579  18.073  1.00  0.00     0.277 HD
ATOM     15  H21 UNL     1     -33.717   4.740  18.993  1.00  0.00     0.277 HD
ENDBRANCH   7  12
BRANCH   1  16
HETATM   16  O1  UNL     1     -35.976   5.635  18.990  1.00  0.00    -0.377 OA
BRANCH  16  17
HETATM   17  C2  UNL     1     -36.322   4.975  20.120  1.00  0.00     0.114 C 
HETATM   18  C1  UNL     1     -37.762   4.719  20.347  1.00  0.00     0.039 C 
HETATM   19  C3  UNL     1     -35.593   3.626  20.200  1.00  0.00     0.039 C 
ENDBRANCH  16  17
ENDBRANCH   1  16
TORSDOF 4
ENDMDL
MODEL 5
REMARK VINA RESULT: -4.760108438      2.158      4.079
REMARK  4 active torsions:
REMARK  status: ('A' for Active; 'I' for Inactive)
REMARK    1  A    between atoms: C2_2  and  O1_4 
REMARK    2  A    between atoms: O1_4  and  C4_5 
REMARK    3  A    between atoms: C10_11  and  N1_12 
REMARK    4  A    between atoms: C10_11  and  N2_16 
ROOT
HETATM    1  C4  UNL     1     -35.134   5.344  15.255  1.00  0.00     0.186 C 
HETATM    2  C5  UNL     1     -34.841   6.835  15.201  1.00  0.00     0.036 C 
HETATM    3  C6  UNL     1     -36.062   7.661  15.526  1.00  0.00     0.003 C 
HETATM    4  C7  UNL     1     -36.292   7.480  17.020  1.00  0.00     0.000 C 
HETATM    5  C8  UNL     1     -37.100   6.236  17.178  1.00  0.00     0.004 C 
HETATM    6  C9  UNL     1     -36.323   5.005  17.456  1.00  0.00     0.072 C 
HETATM    7  C10 UNL     1     -35.089   4.804  16.651  1.00  0.00     0.307 C 
ENDROOT
BRANCH   7   8
HETATM    8  N1  UNL     1     -33.898   5.338  17.288  1.00  0.00    -0.042 N 
ATOM      9  H13 UNL     1     -33.289   4.611  17.665  1.00  0.00     0.277 HD
ATOM     10  H12 UNL     1     -33.236   5.736  16.623  1.00  0.00     0.277 HD
ATOM     11  H11 UNL     1     -34.202   6.008  17.995  1.00  0.00     0.277 HD
ENDBRANCH   7   8
BRANCH   7  12
HETATM   12  N2  UNL     1     -34.869   3.368  16.549  1.00  0.00    -0.042 N 
ATOM     13  H23 UNL     1     -35.667   2.818  16.867  1.00  0.00     0.277 HD
ATOM     14  H22 UNL     1     -34.854   3.033  15.586  1.00  0.00     0.277 HD
ATOM     15  H21 UNL     1     -34.011   3.158  17.059  1.00  0.00     0.277 HD
ENDBRANCH   7  12
BRANCH   1  16
HETATM   16  O1  UNL     1     -36.317   5.008  14.676  1.00  0.00    -0.377 OA
BRANCH  16  17
HETATM   17  C2  UNL     1     -36.294   4.593  13.387  1.00  0.00     0.114 C 
HETATM   18  C1  UNL     1     -35.103   3.840  12.934  1.00  0.00     0.039 C 
HETATM   19  C3  UNL     1     -37.530   3.738  13.074  1.00  0.00     0.039 C 
ENDBRANCH  16  17
ENDBRANCH   1  16
TORSDOF 4
ENDMDL
