MODEL 1
REMARK VINA RESULT: -8.575421051      0.000      0.000
REMARK  9 active torsions:
REMARK  status: ('A' for Active; 'I' for Inactive)
REMARK    1  A    between atoms: C2_2  and  C3_3 
REMARK    2  A    between atoms: C14_16  and  O3_17 
REMARK    3  A    between atoms: C17_22  and  O5_23 
REMARK    4  A    between atoms: C20_27  and  C21_28 
REMARK    5  A    between atoms: C22_29  and  C23_30 
REMARK    6  A    between atoms: C23_30  and  C24_31 
REMARK    7  A    between atoms: C24_31  and  C25_32 
REMARK    8  A    between atoms: C25_32  and  O6_33 
REMARK    9  A    between atoms: O6_33  and  C26_34 
ROOT
HETATM    1  C3  UNL     1      48.956  44.979  59.900  1.00  0.00     0.001 C 
HETATM    2  C4  UNL     1      49.028  46.363  59.302  1.00  0.00     0.022 C 
HETATM    3  C5  UNL     1      50.071  44.186  59.230  1.00  0.00     0.184 C 
HETATM    4  O1  UNL     1      50.839  43.461  60.098  1.00  0.00    -0.360 OA
HETATM    5  C6  UNL     1      52.069  44.065  60.207  1.00  0.00     0.267 A 
HETATM    6  O2  UNL     1      51.897  45.239  60.912  1.00  0.00    -0.346 OA
HETATM    7  C7  UNL     1      52.642  44.953  61.956  1.00  0.00     0.103 A 
HETATM    8  C8  UNL     1      53.985  45.707  61.657  1.00  0.00     0.050 C 
HETATM    9  C9  UNL     1      52.866  43.569  61.392  1.00  0.00     0.078 A 
HETATM   10  C10 UNL     1      52.197  42.431  62.045  1.00  0.00     0.013 C 
HETATM   11  C11 UNL     1      52.155  42.500  63.532  1.00  0.00     0.008 C 
HETATM   12  C12 UNL     1      52.933  43.708  63.905  1.00  0.00     0.022 C 
HETATM   13  C13 UNL     1      53.441  43.690  65.268  1.00  0.00     0.013 C 
HETATM   14  C14 UNL     1      52.264  45.001  63.363  1.00  0.00     0.127 C 
HETATM   15  C15 UNL     1      51.024  45.232  63.979  1.00  0.00     0.142 A 
HETATM   16  O4  UNL     1      50.823  44.488  65.250  1.00  0.00    -0.361 OA
HETATM   17  C16 UNL     1      51.155  45.749  65.446  1.00  0.00     0.191 A 
HETATM   18  C17 UNL     1      50.352  46.970  65.561  1.00  0.00     0.155 C 
HETATM   19  C18 UNL     1      50.173  47.300  64.067  1.00  0.00     0.036 C 
HETATM   20  C19 UNL     1      49.577  48.556  63.912  1.00  0.00     0.014 C 
HETATM   21  C20 UNL     1      49.776  45.943  63.586  1.00  0.00     0.081 C 
HETATM   22  C29 UNL     1      49.275  45.940  62.226  1.00  0.00     0.144 C 
HETATM   23  O7  UNL     1      49.169  47.069  61.704  1.00  0.00    -0.297 OA
HETATM   24  C30 UNL     1      48.872  44.846  61.356  1.00  0.00     0.095 C 
ENDROOT
BRANCH  21  25
HETATM   25  C21 UNL     1      48.680  45.262  64.365  1.00  0.00    -0.006 C 
HETATM   26  C22 UNL     1      47.292  45.521  64.383  1.00  0.00    -0.003 C 
BRANCH  26  27
HETATM   27  C23 UNL     1      46.687  46.819  64.780  1.00  0.00     0.002 C 
BRANCH  27  28
HETATM   28  C24 UNL     1      45.777  46.941  65.706  1.00  0.00     0.024 C 
BRANCH  28  29
HETATM   29  C25 UNL     1      44.538  46.204  65.821  1.00  0.00     0.135 C 
BRANCH  29  30
HETATM   30  O6  UNL     1      43.415  46.551  65.174  1.00  0.00    -0.359 OA
BRANCH  30  31
HETATM   31  C26 UNL     1      42.824  45.725  64.280  1.00  0.00     0.119 C 
HETATM   32  C27 UNL     1      41.642  46.524  63.630  1.00  0.00     0.039 C 
HETATM   33  C28 UNL     1      43.693  45.355  63.121  1.00  0.00     0.039 C 
ENDBRANCH  30  31
ENDBRANCH  29  30
ENDBRANCH  28  29
ENDBRANCH  27  28
ENDBRANCH  26  27
ENDBRANCH  21  25
BRANCH  14  34
HETATM   34  O3  UNL     1      53.182  45.968  63.925  1.00  0.00    -0.383 OA
ATOM     35  H3  UNL     1      53.723  45.448  64.507  1.00  0.00     0.210 HD
ENDBRANCH  14  34
BRANCH  18  36
HETATM   36  O5  UNL     1      51.085  48.084  66.045  1.00  0.00    -0.392 OA
ATOM     37  H5  UNL     1      50.558  48.695  66.546  1.00  0.00     0.210 HD
ENDBRANCH  18  36
BRANCH   1  38
HETATM   38  C2  UNL     1      47.685  44.425  59.262  1.00  0.00    -0.025 C 
HETATM   39  C1  UNL     1      46.485  44.835  59.598  1.00  0.00     0.008 C 
ENDBRANCH   1  38
TORSDOF 9
ENDMDL
MODEL 2
REMARK VINA RESULT: -8.446343615      2.256      7.567
REMARK  9 active torsions:
REMARK  status: ('A' for Active; 'I' for Inactive)
REMARK    1  A    between atoms: C2_2  and  C3_3 
REMARK    2  A    between atoms: C14_16  and  O3_17 
REMARK    3  A    between atoms: C17_22  and  O5_23 
REMARK    4  A    between atoms: C20_27  and  C21_28 
REMARK    5  A    between atoms: C22_29  and  C23_30 
REMARK    6  A    between atoms: C23_30  and  C24_31 
REMARK    7  A    between atoms: C24_31  and  C25_32 
REMARK    8  A    between atoms: C25_32  and  O6_33 
REMARK    9  A    between atoms: O6_33  and  C26_34 
ROOT
HETATM    1  C3  UNL     1      51.941  45.821  65.685  1.00  0.00     0.001 C 
HETATM    2  C4  UNL     1      53.053  46.794  65.373  1.00  0.00     0.022 C 
HETATM    3  C5  UNL     1      50.833  46.656  66.312  1.00  0.00     0.184 C 
HETATM    4  O1  UNL     1      49.589  46.405  65.803  1.00  0.00    -0.360 OA
HETATM    5  C6  UNL     1      49.210  47.471  65.022  1.00  0.00     0.267 A 
HETATM    6  O2  UNL     1      49.982  47.446  63.878  1.00  0.00    -0.346 OA
HETATM    7  C7  UNL     1      49.024  47.264  62.998  1.00  0.00     0.103 A 
HETATM    8  C8  UNL     1      48.789  48.703  62.420  1.00  0.00     0.050 C 
HETATM    9  C9  UNL     1      48.030  47.158  64.131  1.00  0.00     0.078 A 
HETATM   10  C10 UNL     1      47.464  45.834  64.442  1.00  0.00     0.013 C 
HETATM   11  C11 UNL     1      47.148  44.994  63.253  1.00  0.00     0.008 C 
HETATM   12  C12 UNL     1      47.426  45.845  62.069  1.00  0.00     0.022 C 
HETATM   13  C13 UNL     1      46.728  45.428  60.862  1.00  0.00     0.013 C 
HETATM   14  C14 UNL     1      48.930  46.222  61.983  1.00  0.00     0.127 C 
HETATM   15  C15 UNL     1      49.727  45.091  61.742  1.00  0.00     0.142 A 
HETATM   16  O4  UNL     1      48.983  43.918  61.215  1.00  0.00    -0.361 OA
HETATM   17  C16 UNL     1      49.630  44.574  60.273  1.00  0.00     0.191 A 
HETATM   18  C17 UNL     1      50.995  44.455  59.752  1.00  0.00     0.155 C 
HETATM   19  C18 UNL     1      51.741  45.310  60.792  1.00  0.00     0.036 C 
HETATM   20  C19 UNL     1      53.071  45.505  60.403  1.00  0.00     0.014 C 
HETATM   21  C20 UNL     1      51.142  44.728  62.031  1.00  0.00     0.081 C 
HETATM   22  C29 UNL     1      51.819  45.140  63.244  1.00  0.00     0.144 C 
HETATM   23  O7  UNL     1      52.840  45.836  63.065  1.00  0.00    -0.297 OA
HETATM   24  C30 UNL     1      51.515  44.884  64.644  1.00  0.00     0.095 C 
ENDROOT
BRANCH  21  25
HETATM   25  C21 UNL     1      51.146  43.223  62.119  1.00  0.00    -0.006 C 
HETATM   26  C22 UNL     1      52.221  42.337  62.347  1.00  0.00    -0.003 C 
BRANCH  26  27
HETATM   27  C23 UNL     1      53.417  42.229  61.473  1.00  0.00     0.002 C 
BRANCH  27  28
HETATM   28  C24 UNL     1      54.638  42.421  61.888  1.00  0.00     0.024 C 
BRANCH  28  29
HETATM   29  C25 UNL     1      55.120  43.496  62.727  1.00  0.00     0.135 C 
BRANCH  29  30
HETATM   30  O6  UNL     1      56.012  44.408  62.312  1.00  0.00    -0.359 OA
BRANCH  30  31
HETATM   31  C26 UNL     1      56.624  45.251  63.176  1.00  0.00     0.119 C 
HETATM   32  C27 UNL     1      56.149  46.701  62.816  1.00  0.00     0.039 C 
HETATM   33  C28 UNL     1      56.209  45.075  64.601  1.00  0.00     0.039 C 
ENDBRANCH  30  31
ENDBRANCH  29  30
ENDBRANCH  28  29
ENDBRANCH  27  28
ENDBRANCH  26  27
ENDBRANCH  21  25
BRANCH  14  34
HETATM   34  O3  UNL     1      48.893  46.963  60.741  1.00  0.00    -0.383 OA
ATOM     35  H3  UNL     1      48.867  46.284  60.078  1.00  0.00     0.210 HD
ENDBRANCH  14  34
BRANCH  18  36
HETATM   36  O5  UNL     1      51.204  45.172  58.546  1.00  0.00    -0.392 OA
ATOM     37  H5  UNL     1      50.942  44.692  57.769  1.00  0.00     0.210 HD
ENDBRANCH  18  36
BRANCH   1  38
HETATM   38  C2  UNL     1      52.523  45.047  66.865  1.00  0.00    -0.025 C 
HETATM   39  C1  UNL     1      52.431  43.743  66.972  1.00  0.00     0.008 C 
ENDBRANCH   1  38
TORSDOF 9
ENDMDL
MODEL 3
REMARK VINA RESULT: -8.060662088      2.745      6.325
REMARK  9 active torsions:
REMARK  status: ('A' for Active; 'I' for Inactive)
REMARK    1  A    between atoms: C2_2  and  C3_3 
REMARK    2  A    between atoms: C14_16  and  O3_17 
REMARK    3  A    between atoms: C17_22  and  O5_23 
REMARK    4  A    between atoms: C20_27  and  C21_28 
REMARK    5  A    between atoms: C22_29  and  C23_30 
REMARK    6  A    between atoms: C23_30  and  C24_31 
REMARK    7  A    between atoms: C24_31  and  C25_32 
REMARK    8  A    between atoms: C25_32  and  O6_33 
REMARK    9  A    between atoms: O6_33  and  C26_34 
ROOT
HETATM    1  C3  UNL     1      51.372  46.739  65.358  1.00  0.00     0.001 C 
HETATM    2  C4  UNL     1      50.860  45.535  66.111  1.00  0.00     0.022 C 
HETATM    3  C5  UNL     1      52.124  47.574  66.386  1.00  0.00     0.184 C 
HETATM    4  O1  UNL     1      53.350  48.007  65.963  1.00  0.00    -0.360 OA
HETATM    5  C6  UNL     1      54.322  47.297  66.628  1.00  0.00     0.267 A 
HETATM    6  O2  UNL     1      54.305  46.006  66.137  1.00  0.00    -0.346 OA
HETATM    7  C7  UNL     1      55.514  45.975  65.625  1.00  0.00     0.103 A 
HETATM    8  C8  UNL     1      56.344  45.207  66.713  1.00  0.00     0.050 C 
HETATM    9  C9  UNL     1      55.687  47.430  65.995  1.00  0.00     0.078 A 
HETATM   10  C10 UNL     1      55.677  48.431  64.914  1.00  0.00     0.013 C 
HETATM   11  C11 UNL     1      56.382  48.014  63.670  1.00  0.00     0.008 C 
HETATM   12  C12 UNL     1      56.988  46.693  63.969  1.00  0.00     0.022 C 
HETATM   13  C13 UNL     1      58.109  46.345  63.108  1.00  0.00     0.013 C 
HETATM   14  C14 UNL     1      55.900  45.624  64.264  1.00  0.00     0.127 C 
HETATM   15  C15 UNL     1      55.125  45.356  63.125  1.00  0.00     0.142 A 
HETATM   16  O4  UNL     1      55.745  45.790  61.846  1.00  0.00    -0.361 OA
HETATM   17  C16 UNL     1      55.877  44.496  62.061  1.00  0.00     0.191 A 
HETATM   18  C17 UNL     1      55.023  43.352  61.728  1.00  0.00     0.155 C 
HETATM   19  C18 UNL     1      54.051  43.403  62.923  1.00  0.00     0.036 C 
HETATM   20  C19 UNL     1      53.227  42.273  62.931  1.00  0.00     0.014 C 
HETATM   21  C20 UNL     1      53.739  44.863  62.894  1.00  0.00     0.081 C 
HETATM   22  C29 UNL     1      52.630  45.230  63.753  1.00  0.00     0.144 C 
HETATM   23  O7  UNL     1      52.057  44.269  64.307  1.00  0.00    -0.297 OA
HETATM   24  C30 UNL     1      52.065  46.528  64.084  1.00  0.00     0.095 C 
ENDROOT
BRANCH  21  25
HETATM   25  C21 UNL     1      53.345  45.427  61.552  1.00  0.00    -0.006 C 
HETATM   26  C22 UNL     1      52.126  45.311  60.849  1.00  0.00    -0.003 C 
BRANCH  26  27
HETATM   27  C23 UNL     1      51.527  44.022  60.418  1.00  0.00     0.002 C 
BRANCH  27  28
HETATM   28  C24 UNL     1      50.463  43.932  59.669  1.00  0.00     0.024 C 
BRANCH  28  29
HETATM   29  C25 UNL     1      49.207  44.627  59.843  1.00  0.00     0.135 C 
BRANCH  29  30
HETATM   30  O6  UNL     1      48.294  44.276  60.760  1.00  0.00    -0.359 OA
BRANCH  30  31
HETATM   31  C26 UNL     1      48.070  45.023  61.866  1.00  0.00     0.119 C 
HETATM   32  C27 UNL     1      48.822  44.325  63.051  1.00  0.00     0.039 C 
HETATM   33  C28 UNL     1      48.668  46.392  61.811  1.00  0.00     0.039 C 
ENDBRANCH  30  31
ENDBRANCH  29  30
ENDBRANCH  28  29
ENDBRANCH  27  28
ENDBRANCH  26  27
ENDBRANCH  21  25
BRANCH  14  34
HETATM   34  O3  UNL     1      56.767  44.480  64.444  1.00  0.00    -0.383 OA
ATOM     35  H3  UNL     1      57.274  44.706  65.214  1.00  0.00     0.210 HD
ENDBRANCH  14  34
BRANCH  18  36
HETATM   36  O5  UNL     1      55.665  42.099  61.897  1.00  0.00    -0.392 OA
ATOM     37  H5  UNL     1      55.251  41.393  61.415  1.00  0.00     0.210 HD
ENDBRANCH  18  36
BRANCH   1  38
HETATM   38  C2  UNL     1      50.089  47.530  65.118  1.00  0.00    -0.025 C 
HETATM   39  C1  UNL     1      48.924  47.152  65.587  1.00  0.00     0.008 C 
ENDBRANCH   1  38
TORSDOF 9
ENDMDL
MODEL 4
REMARK VINA RESULT: -8.054216630      2.159      3.846
REMARK  9 active torsions:
REMARK  status: ('A' for Active; 'I' for Inactive)
REMARK    1  A    between atoms: C2_2  and  C3_3 
REMARK    2  A    between atoms: C14_16  and  O3_17 
REMARK    3  A    between atoms: C17_22  and  O5_23 
REMARK    4  A    between atoms: C20_27  and  C21_28 
REMARK    5  A    between atoms: C22_29  and  C23_30 
REMARK    6  A    between atoms: C23_30  and  C24_31 
REMARK    7  A    between atoms: C24_31  and  C25_32 
REMARK    8  A    between atoms: C25_32  and  O6_33 
REMARK    9  A    between atoms: O6_33  and  C26_34 
ROOT
HETATM    1  C3  UNL     1      48.822  45.493  63.043  1.00  0.00     0.001 C 
HETATM    2  C4  UNL     1      48.686  46.987  62.882  1.00  0.00     0.022 C 
HETATM    3  C5  UNL     1      48.662  44.916  61.643  1.00  0.00     0.184 C 
HETATM    4  O1  UNL     1      49.607  43.985  61.312  1.00  0.00    -0.360 OA
HETATM    5  C6  UNL     1      50.471  44.540  60.398  1.00  0.00     0.267 A 
HETATM    6  O2  UNL     1      51.235  45.479  61.063  1.00  0.00    -0.346 OA
HETATM    7  C7  UNL     1      52.415  44.922  60.902  1.00  0.00     0.103 A 
HETATM    8  C8  UNL     1      53.035  45.733  59.711  1.00  0.00     0.050 C 
HETATM    9  C9  UNL     1      51.745  43.744  60.233  1.00  0.00     0.078 A 
HETATM   10  C10 UNL     1      51.676  42.469  60.967  1.00  0.00     0.013 C 
HETATM   11  C11 UNL     1      52.898  42.132  61.750  1.00  0.00     0.008 C 
HETATM   12  C12 UNL     1      53.885  43.197  61.441  1.00  0.00     0.022 C 
HETATM   13  C13 UNL     1      55.268  42.811  61.680  1.00  0.00     0.013 C 
HETATM   14  C14 UNL     1      53.392  44.586  61.930  1.00  0.00     0.127 C 
HETATM   15  C15 UNL     1      53.313  44.637  63.331  1.00  0.00     0.142 A 
HETATM   16  O4  UNL     1      54.086  43.576  64.027  1.00  0.00    -0.361 OA
HETATM   17  C16 UNL     1      54.710  44.737  64.020  1.00  0.00     0.191 A 
HETATM   18  C17 UNL     1      54.672  45.878  64.938  1.00  0.00     0.155 C 
HETATM   19  C18 UNL     1      53.424  46.600  64.399  1.00  0.00     0.036 C 
HETATM   20  C19 UNL     1      53.277  47.850  65.011  1.00  0.00     0.014 C 
HETATM   21  C20 UNL     1      52.508  45.423  64.306  1.00  0.00     0.081 C 
HETATM   22  C29 UNL     1      51.127  45.788  64.060  1.00  0.00     0.144 C 
HETATM   23  O7  UNL     1      50.903  47.016  64.053  1.00  0.00    -0.297 OA
HETATM   24  C30 UNL     1      49.950  44.970  63.818  1.00  0.00     0.095 C 
ENDROOT
BRANCH  21  25
HETATM   25  C21 UNL     1      52.429  44.553  65.535  1.00  0.00    -0.006 C 
HETATM   26  C22 UNL     1      51.658  44.717  66.706  1.00  0.00    -0.003 C 
BRANCH  26  27
HETATM   27  C23 UNL     1      51.754  45.888  67.615  1.00  0.00     0.002 C 
BRANCH  27  28
HETATM   28  C24 UNL     1      50.723  46.578  68.020  1.00  0.00     0.024 C 
BRANCH  28  29
HETATM   29  C25 UNL     1      49.953  47.534  67.256  1.00  0.00     0.135 C 
BRANCH  29  30
HETATM   30  O6  UNL     1      48.782  47.237  66.675  1.00  0.00    -0.359 OA
BRANCH  30  31
HETATM   31  C26 UNL     1      47.778  48.141  66.589  1.00  0.00     0.119 C 
HETATM   32  C27 UNL     1      46.440  47.332  66.479  1.00  0.00     0.039 C 
HETATM   33  C28 UNL     1      47.600  48.975  67.816  1.00  0.00     0.039 C 
ENDBRANCH  30  31
ENDBRANCH  29  30
ENDBRANCH  28  29
ENDBRANCH  27  28
ENDBRANCH  26  27
ENDBRANCH  21  25
BRANCH  14  34
HETATM   34  O3  UNL     1      54.552  45.367  61.561  1.00  0.00    -0.383 OA
ATOM     35  H3  UNL     1      54.845  45.732  62.387  1.00  0.00     0.210 HD
ENDBRANCH  14  34
BRANCH  18  36
HETATM   36  O5  UNL     1      55.706  46.822  64.710  1.00  0.00    -0.392 OA
ATOM     37  H5  UNL     1      55.919  47.343  65.475  1.00  0.00     0.210 HD
ENDBRANCH  18  36
BRANCH   1  38
HETATM   38  C2  UNL     1      47.512  45.129  63.736  1.00  0.00    -0.025 C 
HETATM   39  C1  UNL     1      46.338  45.460  63.254  1.00  0.00     0.008 C 
ENDBRANCH   1  38
TORSDOF 9
ENDMDL
MODEL 5
REMARK VINA RESULT: -8.042193848      0.936      1.725
REMARK  9 active torsions:
REMARK  status: ('A' for Active; 'I' for Inactive)
REMARK    1  A    between atoms: C2_2  and  C3_3 
REMARK    2  A    between atoms: C14_16  and  O3_17 
REMARK    3  A    between atoms: C17_22  and  O5_23 
REMARK    4  A    between atoms: C20_27  and  C21_28 
REMARK    5  A    between atoms: C22_29  and  C23_30 
REMARK    6  A    between atoms: C23_30  and  C24_31 
REMARK    7  A    between atoms: C24_31  and  C25_32 
REMARK    8  A    between atoms: C25_32  and  O6_33 
REMARK    9  A    between atoms: O6_33  and  C26_34 
ROOT
HETATM    1  C3  UNL     1      48.974  44.970  59.934  1.00  0.00     0.001 C 
HETATM    2  C4  UNL     1      49.040  46.350  59.326  1.00  0.00     0.022 C 
HETATM    3  C5  UNL     1      50.089  44.176  59.267  1.00  0.00     0.184 C 
HETATM    4  O1  UNL     1      50.863  43.460  60.138  1.00  0.00    -0.360 OA
HETATM    5  C6  UNL     1      52.092  44.068  60.238  1.00  0.00     0.267 A 
HETATM    6  O2  UNL     1      51.918  45.247  60.935  1.00  0.00    -0.346 OA
HETATM    7  C7  UNL     1      52.666  44.970  61.979  1.00  0.00     0.103 A 
HETATM    8  C8  UNL     1      54.006  45.726  61.671  1.00  0.00     0.050 C 
HETATM    9  C9  UNL     1      52.893  43.583  61.424  1.00  0.00     0.078 A 
HETATM   10  C10 UNL     1      52.230  42.448  62.087  1.00  0.00     0.013 C 
HETATM   11  C11 UNL     1      52.193  42.527  63.575  1.00  0.00     0.008 C 
HETATM   12  C12 UNL     1      52.967  43.741  63.936  1.00  0.00     0.022 C 
HETATM   13  C13 UNL     1      53.480  43.734  65.298  1.00  0.00     0.013 C 
HETATM   14  C14 UNL     1      52.293  45.028  63.387  1.00  0.00     0.127 C 
HETATM   15  C15 UNL     1      51.054  45.259  64.005  1.00  0.00     0.142 A 
HETATM   16  O4  UNL     1      50.860  44.524  65.282  1.00  0.00    -0.361 OA
HETATM   17  C16 UNL     1      51.188  45.787  65.468  1.00  0.00     0.191 A 
HETATM   18  C17 UNL     1      50.382  47.006  65.577  1.00  0.00     0.155 C 
HETATM   19  C18 UNL     1      50.197  47.325  64.081  1.00  0.00     0.036 C 
HETATM   20  C19 UNL     1      49.596  48.578  63.918  1.00  0.00     0.014 C 
HETATM   21  C20 UNL     1      49.802  45.963  63.611  1.00  0.00     0.081 C 
HETATM   22  C29 UNL     1      49.298  45.949  62.252  1.00  0.00     0.144 C 
HETATM   23  O7  UNL     1      49.187  47.074  61.723  1.00  0.00    -0.297 OA
HETATM   24  C30 UNL     1      48.895  44.847  61.392  1.00  0.00     0.095 C 
ENDROOT
BRANCH  21  25
HETATM   25  C21 UNL     1      48.711  45.284  64.399  1.00  0.00    -0.006 C 
HETATM   26  C22 UNL     1      47.331  45.177  64.118  1.00  0.00    -0.003 C 
BRANCH  26  27
HETATM   27  C23 UNL     1      46.415  46.335  63.960  1.00  0.00     0.002 C 
BRANCH  27  28
HETATM   28  C24 UNL     1      45.161  46.321  64.316  1.00  0.00     0.024 C 
BRANCH  28  29
HETATM   29  C25 UNL     1      44.632  46.335  65.662  1.00  0.00     0.135 C 
BRANCH  29  30
HETATM   30  O6  UNL     1      45.404  46.431  66.754  1.00  0.00    -0.359 OA
BRANCH  30  31
HETATM   31  C26 UNL     1      45.753  47.628  67.279  1.00  0.00     0.119 C 
HETATM   32  C27 UNL     1      45.588  47.513  68.833  1.00  0.00     0.039 C 
HETATM   33  C28 UNL     1      47.193  47.983  67.090  1.00  0.00     0.039 C 
ENDBRANCH  30  31
ENDBRANCH  29  30
ENDBRANCH  28  29
ENDBRANCH  27  28
ENDBRANCH  26  27
ENDBRANCH  21  25
BRANCH  14  34
HETATM   34  O3  UNL     1      53.209  46.002  63.939  1.00  0.00    -0.383 OA
ATOM     35  H3  UNL     1      53.690  46.308  63.180  1.00  0.00     0.210 HD
ENDBRANCH  14  34
BRANCH  18  36
HETATM   36  O5  UNL     1      51.112  48.127  66.050  1.00  0.00    -0.392 OA
ATOM     37  H5  UNL     1      50.782  48.476  66.869  1.00  0.00     0.210 HD
ENDBRANCH  18  36
BRANCH   1  38
HETATM   38  C2  UNL     1      47.703  44.408  59.304  1.00  0.00    -0.025 C 
HETATM   39  C1  UNL     1      46.504  44.828  59.628  1.00  0.00     0.008 C 
ENDBRANCH   1  38
TORSDOF 9
ENDMDL
