MODEL 1
REMARK VINA RESULT: -6.429268038      0.000      0.000
REMARK  5 active torsions:
REMARK  status: ('A' for Active; 'I' for Inactive)
REMARK    1  A    between atoms: N1_3  and  C3_5 
REMARK    2  A    between atoms: C4_6  and  C5_7 
REMARK    3  A    between atoms: C7_11  and  N2_12 
REMARK       I    between atoms: N2_12  and  C8_14 
REMARK       I    between atoms: C8_14  and  N3_16 
REMARK    4  A    between atoms: N3_16  and  N4_18 
REMARK    5  A    between atoms: C9_23  and  C10_24 
ROOT
HETATM    1  C1  UNL     1       4.242  20.443  20.286  1.00  0.00     0.037 C 
HETATM    2  C2  UNL     1       3.239  19.781  20.308  1.00  0.00    -0.005 C 
HETATM    3  N1  UNL     1       2.082  18.994  20.336  1.00  0.00    -0.345 N 
ATOM      4  H1  UNL     1       2.009  18.238  21.018  1.00  0.00     0.170 HD
ENDROOT
BRANCH   3   5
HETATM    5  C3  UNL     1       0.984  19.229  19.418  1.00  0.00     0.111 C 
HETATM    6  C4  UNL     1      -0.326  19.084  20.194  1.00  0.00     0.112 C 
HETATM    7  C6  UNL     1      -0.560  17.611  20.121  1.00  0.00     0.043 C 
HETATM    8  C7  UNL     1      -0.317  17.339  18.630  1.00  0.00     0.093 C 
HETATM    9  C9  UNL     1       0.896  18.208  18.356  1.00  0.00     0.036 C 
BRANCH   6  10
HETATM   10  C5  UNL     1      -0.216  19.611  21.548  1.00  0.00     0.179 C 
HETATM   11  O1  UNL     1      -0.213  20.836  21.750  1.00  0.00    -0.648 OA
HETATM   12  O2  UNL     1      -0.115  18.748  22.622  1.00  0.00    -0.648 OA
ENDBRANCH   6  10
BRANCH   8  13
HETATM   13  N2  UNL     1      -0.036  15.934  18.468  1.00  0.00    -0.337 N 
HETATM   14  C8  UNL     1      -0.982  15.118  17.796  1.00  0.00     0.336 C 
HETATM   15  O3  UNL     1      -2.063  15.584  17.336  1.00  0.00    -0.246 OA
HETATM   16  N3  UNL     1      -0.730  13.741  17.625  1.00  0.00    -0.237 N 
ATOM     17  H3  UNL     1       0.132  13.331  17.984  1.00  0.00     0.193 HD
ATOM     18  H2  UNL     1       0.829  15.533  18.830  1.00  0.00     0.164 HD
BRANCH  16  19
HETATM   19  N4  UNL     1      -1.658  12.949  16.968  1.00  0.00    -0.245 N 
HETATM   20  N5  UNL     1      -1.706  12.878  15.705  1.00  0.00    -0.331 N 
ATOM     21  H52 UNL     1      -1.035  13.427  15.169  1.00  0.00     0.178 HD
ATOM     22  H51 UNL     1      -2.389  12.294  15.221  1.00  0.00     0.178 HD
ATOM     23  H4  UNL     1      -2.321  12.405  17.520  1.00  0.00     0.208 HD
ENDBRANCH  16  19
ENDBRANCH   8  13
BRANCH   9  24
HETATM   24  C10 UNL     1       0.822  18.710  16.956  1.00  0.00    -0.015 C 
HETATM   25  C11 UNL     1      -0.451  19.459  16.654  1.00  0.00     0.010 C 
HETATM   26  C12 UNL     1       1.980  19.544  16.522  1.00  0.00     0.010 C 
ENDBRANCH   9  24
ENDBRANCH   3   5
TORSDOF 5
ENDMDL
MODEL 2
REMARK VINA RESULT: -5.709706041      3.950      5.576
REMARK  5 active torsions:
REMARK  status: ('A' for Active; 'I' for Inactive)
REMARK    1  A    between atoms: N1_3  and  C3_5 
REMARK    2  A    between atoms: C4_6  and  C5_7 
REMARK    3  A    between atoms: C7_11  and  N2_12 
REMARK       I    between atoms: N2_12  and  C8_14 
REMARK       I    between atoms: C8_14  and  N3_16 
REMARK    4  A    between atoms: N3_16  and  N4_18 
REMARK    5  A    between atoms: C9_23  and  C10_24 
ROOT
HETATM    1  C1  UNL     1       6.443  19.607  13.834  1.00  0.00     0.037 C 
HETATM    2  C2  UNL     1       5.921  20.368  14.603  1.00  0.00    -0.005 C 
HETATM    3  N1  UNL     1       5.322  21.248  15.513  1.00  0.00    -0.345 N 
ATOM      4  H1  UNL     1       5.903  21.717  16.209  1.00  0.00     0.170 HD
ENDROOT
BRANCH   3   5
HETATM    5  C3  UNL     1       3.895  21.507  15.490  1.00  0.00     0.111 C 
HETATM    6  C4  UNL     1       3.566  22.466  16.634  1.00  0.00     0.112 C 
HETATM    7  C6  UNL     1       3.392  21.524  17.780  1.00  0.00     0.043 C 
HETATM    8  C7  UNL     1       2.481  20.457  17.156  1.00  0.00     0.093 C 
HETATM    9  C9  UNL     1       3.090  20.304  15.776  1.00  0.00     0.036 C 
BRANCH   6  10
HETATM   10  C5  UNL     1       4.613  23.462  16.827  1.00  0.00     0.179 C 
HETATM   11  O1  UNL     1       5.236  23.523  17.898  1.00  0.00    -0.648 OA
HETATM   12  O2  UNL     1       4.920  24.349  15.814  1.00  0.00    -0.648 OA
ENDBRANCH   6  10
BRANCH   8  13
HETATM   13  N2  UNL     1       2.592  19.253  17.944  1.00  0.00    -0.337 N 
HETATM   14  C8  UNL     1       1.410  18.554  18.299  1.00  0.00     0.336 C 
HETATM   15  O3  UNL     1       0.263  18.952  17.948  1.00  0.00    -0.246 OA
HETATM   16  N3  UNL     1       1.493  17.375  19.068  1.00  0.00    -0.237 N 
ATOM     17  H3  UNL     1       2.402  17.024  19.369  1.00  0.00     0.193 HD
ATOM     18  H2  UNL     1       3.506  18.910  18.240  1.00  0.00     0.164 HD
BRANCH  16  19
HETATM   19  N4  UNL     1       0.335  16.695  19.412  1.00  0.00    -0.245 N 
HETATM   20  N5  UNL     1      -0.171  15.809  18.664  1.00  0.00    -0.331 N 
ATOM     21  H52 UNL     1       0.299  15.601  17.783  1.00  0.00     0.178 HD
ATOM     22  H51 UNL     1      -1.023  15.309  18.918  1.00  0.00     0.178 HD
ATOM     23  H4  UNL     1      -0.122  16.916  20.296  1.00  0.00     0.208 HD
ENDBRANCH  16  19
ENDBRANCH   8  13
BRANCH   9  24
HETATM   24  C10 UNL     1       2.006  19.984  14.804  1.00  0.00    -0.015 C 
HETATM   25  C11 UNL     1       0.691  20.642  15.134  1.00  0.00     0.010 C 
HETATM   26  C12 UNL     1       2.336  20.264  13.377  1.00  0.00     0.010 C 
ENDBRANCH   9  24
ENDBRANCH   3   5
TORSDOF 5
ENDMDL
MODEL 3
REMARK VINA RESULT: -5.665516208      6.629      8.782
REMARK  5 active torsions:
REMARK  status: ('A' for Active; 'I' for Inactive)
REMARK    1  A    between atoms: N1_3  and  C3_5 
REMARK    2  A    between atoms: C4_6  and  C5_7 
REMARK    3  A    between atoms: C7_11  and  N2_12 
REMARK       I    between atoms: N2_12  and  C8_14 
REMARK       I    between atoms: C8_14  and  N3_16 
REMARK    4  A    between atoms: N3_16  and  N4_18 
REMARK    5  A    between atoms: C9_23  and  C10_24 
ROOT
HETATM    1  C1  UNL     1       0.605  18.884  17.012  1.00  0.00     0.037 C 
HETATM    2  C2  UNL     1       1.208  19.230  16.032  1.00  0.00    -0.005 C 
HETATM    3  N1  UNL     1       1.918  19.615  14.888  1.00  0.00    -0.345 N 
ATOM      4  H1  UNL     1       1.905  19.010  14.066  1.00  0.00     0.170 HD
ENDROOT
BRANCH   3   5
HETATM    5  C3  UNL     1       2.671  20.854  14.846  1.00  0.00     0.111 C 
HETATM    6  C4  UNL     1       2.459  21.493  13.473  1.00  0.00     0.112 C 
HETATM    7  C6  UNL     1       3.506  20.810  12.655  1.00  0.00     0.043 C 
HETATM    8  C7  UNL     1       4.732  20.935  13.570  1.00  0.00     0.093 C 
HETATM    9  C9  UNL     1       4.129  20.641  14.930  1.00  0.00     0.036 C 
BRANCH   6  10
HETATM   10  C5  UNL     1       1.097  21.303  12.990  1.00  0.00     0.179 C 
HETATM   11  O1  UNL     1       0.875  20.603  11.990  1.00  0.00    -0.648 OA
HETATM   12  O2  UNL     1       0.040  21.904  13.644  1.00  0.00    -0.648 OA
ENDBRANCH   6  10
BRANCH   8  13
HETATM   13  N2  UNL     1       5.697  19.940  13.169  1.00  0.00    -0.337 N 
HETATM   14  C8  UNL     1       6.970  20.365  12.710  1.00  0.00     0.336 C 
HETATM   15  O3  UNL     1       7.285  21.586  12.641  1.00  0.00    -0.246 OA
HETATM   16  N3  UNL     1       7.929  19.410  12.313  1.00  0.00    -0.237 N 
ATOM     17  H3  UNL     1       7.709  18.415  12.354  1.00  0.00     0.193 HD
ATOM     18  H2  UNL     1       5.466  18.947  13.215  1.00  0.00     0.164 HD
BRANCH  16  19
HETATM   19  N4  UNL     1       9.172  19.830  11.865  1.00  0.00    -0.245 N 
HETATM   20  N5  UNL     1      10.191  19.081  11.911  1.00  0.00    -0.331 N 
ATOM     21  H52 UNL     1      10.077  18.142  12.292  1.00  0.00     0.178 HD
ATOM     22  H51 UNL     1      11.105  19.390  11.581  1.00  0.00     0.178 HD
ATOM     23  H4  UNL     1       9.267  20.772  11.487  1.00  0.00     0.208 HD
ENDBRANCH  16  19
ENDBRANCH   8  13
BRANCH   9  24
HETATM   24  C10 UNL     1       4.857  21.434  15.961  1.00  0.00    -0.015 C 
HETATM   25  C11 UNL     1       5.236  22.817  15.497  1.00  0.00     0.010 C 
HETATM   26  C12 UNL     1       4.164  21.546  17.277  1.00  0.00     0.010 C 
ENDBRANCH   9  24
ENDBRANCH   3   5
TORSDOF 5
ENDMDL
MODEL 4
REMARK VINA RESULT: -5.622583344      2.483      3.683
REMARK  5 active torsions:
REMARK  status: ('A' for Active; 'I' for Inactive)
REMARK    1  A    between atoms: N1_3  and  C3_5 
REMARK    2  A    between atoms: C4_6  and  C5_7 
REMARK    3  A    between atoms: C7_11  and  N2_12 
REMARK       I    between atoms: N2_12  and  C8_14 
REMARK       I    between atoms: C8_14  and  N3_16 
REMARK    4  A    between atoms: N3_16  and  N4_18 
REMARK    5  A    between atoms: C9_23  and  C10_24 
ROOT
HETATM    1  C1  UNL     1       3.222  20.023  15.001  1.00  0.00     0.037 C 
HETATM    2  C2  UNL     1       3.347  20.410  16.132  1.00  0.00    -0.005 C 
HETATM    3  N1  UNL     1       3.506  20.848  17.452  1.00  0.00    -0.345 N 
ATOM      4  H1  UNL     1       4.443  21.056  17.799  1.00  0.00     0.170 HD
ENDROOT
BRANCH   3   5
HETATM    5  C3  UNL     1       2.369  21.013  18.337  1.00  0.00     0.111 C 
HETATM    6  C4  UNL     1       2.844  20.776  19.771  1.00  0.00     0.112 C 
HETATM    7  C6  UNL     1       2.737  19.291  19.885  1.00  0.00     0.043 C 
HETATM    8  C7  UNL     1       1.337  19.045  19.306  1.00  0.00     0.093 C 
HETATM    9  C9  UNL     1       1.324  19.994  18.124  1.00  0.00     0.036 C 
BRANCH   6  10
HETATM   10  C5  UNL     1       4.185  21.303  19.994  1.00  0.00     0.179 C 
HETATM   11  O1  UNL     1       5.007  20.669  20.674  1.00  0.00    -0.648 OA
HETATM   12  O2  UNL     1       4.552  22.517  19.447  1.00  0.00    -0.648 OA
ENDBRANCH   6  10
BRANCH   8  13
HETATM   13  N2  UNL     1       1.252  17.662  18.903  1.00  0.00    -0.337 N 
HETATM   14  C8  UNL     1       0.016  16.980  19.046  1.00  0.00     0.336 C 
HETATM   15  O3  UNL     1      -1.012  17.545  19.514  1.00  0.00    -0.246 OA
HETATM   16  N3  UNL     1      -0.091  15.628  18.659  1.00  0.00    -0.237 N 
ATOM     17  H3  UNL     1       0.719  15.140  18.277  1.00  0.00     0.193 HD
ATOM     18  H2  UNL     1       2.068  17.183  18.522  1.00  0.00     0.164 HD
BRANCH  16  19
HETATM   19  N4  UNL     1      -1.300  14.967  18.799  1.00  0.00    -0.245 N 
HETATM   20  N5  UNL     1      -1.367  13.760  19.175  1.00  0.00    -0.331 N 
ATOM     21  H52 UNL     1      -0.493  13.274  19.377  1.00  0.00     0.178 HD
ATOM     22  H51 UNL     1      -2.257  13.273  19.279  1.00  0.00     0.178 HD
ATOM     23  H4  UNL     1      -2.164  15.468  18.593  1.00  0.00     0.208 HD
ENDBRANCH  16  19
ENDBRANCH   8  13
BRANCH   9  24
HETATM   24  C10 UNL     1      -0.064  20.498  17.926  1.00  0.00    -0.015 C 
HETATM   25  C11 UNL     1      -0.692  21.037  19.186  1.00  0.00     0.010 C 
HETATM   26  C12 UNL     1      -0.219  21.512  16.844  1.00  0.00     0.010 C 
ENDBRANCH   9  24
ENDBRANCH   3   5
TORSDOF 5
ENDMDL
MODEL 5
REMARK VINA RESULT: -5.583253170      5.264      7.502
REMARK  5 active torsions:
REMARK  status: ('A' for Active; 'I' for Inactive)
REMARK    1  A    between atoms: N1_3  and  C3_5 
REMARK    2  A    between atoms: C4_6  and  C5_7 
REMARK    3  A    between atoms: C7_11  and  N2_12 
REMARK       I    between atoms: N2_12  and  C8_14 
REMARK       I    between atoms: C8_14  and  N3_16 
REMARK    4  A    between atoms: N3_16  and  N4_18 
REMARK    5  A    between atoms: C9_23  and  C10_24 
ROOT
HETATM    1  C1  UNL     1      -3.870  21.987  25.325  1.00  0.00     0.037 C 
HETATM    2  C2  UNL     1      -3.198  21.292  26.040  1.00  0.00    -0.005 C 
HETATM    3  N1  UNL     1      -2.400  20.494  26.868  1.00  0.00    -0.345 N 
ATOM      4  H1  UNL     1      -1.744  20.940  27.510  1.00  0.00     0.170 HD
ENDROOT
BRANCH   3   5
HETATM    5  C3  UNL     1      -2.484  19.046  26.833  1.00  0.00     0.111 C 
HETATM    6  C4  UNL     1      -1.129  18.480  27.258  1.00  0.00     0.112 C 
HETATM    7  C6  UNL     1      -0.380  18.482  25.966  1.00  0.00     0.043 C 
HETATM    8  C7  UNL     1      -1.409  17.848  25.020  1.00  0.00     0.093 C 
HETATM    9  C9  UNL     1      -2.693  18.517  25.471  1.00  0.00     0.036 C 
BRANCH   6  10
HETATM   10  C5  UNL     1      -0.514  19.275  28.313  1.00  0.00     0.179 C 
HETATM   11  O1  UNL     1       0.630  19.733  28.172  1.00  0.00    -0.648 OA
HETATM   12  O2  UNL     1      -1.204  19.527  29.482  1.00  0.00    -0.648 OA
ENDBRANCH   6  10
BRANCH   8  13
HETATM   13  N2  UNL     1      -1.053  18.197  23.666  1.00  0.00    -0.337 N 
HETATM   14  C8  UNL     1      -1.336  17.278  22.623  1.00  0.00     0.336 C 
HETATM   15  O3  UNL     1      -1.890  16.164  22.842  1.00  0.00    -0.246 OA
HETATM   16  N3  UNL     1      -0.997  17.598  21.292  1.00  0.00    -0.237 N 
ATOM     17  H3  UNL     1      -0.548  18.488  21.078  1.00  0.00     0.193 HD
ATOM     18  H2  UNL     1      -0.605  19.090  23.463  1.00  0.00     0.164 HD
BRANCH  16  19
HETATM   19  N4  UNL     1      -1.276  16.697  20.276  1.00  0.00    -0.245 N 
HETATM   20  N5  UNL     1      -0.471  16.488  19.323  1.00  0.00    -0.331 N 
ATOM     21  H52 UNL     1       0.407  17.007  19.317  1.00  0.00     0.178 HD
ATOM     22  H51 UNL     1      -0.676  15.825  18.576  1.00  0.00     0.178 HD
ATOM     23  H4  UNL     1      -2.159  16.186  20.299  1.00  0.00     0.208 HD
ENDBRANCH  16  19
ENDBRANCH   8  13
BRANCH   9  24
HETATM   24  C10 UNL     1      -3.822  17.560  25.297  1.00  0.00    -0.015 C 
HETATM   25  C11 UNL     1      -4.577  17.283  26.572  1.00  0.00     0.010 C 
HETATM   26  C12 UNL     1      -4.801  17.927  24.233  1.00  0.00     0.010 C 
ENDBRANCH   9  24
ENDBRANCH   3   5
TORSDOF 5
ENDMDL
