MODEL 1
REMARK VINA RESULT: -6.339449839      0.000      0.000
REMARK  10 active torsions:
REMARK  status: ('A' for Active; 'I' for Inactive)
REMARK    1  A    between atoms: C2_2  and  C3_3 
REMARK    2  A    between atoms: C3_3  and  N1_4 
REMARK    3  A    between atoms: N1_4  and  C4_6 
REMARK    4  A    between atoms: C4_6  and  C5_7 
REMARK    5  A    between atoms: C4_6  and  C8_10 
REMARK    6  A    between atoms: C8_10  and  N2_11 
REMARK    7  A    between atoms: C8_10  and  C11_23 
REMARK       I    between atoms: N2_11  and  C9_13 
REMARK    8  A    between atoms: C9_13  and  C10_15 
REMARK    9  A    between atoms: C10_15  and  N3_16 
REMARK   10  A    between atoms: N3_16  and  N4_18 
REMARK       I    between atoms: C11_23  and  N6_25 
ROOT
HETATM    1  C8  UNL     1     -10.276  23.196  49.202  1.00  0.00     0.199 C 
ENDROOT
BRANCH   1   2
HETATM    2  C4  UNL     1     -11.472  23.717  49.945  1.00  0.00     0.116 C 
BRANCH   2   3
HETATM    3  N1  UNL     1     -12.650  23.311  49.302  1.00  0.00    -0.395 N 
ATOM      4  H1  UNL     1     -12.911  22.326  49.354  1.00  0.00     0.159 HD
BRANCH   3   5
HETATM    5  C3  UNL     1     -13.484  24.171  48.598  1.00  0.00     0.055 C 
BRANCH   5   6
HETATM    6  C2  UNL     1     -13.226  25.651  48.708  1.00  0.00     0.039 C 
HETATM    7  C1  UNL     1     -14.289  26.207  49.656  1.00  0.00     0.010 C 
ENDBRANCH   5   6
ENDBRANCH   3   5
ENDBRANCH   2   3
BRANCH   2   8
HETATM    8  C5  UNL     1     -11.339  23.484  51.416  1.00  0.00     0.003 C 
HETATM    9  C6  UNL     1     -12.374  24.088  52.298  1.00  0.00     0.011 C 
HETATM   10  C7  UNL     1      -9.950  23.769  51.974  1.00  0.00     0.011 C 
ENDBRANCH   2   8
ENDBRANCH   1   2
BRANCH   1  11
HETATM   11  N2  UNL     1     -10.497  21.757  48.982  1.00  0.00    -0.344 N 
HETATM   12  C9  UNL     1      -9.606  20.782  49.463  1.00  0.00     0.237 C 
HETATM   13  O1  UNL     1      -8.567  21.135  50.111  1.00  0.00    -0.272 OA
ATOM     14  H2  UNL     1     -11.323  21.459  48.464  1.00  0.00     0.163 HD
BRANCH  12  15
HETATM   15  C10 UNL     1      -9.836  19.332  49.239  1.00  0.00     0.243 C 
BRANCH  15  16
HETATM   16  N3  UNL     1      -8.866  18.537  49.960  1.00  0.00    -0.314 N 
ATOM     17  H3  UNL     1      -7.869  18.742  49.896  1.00  0.00     0.182 HD
BRANCH  16  18
HETATM   18  N4  UNL     1      -9.327  17.490  50.740  1.00  0.00    -0.253 N 
HETATM   19  N5  UNL     1      -8.599  16.942  51.621  1.00  0.00    -0.331 N 
ATOM     20  H52 UNL     1      -7.649  17.294  51.745  1.00  0.00     0.178 HD
ATOM     21  H51 UNL     1      -8.938  16.171  52.195  1.00  0.00     0.178 HD
ATOM     22  H4  UNL     1     -10.278  17.150  50.602  1.00  0.00     0.207 HD
ENDBRANCH  16  18
ENDBRANCH  15  16
ENDBRANCH  12  15
ENDBRANCH   1  11
BRANCH   1  23
HETATM   23  C11 UNL     1     -10.056  23.854  47.898  1.00  0.00     0.244 C 
HETATM   24  O2  UNL     1     -10.375  23.239  46.860  1.00  0.00    -0.271 OA
HETATM   25  N6  UNL     1      -9.503  25.133  47.793  1.00  0.00    -0.350 N 
HETATM   26  C12 UNL     1      -9.050  25.958  48.911  1.00  0.00     0.126 C 
HETATM   27  C16 UNL     1      -9.351  25.711  46.454  1.00  0.00     0.126 C 
HETATM   28  C13 UNL     1      -7.803  26.699  48.445  1.00  0.00     0.020 C 
HETATM   29  C14 UNL     1      -8.191  27.710  47.375  1.00  0.00     0.003 C 
HETATM   30  C15 UNL     1      -9.401  27.212  46.599  1.00  0.00     0.020 C 
ENDBRANCH   1  23
TORSDOF 10
ENDMDL
MODEL 2
REMARK VINA RESULT: -6.096025415      2.248      5.880
REMARK  10 active torsions:
REMARK  status: ('A' for Active; 'I' for Inactive)
REMARK    1  A    between atoms: C2_2  and  C3_3 
REMARK    2  A    between atoms: C3_3  and  N1_4 
REMARK    3  A    between atoms: N1_4  and  C4_6 
REMARK    4  A    between atoms: C4_6  and  C5_7 
REMARK    5  A    between atoms: C4_6  and  C8_10 
REMARK    6  A    between atoms: C8_10  and  N2_11 
REMARK    7  A    between atoms: C8_10  and  C11_23 
REMARK       I    between atoms: N2_11  and  C9_13 
REMARK    8  A    between atoms: C9_13  and  C10_15 
REMARK    9  A    between atoms: C10_15  and  N3_16 
REMARK   10  A    between atoms: N3_16  and  N4_18 
REMARK       I    between atoms: C11_23  and  N6_25 
ROOT
HETATM    1  C8  UNL     1     -10.594  23.136  50.513  1.00  0.00     0.199 C 
ENDROOT
BRANCH   1   2
HETATM    2  C4  UNL     1     -11.153  24.151  51.469  1.00  0.00     0.116 C 
BRANCH   2   3
HETATM    3  N1  UNL     1     -10.342  25.295  51.481  1.00  0.00    -0.395 N 
ATOM      4  H1  UNL     1      -9.933  25.603  50.599  1.00  0.00     0.159 HD
BRANCH   3   5
HETATM    5  C3  UNL     1     -10.064  26.035  52.624  1.00  0.00     0.055 C 
BRANCH   5   6
HETATM    6  C2  UNL     1     -10.122  25.328  53.953  1.00  0.00     0.039 C 
HETATM    7  C1  UNL     1     -11.055  26.154  54.841  1.00  0.00     0.010 C 
ENDBRANCH   5   6
ENDBRANCH   3   5
ENDBRANCH   2   3
BRANCH   2   8
HETATM    8  C5  UNL     1     -12.627  24.316  51.281  1.00  0.00     0.003 C 
HETATM    9  C6  UNL     1     -13.081  25.400  50.368  1.00  0.00     0.011 C 
HETATM   10  C7  UNL     1     -13.424  24.361  52.579  1.00  0.00     0.011 C 
ENDBRANCH   2   8
ENDBRANCH   1   2
BRANCH   1  11
HETATM   11  N2  UNL     1      -9.975  23.881  49.405  1.00  0.00    -0.344 N 
HETATM   12  C9  UNL     1     -10.350  23.676  48.065  1.00  0.00     0.237 C 
HETATM   13  O1  UNL     1     -11.251  22.821  47.782  1.00  0.00    -0.272 OA
ATOM     14  H2  UNL     1      -9.251  24.568  49.616  1.00  0.00     0.163 HD
BRANCH  12  15
HETATM   15  C10 UNL     1      -9.722  24.432  46.952  1.00  0.00     0.243 C 
BRANCH  15  16
HETATM   16  N3  UNL     1      -9.894  23.738  45.694  1.00  0.00    -0.314 N 
ATOM     17  H3  UNL     1     -10.825  23.542  45.328  1.00  0.00     0.182 HD
BRANCH  16  18
HETATM   18  N4  UNL     1      -8.761  23.349  45.000  1.00  0.00    -0.253 N 
HETATM   19  N5  UNL     1      -8.780  23.146  43.749  1.00  0.00    -0.331 N 
ATOM     20  H52 UNL     1      -9.663  23.278  43.255  1.00  0.00     0.178 HD
ATOM     21  H51 UNL     1      -7.945  22.860  43.239  1.00  0.00     0.178 HD
ATOM     22  H4  UNL     1      -7.887  23.221  45.510  1.00  0.00     0.207 HD
ENDBRANCH  16  18
ENDBRANCH  15  16
ENDBRANCH  12  15
ENDBRANCH   1  11
BRANCH   1  23
HETATM   23  C11 UNL     1      -9.583  22.246  51.120  1.00  0.00     0.244 C 
HETATM   24  O2  UNL     1      -8.863  22.700  52.033  1.00  0.00    -0.271 OA
HETATM   25  N6  UNL     1      -9.407  20.925  50.704  1.00  0.00    -0.350 N 
HETATM   26  C12 UNL     1     -10.146  20.266  49.628  1.00  0.00     0.126 C 
HETATM   27  C16 UNL     1      -8.395  20.114  51.388  1.00  0.00     0.126 C 
HETATM   28  C13 UNL     1      -9.167  19.349  48.907  1.00  0.00     0.020 C 
HETATM   29  C14 UNL     1      -8.774  18.207  49.835  1.00  0.00     0.003 C 
HETATM   30  C15 UNL     1      -8.822  18.671  51.284  1.00  0.00     0.020 C 
ENDBRANCH   1  23
TORSDOF 10
ENDMDL
MODEL 3
REMARK VINA RESULT: -6.066192189      2.372      5.763
REMARK  10 active torsions:
REMARK  status: ('A' for Active; 'I' for Inactive)
REMARK    1  A    between atoms: C2_2  and  C3_3 
REMARK    2  A    between atoms: C3_3  and  N1_4 
REMARK    3  A    between atoms: N1_4  and  C4_6 
REMARK    4  A    between atoms: C4_6  and  C5_7 
REMARK    5  A    between atoms: C4_6  and  C8_10 
REMARK    6  A    between atoms: C8_10  and  N2_11 
REMARK    7  A    between atoms: C8_10  and  C11_23 
REMARK       I    between atoms: N2_11  and  C9_13 
REMARK    8  A    between atoms: C9_13  and  C10_15 
REMARK    9  A    between atoms: C10_15  and  N3_16 
REMARK   10  A    between atoms: N3_16  and  N4_18 
REMARK       I    between atoms: C11_23  and  N6_25 
ROOT
HETATM    1  C8  UNL     1     -10.643  23.229  50.375  1.00  0.00     0.199 C 
ENDROOT
BRANCH   1   2
HETATM    2  C4  UNL     1     -11.317  24.222  51.277  1.00  0.00     0.116 C 
BRANCH   2   3
HETATM    3  N1  UNL     1     -11.488  23.671  52.555  1.00  0.00    -0.395 N 
ATOM      4  H1  UNL     1     -10.742  23.083  52.927  1.00  0.00     0.159 HD
BRANCH   3   5
HETATM    5  C3  UNL     1     -12.613  23.878  53.344  1.00  0.00     0.055 C 
BRANCH   5   6
HETATM    6  C2  UNL     1     -13.812  24.529  52.705  1.00  0.00     0.039 C 
HETATM    7  C1  UNL     1     -15.007  24.211  53.605  1.00  0.00     0.010 C 
ENDBRANCH   5   6
ENDBRANCH   3   5
ENDBRANCH   2   3
BRANCH   2   8
HETATM    8  C5  UNL     1     -10.691  25.575  51.155  1.00  0.00     0.003 C 
HETATM    9  C6  UNL     1      -9.923  26.078  52.326  1.00  0.00     0.011 C 
HETATM   10  C7  UNL     1     -11.631  26.659  50.645  1.00  0.00     0.011 C 
ENDBRANCH   2   8
ENDBRANCH   1   2
BRANCH   1  11
HETATM   11  N2  UNL     1      -9.977  23.995  49.309  1.00  0.00    -0.344 N 
HETATM   12  C9  UNL     1     -10.225  23.750  47.947  1.00  0.00     0.237 C 
HETATM   13  O1  UNL     1     -11.048  22.840  47.604  1.00  0.00    -0.272 OA
ATOM     14  H2  UNL     1      -9.315  24.727  49.567  1.00  0.00     0.163 HD
BRANCH  12  15
HETATM   15  C10 UNL     1      -9.551  24.529  46.876  1.00  0.00     0.243 C 
BRANCH  15  16
HETATM   16  N3  UNL     1      -9.126  23.664  45.797  1.00  0.00    -0.314 N 
ATOM     17  H3  UNL     1      -8.344  23.020  45.920  1.00  0.00     0.182 HD
BRANCH  16  18
HETATM   18  N4  UNL     1      -9.807  23.732  44.595  1.00  0.00    -0.253 N 
HETATM   19  N5  UNL     1      -9.284  23.347  43.507  1.00  0.00    -0.331 N 
ATOM     20  H52 UNL     1      -8.332  22.980  43.536  1.00  0.00     0.178 HD
ATOM     21  H51 UNL     1      -9.786  23.397  42.621  1.00  0.00     0.178 HD
ATOM     22  H4  UNL     1     -10.757  24.103  44.584  1.00  0.00     0.207 HD
ENDBRANCH  16  18
ENDBRANCH  15  16
ENDBRANCH  12  15
ENDBRANCH   1  11
BRANCH   1  23
HETATM   23  C11 UNL     1      -9.640  22.390  51.063  1.00  0.00     0.244 C 
HETATM   24  O2  UNL     1      -8.961  22.904  51.976  1.00  0.00    -0.271 OA
HETATM   25  N6  UNL     1      -9.429  21.052  50.724  1.00  0.00    -0.350 N 
HETATM   26  C12 UNL     1     -10.118  20.325  49.659  1.00  0.00     0.126 C 
HETATM   27  C16 UNL     1      -8.430  20.296  51.485  1.00  0.00     0.126 C 
HETATM   28  C13 UNL     1      -9.100  19.388  49.024  1.00  0.00     0.020 C 
HETATM   29  C14 UNL     1      -8.723  18.304  50.024  1.00  0.00     0.003 C 
HETATM   30  C15 UNL     1      -8.831  18.842  51.443  1.00  0.00     0.020 C 
ENDBRANCH   1  23
TORSDOF 10
ENDMDL
MODEL 4
REMARK VINA RESULT: -5.621491026      0.936      2.101
REMARK  10 active torsions:
REMARK  status: ('A' for Active; 'I' for Inactive)
REMARK    1  A    between atoms: C2_2  and  C3_3 
REMARK    2  A    between atoms: C3_3  and  N1_4 
REMARK    3  A    between atoms: N1_4  and  C4_6 
REMARK    4  A    between atoms: C4_6  and  C5_7 
REMARK    5  A    between atoms: C4_6  and  C8_10 
REMARK    6  A    between atoms: C8_10  and  N2_11 
REMARK    7  A    between atoms: C8_10  and  C11_23 
REMARK       I    between atoms: N2_11  and  C9_13 
REMARK    8  A    between atoms: C9_13  and  C10_15 
REMARK    9  A    between atoms: C10_15  and  N3_16 
REMARK   10  A    between atoms: N3_16  and  N4_18 
REMARK       I    between atoms: C11_23  and  N6_25 
ROOT
HETATM    1  C8  UNL     1     -10.005  23.425  48.819  1.00  0.00     0.199 C 
ENDROOT
BRANCH   1   2
HETATM    2  C4  UNL     1     -11.186  23.819  49.658  1.00  0.00     0.116 C 
BRANCH   2   3
HETATM    3  N1  UNL     1     -10.771  24.102  50.968  1.00  0.00    -0.395 N 
ATOM      4  H1  UNL     1      -9.958  24.705  51.094  1.00  0.00     0.159 HD
BRANCH   3   5
HETATM    5  C3  UNL     1     -11.401  23.608  52.103  1.00  0.00     0.055 C 
BRANCH   5   6
HETATM    6  C2  UNL     1     -12.109  24.590  53.000  1.00  0.00     0.039 C 
HETATM    7  C1  UNL     1     -13.603  24.448  52.703  1.00  0.00     0.010 C 
ENDBRANCH   5   6
ENDBRANCH   3   5
ENDBRANCH   2   3
BRANCH   2   8
HETATM    8  C5  UNL     1     -12.047  24.813  48.947  1.00  0.00     0.003 C 
HETATM    9  C6  UNL     1     -12.186  26.160  49.564  1.00  0.00     0.011 C 
HETATM   10  C7  UNL     1     -13.417  24.282  48.543  1.00  0.00     0.011 C 
ENDBRANCH   2   8
ENDBRANCH   1   2
BRANCH   1  11
HETATM   11  N2  UNL     1     -10.094  21.972  48.602  1.00  0.00    -0.344 N 
HETATM   12  C9  UNL     1      -9.520  21.047  49.492  1.00  0.00     0.237 C 
HETATM   13  O1  UNL     1      -8.898  21.462  50.525  1.00  0.00    -0.272 OA
ATOM     14  H2  UNL     1     -10.587  21.626  47.780  1.00  0.00     0.163 HD
BRANCH  12  15
HETATM   15  C10 UNL     1      -9.616  19.582  49.269  1.00  0.00     0.243 C 
BRANCH  15  16
HETATM   16  N3  UNL     1      -8.818  18.859  50.235  1.00  0.00    -0.314 N 
ATOM     17  H3  UNL     1      -7.946  19.250  50.591  1.00  0.00     0.182 HD
BRANCH  16  18
HETATM   18  N4  UNL     1      -9.268  17.621  50.662  1.00  0.00    -0.253 N 
HETATM   19  N5  UNL     1      -8.657  16.958  51.551  1.00  0.00    -0.331 N 
ATOM     20  H52 UNL     1      -7.810  17.361  51.953  1.00  0.00     0.178 HD
ATOM     21  H51 UNL     1      -8.989  16.047  51.866  1.00  0.00     0.178 HD
ATOM     22  H4  UNL     1     -10.116  17.233  50.249  1.00  0.00     0.207 HD
ENDBRANCH  16  18
ENDBRANCH  15  16
ENDBRANCH  12  15
ENDBRANCH   1  11
BRANCH   1  23
HETATM   23  C11 UNL     1      -9.957  24.106  47.508  1.00  0.00     0.244 C 
HETATM   24  O2  UNL     1     -10.459  23.531  46.521  1.00  0.00    -0.271 OA
HETATM   25  N6  UNL     1      -9.369  25.362  47.342  1.00  0.00    -0.350 N 
HETATM   26  C12 UNL     1      -8.711  26.139  48.391  1.00  0.00     0.126 C 
HETATM   27  C16 UNL     1      -9.397  25.966  46.007  1.00  0.00     0.126 C 
HETATM   28  C13 UNL     1      -7.518  26.837  47.752  1.00  0.00     0.020 C 
HETATM   29  C14 UNL     1      -8.018  27.890  46.773  1.00  0.00     0.003 C 
HETATM   30  C15 UNL     1      -9.355  27.463  46.184  1.00  0.00     0.020 C 
ENDBRANCH   1  23
TORSDOF 10
ENDMDL
MODEL 5
REMARK VINA RESULT: -5.570438100      2.238      4.615
REMARK  10 active torsions:
REMARK  status: ('A' for Active; 'I' for Inactive)
REMARK    1  A    between atoms: C2_2  and  C3_3 
REMARK    2  A    between atoms: C3_3  and  N1_4 
REMARK    3  A    between atoms: N1_4  and  C4_6 
REMARK    4  A    between atoms: C4_6  and  C5_7 
REMARK    5  A    between atoms: C4_6  and  C8_10 
REMARK    6  A    between atoms: C8_10  and  N2_11 
REMARK    7  A    between atoms: C8_10  and  C11_23 
REMARK       I    between atoms: N2_11  and  C9_13 
REMARK    8  A    between atoms: C9_13  and  C10_15 
REMARK    9  A    between atoms: C10_15  and  N3_16 
REMARK   10  A    between atoms: N3_16  and  N4_18 
REMARK       I    between atoms: C11_23  and  N6_25 
ROOT
HETATM    1  C8  UNL     1     -10.676  23.721  49.548  1.00  0.00     0.199 C 
ENDROOT
BRANCH   1   2
HETATM    2  C4  UNL     1     -10.828  24.420  48.228  1.00  0.00     0.116 C 
BRANCH   2   3
HETATM    3  N1  UNL     1     -10.199  23.680  47.218  1.00  0.00    -0.395 N 
ATOM      4  H1  UNL     1      -9.963  22.707  47.412  1.00  0.00     0.159 HD
BRANCH   3   5
HETATM    5  C3  UNL     1      -9.877  24.193  45.967  1.00  0.00     0.055 C 
BRANCH   5   6
HETATM    6  C2  UNL     1      -8.552  23.804  45.365  1.00  0.00     0.039 C 
HETATM    7  C1  UNL     1      -8.775  23.707  43.854  1.00  0.00     0.010 C 
ENDBRANCH   5   6
ENDBRANCH   3   5
ENDBRANCH   2   3
BRANCH   2   8
HETATM    8  C5  UNL     1     -12.237  24.873  48.016  1.00  0.00     0.003 C 
HETATM    9  C6  UNL     1     -12.556  26.288  48.348  1.00  0.00     0.011 C 
HETATM   10  C7  UNL     1     -13.291  23.949  48.613  1.00  0.00     0.011 C 
ENDBRANCH   2   8
ENDBRANCH   1   2
BRANCH   1  11
HETATM   11  N2  UNL     1      -9.674  22.659  49.362  1.00  0.00    -0.344 N 
HETATM   12  C9  UNL     1      -9.433  21.679  50.341  1.00  0.00     0.237 C 
HETATM   13  O1  UNL     1     -10.092  21.696  51.432  1.00  0.00    -0.272 OA
ATOM     14  H2  UNL     1      -9.139  22.633  48.495  1.00  0.00     0.163 HD
BRANCH  12  15
HETATM   15  C10 UNL     1      -8.422  20.609  50.146  1.00  0.00     0.243 C 
BRANCH  15  16
HETATM   16  N3  UNL     1      -7.817  20.233  51.405  1.00  0.00    -0.314 N 
ATOM     17  H3  UNL     1      -7.065  20.789  51.811  1.00  0.00     0.182 HD
BRANCH  16  18
HETATM   18  N4  UNL     1      -8.286  19.098  52.045  1.00  0.00    -0.253 N 
HETATM   19  N5  UNL     1      -7.512  18.154  52.384  1.00  0.00    -0.331 N 
ATOM     20  H52 UNL     1      -6.519  18.248  52.173  1.00  0.00     0.178 HD
ATOM     21  H51 UNL     1      -7.858  17.319  52.856  1.00  0.00     0.178 HD
ATOM     22  H4  UNL     1      -9.283  19.020  52.248  1.00  0.00     0.207 HD
ENDBRANCH  16  18
ENDBRANCH  15  16
ENDBRANCH  12  15
ENDBRANCH   1  11
BRANCH   1  23
HETATM   23  C11 UNL     1     -10.236  24.612  50.642  1.00  0.00     0.244 C 
HETATM   24  O2  UNL     1      -9.091  25.105  50.583  1.00  0.00    -0.271 OA
HETATM   25  N6  UNL     1     -11.055  24.913  51.733  1.00  0.00    -0.350 N 
HETATM   26  C12 UNL     1     -12.399  24.385  51.959  1.00  0.00     0.126 C 
HETATM   27  C16 UNL     1     -10.536  25.829  52.753  1.00  0.00     0.126 C 
HETATM   28  C13 UNL     1     -12.545  24.155  53.457  1.00  0.00     0.020 C 
HETATM   29  C14 UNL     1     -12.552  25.499  54.173  1.00  0.00     0.003 C 
HETATM   30  C15 UNL     1     -11.719  26.509  53.397  1.00  0.00     0.020 C 
ENDBRANCH   1  23
TORSDOF 10
ENDMDL
