MODEL 1
REMARK VINA RESULT: -5.049097883      0.000      0.000
REMARK  1 active torsions:
REMARK  status: ('A' for Active; 'I' for Inactive)
REMARK    1  A    between atoms: C3_3  and  N1_4 
ROOT
HETATM    1  C1  UNL     1      -1.669  17.587  20.638  1.00  0.00     0.013 C 
HETATM    2  C2  UNL     1      -2.048  17.283  19.525  1.00  0.00    -0.087 C 
HETATM    3  C3  UNL     1      -2.516  16.908  18.206  1.00  0.00     0.358 C 
ENDROOT
BRANCH   3   4
HETATM    4  N1  UNL     1      -1.455  16.367  17.368  1.00  0.00     0.031 N 
HETATM    5  C4  UNL     1      -0.464  17.454  17.250  1.00  0.00     0.305 C 
HETATM    6  C5  UNL     1      -0.785  15.255  17.918  1.00  0.00     0.269 C 
HETATM    7  C6  UNL     1      -1.252  13.914  17.507  1.00  0.00     0.051 C 
HETATM    8  C7  UNL     1      -1.744  13.839  16.080  1.00  0.00     0.142 C 
HETATM    9  N2  UNL     1      -2.509  15.003  15.801  1.00  0.00    -0.316 N 
HETATM   10  N3  UNL     1      -1.980  16.195  16.101  1.00  0.00    -0.162 N 
ATOM     11  H2  UNL     1      -3.437  14.933  15.383  1.00  0.00     0.181 HD
ATOM     12  H3  UNL     1      -1.964  16.952  15.417  1.00  0.00     0.215 HD
ENDBRANCH   3   4
TORSDOF 1
ENDMDL
MODEL 2
REMARK VINA RESULT: -4.984343113      1.168      1.743
REMARK  1 active torsions:
REMARK  status: ('A' for Active; 'I' for Inactive)
REMARK    1  A    between atoms: C3_3  and  N1_4 
ROOT
HETATM    1  C1  UNL     1      -3.533  19.092  16.588  1.00  0.00     0.013 C 
HETATM    2  C2  UNL     1      -3.205  18.076  17.167  1.00  0.00    -0.087 C 
HETATM    3  C3  UNL     1      -2.814  16.873  17.876  1.00  0.00     0.358 C 
ENDROOT
BRANCH   3   4
HETATM    4  N1  UNL     1      -1.620  16.256  17.317  1.00  0.00     0.031 N 
HETATM    5  C4  UNL     1      -0.578  17.298  17.386  1.00  0.00     0.305 C 
HETATM    6  C5  UNL     1      -1.142  15.145  18.043  1.00  0.00     0.269 C 
HETATM    7  C6  UNL     1      -1.568  13.806  17.584  1.00  0.00     0.051 C 
HETATM    8  C7  UNL     1      -1.733  13.686  16.087  1.00  0.00     0.142 C 
HETATM    9  N2  UNL     1      -2.362  14.864  15.602  1.00  0.00    -0.316 N 
HETATM   10  N3  UNL     1      -1.857  16.048  15.972  1.00  0.00    -0.162 N 
ATOM     11  H2  UNL     1      -3.175  14.811  14.990  1.00  0.00     0.181 HD
ATOM     12  H3  UNL     1      -1.654  16.772  15.283  1.00  0.00     0.215 HD
ENDBRANCH   3   4
TORSDOF 1
ENDMDL
MODEL 3
REMARK VINA RESULT: -4.493188571      1.825      2.723
REMARK  1 active torsions:
REMARK  status: ('A' for Active; 'I' for Inactive)
REMARK    1  A    between atoms: C3_3  and  N1_4 
ROOT
HETATM    1  C1  UNL     1       1.788  18.442  19.523  1.00  0.00     0.013 C 
HETATM    2  C2  UNL     1       0.903  18.009  18.814  1.00  0.00    -0.087 C 
HETATM    3  C3  UNL     1      -0.159  17.510  17.962  1.00  0.00     0.358 C 
ENDROOT
BRANCH   3   4
HETATM    4  N1  UNL     1      -1.071  16.620  18.665  1.00  0.00     0.031 N 
HETATM    5  C4  UNL     1      -1.610  17.422  19.780  1.00  0.00     0.305 C 
HETATM    6  C5  UNL     1      -2.173  16.187  17.898  1.00  0.00     0.269 C 
HETATM    7  C6  UNL     1      -2.049  14.879  17.220  1.00  0.00     0.051 C 
HETATM    8  C7  UNL     1      -1.243  13.856  17.985  1.00  0.00     0.142 C 
HETATM    9  N2  UNL     1      -0.111  14.501  18.553  1.00  0.00    -0.316 N 
HETATM   10  N3  UNL     1      -0.308  15.627  19.249  1.00  0.00    -0.162 N 
ATOM     11  H2  UNL     1       0.826  14.116  18.434  1.00  0.00     0.181 HD
ATOM     12  H3  UNL     1       0.093  15.749  20.178  1.00  0.00     0.215 HD
ENDBRANCH   3   4
TORSDOF 1
ENDMDL
MODEL 4
REMARK VINA RESULT: -4.488853388      1.111      1.247
REMARK  1 active torsions:
REMARK  status: ('A' for Active; 'I' for Inactive)
REMARK    1  A    between atoms: C3_3  and  N1_4 
ROOT
HETATM    1  C1  UNL     1      -2.466  19.527  18.328  1.00  0.00     0.013 C 
HETATM    2  C2  UNL     1      -2.335  18.335  18.517  1.00  0.00    -0.087 C 
HETATM    3  C3  UNL     1      -2.176  16.915  18.763  1.00  0.00     0.358 C 
ENDROOT
BRANCH   3   4
HETATM    4  N1  UNL     1      -1.151  16.312  17.923  1.00  0.00     0.031 N 
HETATM    5  C4  UNL     1       0.065  17.111  18.163  1.00  0.00     0.305 C 
HETATM    6  C5  UNL     1      -0.839  14.976  18.251  1.00  0.00     0.269 C 
HETATM    7  C6  UNL     1      -1.530  13.915  17.488  1.00  0.00     0.051 C 
HETATM    8  C7  UNL     1      -1.807  14.268  16.045  1.00  0.00     0.142 C 
HETATM    9  N2  UNL     1      -2.240  15.620  15.983  1.00  0.00    -0.316 N 
HETATM   10  N3  UNL     1      -1.506  16.548  16.609  1.00  0.00    -0.162 N 
ATOM     11  H2  UNL     1      -3.086  15.877  15.476  1.00  0.00     0.181 HD
ATOM     12  H3  UNL     1      -1.219  17.402  16.132  1.00  0.00     0.215 HD
ENDBRANCH   3   4
TORSDOF 1
ENDMDL
MODEL 5
REMARK VINA RESULT: -4.488612610      1.519      4.098
REMARK  1 active torsions:
REMARK  status: ('A' for Active; 'I' for Inactive)
REMARK    1  A    between atoms: C3_3  and  N1_4 
ROOT
HETATM    1  C1  UNL     1      -1.317  13.267  16.505  1.00  0.00     0.013 C 
HETATM    2  C2  UNL     1      -1.306  13.951  17.508  1.00  0.00    -0.087 C 
HETATM    3  C3  UNL     1      -1.312  14.759  18.711  1.00  0.00     0.358 C 
ENDROOT
BRANCH   3   4
HETATM    4  N1  UNL     1      -1.159  16.180  18.433  1.00  0.00     0.031 N 
HETATM    5  C4  UNL     1      -1.469  16.328  16.998  1.00  0.00     0.305 C 
HETATM    6  C5  UNL     1      -2.053  17.013  19.137  1.00  0.00     0.269 C 
HETATM    7  C6  UNL     1      -1.566  17.612  20.398  1.00  0.00     0.051 C 
HETATM    8  C7  UNL     1      -0.095  17.956  20.394  1.00  0.00     0.142 C 
HETATM    9  N2  UNL     1       0.617  16.904  19.756  1.00  0.00    -0.316 N 
HETATM   10  N3  UNL     1       0.183  16.481  18.562  1.00  0.00    -0.162 N 
ATOM     11  H2  UNL     1       1.435  16.483  20.195  1.00  0.00     0.181 HD
ATOM     12  H3  UNL     1       0.823  16.385  17.773  1.00  0.00     0.215 HD
ENDBRANCH   3   4
TORSDOF 1
ENDMDL
