MODEL 1
REMARK VINA RESULT: -3.912975936      0.000      0.000
REMARK  1 active torsions:
REMARK  status: ('A' for Active; 'I' for Inactive)
REMARK    1  A    between atoms: C5_6  and  C6_7 
ROOT
HETATM    1  C1  UNL     1      -1.935  15.920  19.514  1.00  0.00     0.272 C 
HETATM    2  N1  UNL     1      -1.169  15.430  18.360  1.00  0.00    -0.066 N 
HETATM    3  C2  UNL     1      -0.415  16.450  17.737  1.00  0.00     0.272 C 
HETATM    4  C3  UNL     1      -0.297  14.297  18.709  1.00  0.00     0.239 C 
HETATM    5  C4  UNL     1      -0.694  13.685  17.369  1.00  0.00     0.067 C 
HETATM    6  C5  UNL     1      -1.933  14.539  17.569  1.00  0.00     0.228 C 
ENDROOT
BRANCH   6   7
HETATM    7  C6  UNL     1      -2.567  15.034  16.354  1.00  0.00     0.086 C 
HETATM    8  N2  UNL     1      -3.105  14.188  15.547  1.00  0.00    -0.409 N 
ATOM      9  H22 UNL     1      -3.081  13.193  15.769  1.00  0.00     0.155 HD
ATOM     10  H21 UNL     1      -3.549  14.535  14.696  1.00  0.00     0.155 HD
ENDBRANCH   6   7
TORSDOF 1
ENDMDL
MODEL 2
REMARK VINA RESULT: -3.856427629      0.734      1.963
REMARK  1 active torsions:
REMARK  status: ('A' for Active; 'I' for Inactive)
REMARK    1  A    between atoms: C5_6  and  C6_7 
ROOT
HETATM    1  C1  UNL     1      -0.218  14.154  18.637  1.00  0.00     0.272 C 
HETATM    2  N1  UNL     1      -0.964  15.395  18.390  1.00  0.00    -0.066 N 
HETATM    3  C2  UNL     1      -1.900  15.677  19.411  1.00  0.00     0.272 C 
HETATM    4  C3  UNL     1      -0.075  16.550  18.186  1.00  0.00     0.239 C 
HETATM    5  C4  UNL     1      -1.041  16.996  17.091  1.00  0.00     0.067 C 
HETATM    6  C5  UNL     1      -1.349  15.510  17.033  1.00  0.00     0.228 C 
ENDROOT
BRANCH   6   7
HETATM    7  C6  UNL     1      -2.710  15.158  16.649  1.00  0.00     0.086 C 
HETATM    8  N2  UNL     1      -2.886  14.287  15.719  1.00  0.00    -0.409 N 
ATOM      9  H22 UNL     1      -2.077  13.859  15.269  1.00  0.00     0.155 HD
ATOM     10  H21 UNL     1      -3.839  14.040  15.451  1.00  0.00     0.155 HD
ENDBRANCH   6   7
TORSDOF 1
ENDMDL
MODEL 3
REMARK VINA RESULT: -3.475901065      2.479      3.392
REMARK  1 active torsions:
REMARK  status: ('A' for Active; 'I' for Inactive)
REMARK    1  A    between atoms: C5_6  and  C6_7 
ROOT
HETATM    1  C1  UNL     1       1.019  17.859  19.655  1.00  0.00     0.272 C 
HETATM    2  N1  UNL     1      -0.204  17.854  18.842  1.00  0.00    -0.066 N 
HETATM    3  C2  UNL     1      -1.164  18.785  19.300  1.00  0.00     0.272 C 
HETATM    4  C3  UNL     1       0.073  18.074  17.414  1.00  0.00     0.239 C 
HETATM    5  C4  UNL     1      -0.994  17.021  17.128  1.00  0.00     0.067 C 
HETATM    6  C5  UNL     1      -0.606  16.537  18.514  1.00  0.00     0.228 C 
ENDROOT
BRANCH   6   7
HETATM    7  C6  UNL     1      -1.667  15.905  19.287  1.00  0.00     0.086 C 
HETATM    8  N2  UNL     1      -1.510  14.688  19.676  1.00  0.00    -0.409 N 
ATOM      9  H22 UNL     1      -0.652  14.190  19.439  1.00  0.00     0.155 HD
ATOM     10  H21 UNL     1      -2.253  14.246  20.217  1.00  0.00     0.155 HD
ENDBRANCH   6   7
TORSDOF 1
ENDMDL
MODEL 4
REMARK VINA RESULT: -3.401550137      1.900      3.937
REMARK  1 active torsions:
REMARK  status: ('A' for Active; 'I' for Inactive)
REMARK    1  A    between atoms: C5_6  and  C6_7 
ROOT
HETATM    1  C1  UNL     1      -0.250  14.583  18.504  1.00  0.00     0.272 C 
HETATM    2  N1  UNL     1      -0.826  15.934  18.529  1.00  0.00    -0.066 N 
HETATM    3  C2  UNL     1      -1.278  16.356  17.258  1.00  0.00     0.272 C 
HETATM    4  C3  UNL     1      -1.907  16.063  19.519  1.00  0.00     0.239 C 
HETATM    5  C4  UNL     1      -1.338  17.441  19.842  1.00  0.00     0.067 C 
HETATM    6  C5  UNL     1      -0.055  16.814  19.327  1.00  0.00     0.228 C 
ENDROOT
BRANCH   6   7
HETATM    7  C6  UNL     1       0.881  17.723  18.678  1.00  0.00     0.086 C 
HETATM    8  N2  UNL     1       2.040  17.902  19.208  1.00  0.00    -0.409 N 
ATOM      9  H22 UNL     1       2.283  17.408  20.067  1.00  0.00     0.155 HD
ATOM     10  H21 UNL     1       2.695  18.539  18.754  1.00  0.00     0.155 HD
ENDBRANCH   6   7
TORSDOF 1
ENDMDL
MODEL 5
REMARK VINA RESULT: -3.355455886      1.484      2.543
REMARK  1 active torsions:
REMARK  status: ('A' for Active; 'I' for Inactive)
REMARK    1  A    between atoms: C5_6  and  C6_7 
ROOT
HETATM    1  C1  UNL     1      -0.412  16.595  17.616  1.00  0.00     0.272 C 
HETATM    2  N1  UNL     1      -1.440  15.548  17.668  1.00  0.00    -0.066 N 
HETATM    3  C2  UNL     1      -1.886  15.289  18.984  1.00  0.00     0.272 C 
HETATM    4  C3  UNL     1      -2.586  15.847  16.794  1.00  0.00     0.239 C 
HETATM    5  C4  UNL     1      -2.594  14.364  16.434  1.00  0.00     0.067 C 
HETATM    6  C5  UNL     1      -1.127  14.467  16.808  1.00  0.00     0.228 C 
ENDROOT
BRANCH   6   7
HETATM    7  C6  UNL     1      -0.528  13.263  17.371  1.00  0.00     0.086 C 
HETATM    8  N2  UNL     1       0.008  12.407  16.574  1.00  0.00    -0.409 N 
ATOM      9  H22 UNL     1       0.005  12.582  15.569  1.00  0.00     0.155 HD
ATOM     10  H21 UNL     1       0.427  11.564  16.968  1.00  0.00     0.155 HD
ENDBRANCH   6   7
TORSDOF 1
ENDMDL
