MODEL 1
REMARK VINA RESULT: -4.388005551      0.000      0.000
REMARK  1 active torsions:
REMARK  status: ('A' for Active; 'I' for Inactive)
REMARK    1  A    between atoms: C3_3  and  N1_4 
ROOT
HETATM    1  C1  UNL     1      -1.776  13.284  14.572  1.00  0.00     0.013 C 
HETATM    2  C2  UNL     1      -2.246  14.025  15.378  1.00  0.00    -0.088 C 
HETATM    3  C3  UNL     1      -2.812  14.950  16.389  1.00  0.00     0.352 C 
ENDROOT
BRANCH   3   4
HETATM    4  N1  UNL     1      -1.885  15.126  17.413  1.00  0.00     0.023 N 
HETATM    5  C4  UNL     1      -0.991  14.047  17.768  1.00  0.00     0.263 C 
HETATM    6  C5  UNL     1      -0.287  14.723  18.963  1.00  0.00     0.054 C 
HETATM    7  C6  UNL     1      -0.962  16.067  18.836  1.00  0.00     0.136 C 
HETATM    8  C7  UNL     1      -1.002  16.288  17.365  1.00  0.00     0.284 C 
HETATM    9  N2  UNL     1      -2.345  15.665  18.646  1.00  0.00    -0.039 NA
ENDBRANCH   3   4
TORSDOF 1
ENDMDL
MODEL 2
REMARK VINA RESULT: -4.330063588      1.102      1.746
REMARK  1 active torsions:
REMARK  status: ('A' for Active; 'I' for Inactive)
REMARK    1  A    between atoms: C3_3  and  N1_4 
ROOT
HETATM    1  C1  UNL     1      -1.845  13.376  14.754  1.00  0.00     0.013 C 
HETATM    2  C2  UNL     1      -1.853  13.491  15.940  1.00  0.00    -0.088 C 
HETATM    3  C3  UNL     1      -1.862  13.657  17.413  1.00  0.00     0.352 C 
ENDROOT
BRANCH   3   4
HETATM    4  N1  UNL     1      -1.382  14.924  17.732  1.00  0.00     0.023 N 
HETATM    5  C4  UNL     1      -1.499  16.000  16.774  1.00  0.00     0.263 C 
HETATM    6  C5  UNL     1      -0.756  17.091  17.571  1.00  0.00     0.054 C 
HETATM    7  C6  UNL     1      -0.536  16.283  18.827  1.00  0.00     0.136 C 
HETATM    8  C7  UNL     1      -1.817  15.542  18.981  1.00  0.00     0.284 C 
HETATM    9  N2  UNL     1      -0.069  15.025  18.266  1.00  0.00    -0.039 NA
ENDBRANCH   3   4
TORSDOF 1
ENDMDL
MODEL 3
REMARK VINA RESULT: -4.166000063      1.156      3.517
REMARK  1 active torsions:
REMARK  status: ('A' for Active; 'I' for Inactive)
REMARK    1  A    between atoms: C3_3  and  N1_4 
ROOT
HETATM    1  C1  UNL     1      -0.423  17.534  18.947  1.00  0.00     0.013 C 
HETATM    2  C2  UNL     1      -1.054  16.527  19.027  1.00  0.00    -0.088 C 
HETATM    3  C3  UNL     1      -1.828  15.264  19.109  1.00  0.00     0.352 C 
ENDROOT
BRANCH   3   4
HETATM    4  N1  UNL     1      -1.675  14.558  17.920  1.00  0.00     0.023 N 
HETATM    5  C4  UNL     1      -2.234  15.083  16.694  1.00  0.00     0.263 C 
HETATM    6  C5  UNL     1      -1.870  13.909  15.761  1.00  0.00     0.054 C 
HETATM    7  C6  UNL     1      -1.094  13.104  16.775  1.00  0.00     0.136 C 
HETATM    8  C7  UNL     1      -0.333  14.142  17.522  1.00  0.00     0.284 C 
HETATM    9  N2  UNL     1      -1.986  13.171  17.921  1.00  0.00    -0.039 NA
ENDBRANCH   3   4
TORSDOF 1
ENDMDL
MODEL 4
REMARK VINA RESULT: -4.139368491      1.474      2.412
REMARK  1 active torsions:
REMARK  status: ('A' for Active; 'I' for Inactive)
REMARK    1  A    between atoms: C3_3  and  N1_4 
ROOT
HETATM    1  C1  UNL     1      -1.933  13.741  16.159  1.00  0.00     0.013 C 
HETATM    2  C2  UNL     1      -1.273  14.028  17.109  1.00  0.00    -0.088 C 
HETATM    3  C3  UNL     1      -0.463  14.402  18.293  1.00  0.00     0.352 C 
ENDROOT
BRANCH   3   4
HETATM    4  N1  UNL     1      -0.676  15.747  18.583  1.00  0.00     0.023 N 
HETATM    5  C4  UNL     1      -0.672  16.723  17.517  1.00  0.00     0.263 C 
HETATM    6  C5  UNL     1      -0.849  17.993  18.375  1.00  0.00     0.054 C 
HETATM    7  C6  UNL     1      -1.010  17.294  19.704  1.00  0.00     0.136 C 
HETATM    8  C7  UNL     1      -1.852  16.114  19.367  1.00  0.00     0.284 C 
HETATM    9  N2  UNL     1       0.075  16.329  19.640  1.00  0.00    -0.039 NA
ENDBRANCH   3   4
TORSDOF 1
ENDMDL
MODEL 5
REMARK VINA RESULT: -4.105777924      1.200      3.437
REMARK  1 active torsions:
REMARK  status: ('A' for Active; 'I' for Inactive)
REMARK    1  A    between atoms: C3_3  and  N1_4 
ROOT
HETATM    1  C1  UNL     1       0.379  17.354  19.107  1.00  0.00     0.013 C 
HETATM    2  C2  UNL     1      -0.591  16.665  19.047  1.00  0.00    -0.088 C 
HETATM    3  C3  UNL     1      -1.789  15.796  18.957  1.00  0.00     0.352 C 
ENDROOT
BRANCH   3   4
HETATM    4  N1  UNL     1      -1.732  15.065  17.774  1.00  0.00     0.023 N 
HETATM    5  C4  UNL     1      -1.167  13.734  17.776  1.00  0.00     0.263 C 
HETATM    6  C5  UNL     1      -1.264  13.447  16.264  1.00  0.00     0.054 C 
HETATM    7  C6  UNL     1      -1.982  14.718  15.882  1.00  0.00     0.136 C 
HETATM    8  C7  UNL     1      -2.955  14.905  16.992  1.00  0.00     0.284 C 
HETATM    9  N2  UNL     1      -1.207  15.704  16.618  1.00  0.00    -0.039 NA
ENDBRANCH   3   4
TORSDOF 1
ENDMDL
