MODEL 1
REMARK VINA RESULT: -8.187729091      0.000      0.000
REMARK  15 active torsions:
REMARK  status: ('A' for Active; 'I' for Inactive)
REMARK    1  A    between atoms: C2_2  and  O1_3 
REMARK    2  A    between atoms: O1_3  and  C3_4 
REMARK    3  A    between atoms: C3_4  and  C4_6 
REMARK    4  A    between atoms: C8_12  and  O4_13 
REMARK    5  A    between atoms: C8_12  and  C9_15 
REMARK    6  A    between atoms: C10_18  and  N3_19 
REMARK    7  A    between atoms: C11_24  and  N5_25 
REMARK    8  A    between atoms: N7_30  and  C12_31 
REMARK    9  A    between atoms: N8_33  and  N9_34 
REMARK   10  A    between atoms: C14_37  and  N10_38 
REMARK   11  A    between atoms: C16_40  and  C17_41 
REMARK   12  A    between atoms: C17_41  and  O5_42 
REMARK   13  A    between atoms: O5_42  and  C18_43 
REMARK   14  A    between atoms: C18_43  and  C19_44 
REMARK   15  A    between atoms: C19_44  and  O6_47 
ROOT
HETATM    1  C4  UNL     1       6.087 -25.444  -1.843  1.00  0.00     0.220 C 
HETATM    2  C5  UNL     1       7.395 -25.730  -1.185  1.00  0.00     0.190 C 
HETATM    3  O3  UNL     1       7.238 -25.992   0.190  1.00  0.00    -0.278 OA
HETATM    4  N1  UNL     1       8.142 -25.240   0.840  1.00  0.00    -0.100 NA
HETATM    5  C6  UNL     1       7.978 -23.942   0.158  1.00  0.00     0.155 C 
HETATM    6  C7  UNL     1       8.150 -24.398  -1.264  1.00  0.00     0.100 C 
HETATM    7  C8  UNL     1       7.372 -23.584  -2.269  1.00  0.00     0.204 C 
HETATM    8  N7  UNL     1       6.034 -23.993  -2.070  1.00  0.00    -0.310 N 
ENDROOT
BRANCH   8   9
HETATM    9  C12 UNL     1       4.781 -23.286  -2.040  1.00  0.00     0.141 A 
HETATM   10  C13 UNL     1       4.052 -23.040  -0.894  1.00  0.00     0.183 A 
HETATM   11  N8  UNL     1       2.920 -22.379  -1.234  1.00  0.00    -0.099 N 
HETATM   12  C14 UNL     1       2.929 -22.210  -2.569  1.00  0.00     0.724 A 
HETATM   13  N13 UNL     1       4.057 -22.760  -3.036  1.00  0.00    -0.172 N 
ATOM     14  H13 UNL     1       4.328 -22.776  -4.020  1.00  0.00     0.186 HD
BRANCH  11  15
HETATM   15  N9  UNL     1       1.943 -21.972  -0.323  1.00  0.00    -0.324 N 
ATOM     16  H92 UNL     1       2.024 -21.893   0.690  1.00  0.00     0.178 HD
ATOM     17  H91 UNL     1       0.997 -21.691  -0.582  1.00  0.00     0.178 HD
ENDBRANCH  11  15
BRANCH  12  18
HETATM   18  N10 UNL     1       1.860 -21.545  -3.260  1.00  0.00    -0.078 N 
HETATM   19  C15 UNL     1       1.423 -21.848  -4.522  1.00  0.00     0.161 A 
HETATM   20  C16 UNL     1       0.377 -20.988  -4.859  1.00  0.00     0.065 A 
HETATM   21  N11 UNL     1       0.221 -20.192  -3.788  1.00  0.00    -0.284 N 
HETATM   22  N12 UNL     1       1.105 -20.537  -2.855  1.00  0.00    -0.000 NA
ATOM     23  H11 UNL     1      -0.466 -19.443  -3.702  1.00  0.00     0.184 HD
BRANCH  20  24
HETATM   24  C17 UNL     1      -0.392 -20.954  -6.123  1.00  0.00     0.227 C 
BRANCH  24  25
HETATM   25  O5  UNL     1      -0.239 -19.790  -6.851  1.00  0.00    -0.382 OA
BRANCH  25  26
HETATM   26  C18 UNL     1      -1.237 -18.884  -6.585  1.00  0.00     0.205 C 
BRANCH  26  27
HETATM   27  C19 UNL     1      -0.697 -17.469  -6.658  1.00  0.00     0.072 C 
HETATM   28  C20 UNL     1       0.445 -17.281  -5.670  1.00  0.00     0.047 C 
HETATM   29  C21 UNL     1      -1.721 -16.425  -6.358  1.00  0.00     0.047 C 
BRANCH  27  30
HETATM   30  O6  UNL     1      -0.156 -17.274  -7.923  1.00  0.00    -0.388 OA
ATOM     31  H6  UNL     1       0.285 -16.433  -7.933  1.00  0.00     0.210 HD
ENDBRANCH  27  30
ENDBRANCH  26  27
ENDBRANCH  25  26
ENDBRANCH  24  25
ENDBRANCH  20  24
ENDBRANCH  12  18
ENDBRANCH   8   9
BRANCH   1  32
HETATM   32  C3  UNL     1       5.958 -26.222  -3.093  1.00  0.00     0.284 C 
HETATM   33  O2  UNL     1       6.939 -26.874  -3.590  1.00  0.00    -0.263 OA
BRANCH  32  34
HETATM   34  O1  UNL     1       4.763 -26.315  -3.829  1.00  0.00    -0.320 OA
BRANCH  34  35
HETATM   35  C2  UNL     1       4.665 -25.682  -5.106  1.00  0.00     0.174 C 
HETATM   36  C1  UNL     1       3.348 -24.995  -5.272  1.00  0.00     0.034 C 
ENDBRANCH  34  35
ENDBRANCH  32  34
ENDBRANCH   1  32
BRANCH   7  37
HETATM   37  O4  UNL     1       7.804 -24.044  -3.538  1.00  0.00    -0.364 OA
ATOM     38  H4  UNL     1       8.694 -23.723  -3.632  1.00  0.00     0.213 HD
ENDBRANCH   7  37
BRANCH   7  39
HETATM   39  C9  UNL     1       7.656 -22.151  -2.254  1.00  0.00     0.169 A 
HETATM   40  N2  UNL     1       7.128 -21.224  -1.459  1.00  0.00    -0.175 N 
HETATM   41  C10 UNL     1       7.474 -19.907  -1.547  1.00  0.00     0.691 A 
ATOM     42  H2  UNL     1       6.442 -21.508  -0.759  1.00  0.00     0.185 HD
HETATM   43  N4  UNL     1       8.376 -19.501  -2.458  1.00  0.00    -0.023 N 
HETATM   44  C11 UNL     1       8.919 -20.410  -3.268  1.00  0.00     0.691 A 
ATOM     45  H4  UNL     1       8.639 -18.518  -2.528  1.00  0.00     0.203 HD
HETATM   46  N6  UNL     1       8.568 -21.702  -3.167  1.00  0.00    -0.175 N 
ATOM     47  H6  UNL     1       9.000 -22.377  -3.799  1.00  0.00     0.185 HD
BRANCH  41  48
HETATM   48  N3  UNL     1       6.950 -19.030  -0.757  1.00  0.00    -0.234 N 
ATOM     49  H32 UNL     1       5.971 -19.132  -0.490  1.00  0.00     0.174 HD
ATOM     50  H31 UNL     1       7.500 -18.245  -0.408  1.00  0.00     0.174 HD
ENDBRANCH  41  48
BRANCH  44  51
HETATM   51  N5  UNL     1       9.781 -19.988  -4.146  1.00  0.00    -0.234 N 
ATOM     52  H52 UNL     1      10.431 -19.226  -3.953  1.00  0.00     0.174 HD
ATOM     53  H51 UNL     1       9.792 -20.455  -5.053  1.00  0.00     0.174 HD
ENDBRANCH  44  51
ENDBRANCH   7  39
TORSDOF 15
ENDMDL
MODEL 2
REMARK VINA RESULT: -8.026163351      2.914      4.207
REMARK  15 active torsions:
REMARK  status: ('A' for Active; 'I' for Inactive)
REMARK    1  A    between atoms: C2_2  and  O1_3 
REMARK    2  A    between atoms: O1_3  and  C3_4 
REMARK    3  A    between atoms: C3_4  and  C4_6 
REMARK    4  A    between atoms: C8_12  and  O4_13 
REMARK    5  A    between atoms: C8_12  and  C9_15 
REMARK    6  A    between atoms: C10_18  and  N3_19 
REMARK    7  A    between atoms: C11_24  and  N5_25 
REMARK    8  A    between atoms: N7_30  and  C12_31 
REMARK    9  A    between atoms: N8_33  and  N9_34 
REMARK   10  A    between atoms: C14_37  and  N10_38 
REMARK   11  A    between atoms: C16_40  and  C17_41 
REMARK   12  A    between atoms: C17_41  and  O5_42 
REMARK   13  A    between atoms: O5_42  and  C18_43 
REMARK   14  A    between atoms: C18_43  and  C19_44 
REMARK   15  A    between atoms: C19_44  and  O6_47 
ROOT
HETATM    1  C4  UNL     1       9.261 -25.357  -5.703  1.00  0.00     0.220 C 
HETATM    2  C5  UNL     1      10.714 -25.301  -6.037  1.00  0.00     0.190 C 
HETATM    3  O3  UNL     1      11.493 -25.984  -5.082  1.00  0.00    -0.278 OA
HETATM    4  N1  UNL     1      12.501 -25.165  -4.737  1.00  0.00    -0.100 NA
HETATM    5  C6  UNL     1      11.783 -23.890  -4.550  1.00  0.00     0.155 C 
HETATM    6  C7  UNL     1      11.075 -23.820  -5.875  1.00  0.00     0.100 C 
HETATM    7  C8  UNL     1       9.744 -23.111  -5.824  1.00  0.00     0.204 C 
HETATM    8  N7  UNL     1       8.896 -24.035  -5.174  1.00  0.00    -0.310 N 
ENDROOT
BRANCH   8   9
HETATM    9  C12 UNL     1       7.865 -23.897  -4.179  1.00  0.00     0.141 A 
HETATM   10  C13 UNL     1       8.011 -24.248  -2.852  1.00  0.00     0.183 A 
HETATM   11  N8  UNL     1       6.843 -24.011  -2.211  1.00  0.00    -0.099 N 
HETATM   12  C14 UNL     1       5.972 -23.522  -3.111  1.00  0.00     0.724 A 
HETATM   13  N13 UNL     1       6.605 -23.459  -4.289  1.00  0.00    -0.172 N 
ATOM     14  H13 UNL     1       6.183 -23.121  -5.155  1.00  0.00     0.186 HD
BRANCH  11  15
HETATM   15  N9  UNL     1       6.628 -24.254  -0.852  1.00  0.00    -0.324 N 
ATOM     16  H92 UNL     1       7.306 -24.559  -0.154  1.00  0.00     0.178 HD
ATOM     17  H91 UNL     1       5.728 -24.145  -0.384  1.00  0.00     0.178 HD
ENDBRANCH  11  15
BRANCH  12  18
HETATM   18  N10 UNL     1       4.625 -23.169  -2.756  1.00  0.00    -0.078 N 
HETATM   19  C15 UNL     1       3.497 -23.605  -3.397  1.00  0.00     0.161 A 
HETATM   20  C16 UNL     1       2.378 -23.048  -2.775  1.00  0.00     0.065 A 
HETATM   21  N11 UNL     1       2.872 -22.292  -1.781  1.00  0.00    -0.284 N 
HETATM   22  N12 UNL     1       4.199 -22.376  -1.786  1.00  0.00    -0.000 NA
ATOM     23  H11 UNL     1       2.317 -21.740  -1.126  1.00  0.00     0.184 HD
BRANCH  20  24
HETATM   24  C17 UNL     1       0.956 -23.244  -3.135  1.00  0.00     0.227 C 
BRANCH  24  25
HETATM   25  O5  UNL     1       0.285 -22.080  -3.454  1.00  0.00    -0.382 OA
BRANCH  25  26
HETATM   26  C18 UNL     1       0.705 -21.557  -4.653  1.00  0.00     0.205 C 
BRANCH  26  27
HETATM   27  C19 UNL     1       0.300 -20.101  -4.764  1.00  0.00     0.072 C 
HETATM   28  C20 UNL     1      -0.839 -19.936  -5.760  1.00  0.00     0.047 C 
HETATM   29  C21 UNL     1       1.410 -19.206  -5.208  1.00  0.00     0.047 C 
BRANCH  27  30
HETATM   30  O6  UNL     1      -0.195 -19.691  -3.532  1.00  0.00    -0.388 OA
ATOM     31  H6  UNL     1       0.432 -19.092  -3.143  1.00  0.00     0.210 HD
ENDBRANCH  27  30
ENDBRANCH  26  27
ENDBRANCH  25  26
ENDBRANCH  24  25
ENDBRANCH  20  24
ENDBRANCH  12  18
ENDBRANCH   8   9
BRANCH   1  32
HETATM   32  C3  UNL     1       8.473 -25.733  -6.894  1.00  0.00     0.284 C 
HETATM   33  O2  UNL     1       8.926 -25.588  -8.081  1.00  0.00    -0.263 OA
BRANCH  32  34
HETATM   34  O1  UNL     1       7.178 -26.280  -6.827  1.00  0.00    -0.320 OA
BRANCH  34  35
HETATM   35  C2  UNL     1       6.834 -27.162  -5.758  1.00  0.00     0.174 C 
HETATM   36  C1  UNL     1       5.546 -26.759  -5.114  1.00  0.00     0.034 C 
ENDBRANCH  34  35
ENDBRANCH  32  34
ENDBRANCH   1  32
BRANCH   7  37
HETATM   37  O4  UNL     1       9.333 -22.989  -7.175  1.00  0.00    -0.364 OA
ATOM     38  H4  UNL     1       9.838 -22.265  -7.527  1.00  0.00     0.213 HD
ENDBRANCH   7  37
BRANCH   7  39
HETATM   39  C9  UNL     1       9.791 -21.747  -5.305  1.00  0.00     0.169 A 
HETATM   40  N2  UNL     1       9.213 -21.275  -4.203  1.00  0.00    -0.175 N 
HETATM   41  C10 UNL     1       9.327 -19.968  -3.824  1.00  0.00     0.691 A 
ATOM     42  H2  UNL     1       8.666 -21.910  -3.622  1.00  0.00     0.185 HD
HETATM   43  N4  UNL     1      10.041 -19.106  -4.568  1.00  0.00    -0.023 N 
HETATM   44  C11 UNL     1      10.630 -19.553  -5.677  1.00  0.00     0.691 A 
ATOM     45  H4  UNL     1      10.131 -18.128  -4.289  1.00  0.00     0.203 HD
HETATM   46  N6  UNL     1      10.507 -20.842  -6.035  1.00  0.00    -0.175 N 
ATOM     47  H6  UNL     1      10.969 -21.158  -6.888  1.00  0.00     0.185 HD
BRANCH  41  48
HETATM   48  N3  UNL     1       8.760 -19.539  -2.746  1.00  0.00    -0.234 N 
ATOM     49  H32 UNL     1       8.440 -20.218  -2.055  1.00  0.00     0.174 HD
ATOM     50  H31 UNL     1       8.628 -18.541  -2.586  1.00  0.00     0.174 HD
ENDBRANCH  41  48
BRANCH  44  51
HETATM   51  N5  UNL     1      11.306 -18.694  -6.382  1.00  0.00    -0.234 N 
ATOM     52  H52 UNL     1      11.273 -17.691  -6.202  1.00  0.00     0.174 HD
ATOM     53  H51 UNL     1      11.889 -19.062  -7.134  1.00  0.00     0.174 HD
ENDBRANCH  44  51
ENDBRANCH   7  39
TORSDOF 15
ENDMDL
MODEL 3
REMARK VINA RESULT: -8.013418814      3.137      4.084
REMARK  15 active torsions:
REMARK  status: ('A' for Active; 'I' for Inactive)
REMARK    1  A    between atoms: C2_2  and  O1_3 
REMARK    2  A    between atoms: O1_3  and  C3_4 
REMARK    3  A    between atoms: C3_4  and  C4_6 
REMARK    4  A    between atoms: C8_12  and  O4_13 
REMARK    5  A    between atoms: C8_12  and  C9_15 
REMARK    6  A    between atoms: C10_18  and  N3_19 
REMARK    7  A    between atoms: C11_24  and  N5_25 
REMARK    8  A    between atoms: N7_30  and  C12_31 
REMARK    9  A    between atoms: N8_33  and  N9_34 
REMARK   10  A    between atoms: C14_37  and  N10_38 
REMARK   11  A    between atoms: C16_40  and  C17_41 
REMARK   12  A    between atoms: C17_41  and  O5_42 
REMARK   13  A    between atoms: O5_42  and  C18_43 
REMARK   14  A    between atoms: C18_43  and  C19_44 
REMARK   15  A    between atoms: C19_44  and  O6_47 
ROOT
HETATM    1  C4  UNL     1       8.886 -25.480  -6.134  1.00  0.00     0.220 C 
HETATM    2  C5  UNL     1      10.378 -25.505  -6.163  1.00  0.00     0.190 C 
HETATM    3  O3  UNL     1      10.903 -26.363  -5.178  1.00  0.00    -0.278 OA
HETATM    4  N1  UNL     1      11.862 -25.680  -4.530  1.00  0.00    -0.100 NA
HETATM    5  C6  UNL     1      11.193 -24.383  -4.313  1.00  0.00     0.155 C 
HETATM    6  C7  UNL     1      10.780 -24.090  -5.729  1.00  0.00     0.100 C 
HETATM    7  C8  UNL     1       9.510 -23.284  -5.845  1.00  0.00     0.204 C 
HETATM    8  N7  UNL     1       8.494 -24.209  -5.510  1.00  0.00    -0.310 N 
ENDROOT
BRANCH   8   9
HETATM    9  C12 UNL     1       7.289 -24.110  -4.729  1.00  0.00     0.141 A 
HETATM   10  C13 UNL     1       7.204 -24.417  -3.386  1.00  0.00     0.183 A 
HETATM   11  N8  UNL     1       5.925 -24.237  -2.982  1.00  0.00    -0.099 N 
HETATM   12  C14 UNL     1       5.211 -23.827  -4.046  1.00  0.00     0.724 A 
HETATM   13  N13 UNL     1       6.049 -23.754  -5.087  1.00  0.00    -0.172 N 
ATOM     14  H13 UNL     1       5.779 -23.466  -6.028  1.00  0.00     0.186 HD
BRANCH  11  15
HETATM   15  N9  UNL     1       5.473 -24.458  -1.678  1.00  0.00    -0.324 N 
ATOM     16  H92 UNL     1       6.031 -24.587  -0.834  1.00  0.00     0.178 HD
ATOM     17  H91 UNL     1       4.490 -24.513  -1.412  1.00  0.00     0.178 HD
ENDBRANCH  11  15
BRANCH  12  18
HETATM   18  N10 UNL     1       3.805 -23.550  -3.960  1.00  0.00    -0.078 N 
HETATM   19  C15 UNL     1       3.193 -22.411  -4.412  1.00  0.00     0.161 A 
HETATM   20  C16 UNL     1       1.824 -22.497  -4.150  1.00  0.00     0.065 A 
HETATM   21  N11 UNL     1       1.658 -23.685  -3.545  1.00  0.00    -0.284 N 
HETATM   22  N12 UNL     1       2.839 -24.291  -3.442  1.00  0.00    -0.000 NA
ATOM     23  H11 UNL     1       0.770 -24.064  -3.217  1.00  0.00     0.184 HD
BRANCH  20  24
HETATM   24  C17 UNL     1       0.781 -21.496  -4.464  1.00  0.00     0.227 C 
BRANCH  24  25
HETATM   25  O5  UNL     1       0.746 -21.108  -5.789  1.00  0.00    -0.382 OA
BRANCH  25  26
HETATM   26  C18 UNL     1       0.817 -19.742  -5.927  1.00  0.00     0.205 C 
BRANCH  26  27
HETATM   27  C19 UNL     1      -0.375 -19.229  -6.711  1.00  0.00     0.072 C 
HETATM   28  C20 UNL     1      -0.960 -17.992  -6.047  1.00  0.00     0.047 C 
HETATM   29  C21 UNL     1      -1.478 -20.228  -6.838  1.00  0.00     0.047 C 
BRANCH  27  30
HETATM   30  O6  UNL     1       0.068 -18.828  -7.965  1.00  0.00    -0.388 OA
ATOM     31  H6  UNL     1       0.503 -19.565  -8.377  1.00  0.00     0.210 HD
ENDBRANCH  27  30
ENDBRANCH  26  27
ENDBRANCH  25  26
ENDBRANCH  24  25
ENDBRANCH  20  24
ENDBRANCH  12  18
ENDBRANCH   8   9
BRANCH   1  32
HETATM   32  C3  UNL     1       8.342 -25.638  -7.499  1.00  0.00     0.284 C 
HETATM   33  O2  UNL     1       7.470 -24.835  -7.978  1.00  0.00    -0.263 OA
BRANCH  32  34
HETATM   34  O1  UNL     1       8.732 -26.667  -8.375  1.00  0.00    -0.320 OA
BRANCH  34  35
HETATM   35  C2  UNL     1       8.560 -28.032  -7.991  1.00  0.00     0.174 C 
HETATM   36  C1  UNL     1       9.792 -28.833  -8.266  1.00  0.00     0.034 C 
ENDBRANCH  34  35
ENDBRANCH  32  34
ENDBRANCH   1  32
BRANCH   7  37
HETATM   37  O4  UNL     1       9.395 -22.962  -7.220  1.00  0.00    -0.364 OA
ATOM     38  H4  UNL     1       8.467 -23.026  -7.416  1.00  0.00     0.213 HD
ENDBRANCH   7  37
BRANCH   7  39
HETATM   39  C9  UNL     1       9.525 -22.004  -5.142  1.00  0.00     0.169 A 
HETATM   40  N2  UNL     1       8.859 -21.673  -4.039  1.00  0.00    -0.175 N 
HETATM   41  C10 UNL     1       8.953 -20.432  -3.477  1.00  0.00     0.691 A 
ATOM     42  H2  UNL     1       8.258 -22.370  -3.597  1.00  0.00     0.185 HD
HETATM   43  N4  UNL     1       9.736 -19.493  -4.034  1.00  0.00    -0.023 N 
HETATM   44  C11 UNL     1      10.413 -19.799  -5.141  1.00  0.00     0.691 A 
ATOM     45  H4  UNL     1       9.810 -18.564  -3.618  1.00  0.00     0.203 HD
HETATM   46  N6  UNL     1      10.309 -21.024  -5.680  1.00  0.00    -0.175 N 
ATOM     47  H6  UNL     1      10.840 -21.232  -6.527  1.00  0.00     0.185 HD
BRANCH  41  48
HETATM   48  N3  UNL     1       8.299 -20.141  -2.402  1.00  0.00    -0.234 N 
ATOM     49  H32 UNL     1       8.545 -20.616  -1.533  1.00  0.00     0.174 HD
ATOM     50  H31 UNL     1       7.547 -19.453  -2.418  1.00  0.00     0.174 HD
ENDBRANCH  41  48
BRANCH  44  51
HETATM   51  N5  UNL     1      11.155 -18.867  -5.664  1.00  0.00    -0.234 N 
ATOM     52  H52 UNL     1      11.248 -17.942  -5.244  1.00  0.00     0.174 HD
ATOM     53  H51 UNL     1      11.658 -19.095  -6.521  1.00  0.00     0.174 HD
ENDBRANCH  44  51
ENDBRANCH   7  39
TORSDOF 15
ENDMDL
MODEL 4
REMARK VINA RESULT: -7.811008090      1.966      2.882
REMARK  15 active torsions:
REMARK  status: ('A' for Active; 'I' for Inactive)
REMARK    1  A    between atoms: C2_2  and  O1_3 
REMARK    2  A    between atoms: O1_3  and  C3_4 
REMARK    3  A    between atoms: C3_4  and  C4_6 
REMARK    4  A    between atoms: C8_12  and  O4_13 
REMARK    5  A    between atoms: C8_12  and  C9_15 
REMARK    6  A    between atoms: C10_18  and  N3_19 
REMARK    7  A    between atoms: C11_24  and  N5_25 
REMARK    8  A    between atoms: N7_30  and  C12_31 
REMARK    9  A    between atoms: N8_33  and  N9_34 
REMARK   10  A    between atoms: C14_37  and  N10_38 
REMARK   11  A    between atoms: C16_40  and  C17_41 
REMARK   12  A    between atoms: C17_41  and  O5_42 
REMARK   13  A    between atoms: O5_42  and  C18_43 
REMARK   14  A    between atoms: C18_43  and  C19_44 
REMARK   15  A    between atoms: C19_44  and  O6_47 
ROOT
HETATM    1  C4  UNL     1       5.744 -24.861  -4.357  1.00  0.00     0.220 C 
HETATM    2  C5  UNL     1       6.810 -25.559  -3.581  1.00  0.00     0.190 C 
HETATM    3  O3  UNL     1       6.383 -26.824  -3.133  1.00  0.00    -0.278 OA
HETATM    4  N1  UNL     1       6.689 -26.903  -1.827  1.00  0.00    -0.100 NA
HETATM    5  C6  UNL     1       6.229 -25.587  -1.344  1.00  0.00     0.155 C 
HETATM    6  C7  UNL     1       6.966 -24.708  -2.316  1.00  0.00     0.100 C 
HETATM    7  C8  UNL     1       6.253 -23.418  -2.639  1.00  0.00     0.204 C 
HETATM    8  N7  UNL     1       5.190 -23.822  -3.478  1.00  0.00    -0.310 N 
ENDROOT
BRANCH   8   9
HETATM    9  C12 UNL     1       3.808 -23.432  -3.576  1.00  0.00     0.141 A 
HETATM   10  C13 UNL     1       2.744 -24.235  -3.219  1.00  0.00     0.183 A 
HETATM   11  N8  UNL     1       1.594 -23.565  -3.465  1.00  0.00    -0.099 N 
HETATM   12  C14 UNL     1       1.920 -22.361  -3.970  1.00  0.00     0.724 A 
HETATM   13  N13 UNL     1       3.256 -22.298  -4.028  1.00  0.00    -0.172 N 
ATOM     14  H13 UNL     1       3.783 -21.494  -4.370  1.00  0.00     0.186 HD
BRANCH  11  15
HETATM   15  N9  UNL     1       0.317 -24.078  -3.225  1.00  0.00    -0.324 N 
ATOM     16  H92 UNL     1      -0.463 -24.150  -3.879  1.00  0.00     0.178 HD
ATOM     17  H91 UNL     1       0.010 -24.461  -2.331  1.00  0.00     0.178 HD
ENDBRANCH  11  15
BRANCH  12  18
HETATM   18  N10 UNL     1       0.924 -21.398  -4.348  1.00  0.00    -0.078 N 
HETATM   19  C15 UNL     1       0.332 -21.313  -5.580  1.00  0.00     0.161 A 
HETATM   20  C16 UNL     1      -0.577 -20.253  -5.573  1.00  0.00     0.065 A 
HETATM   21  N11 UNL     1      -0.498 -19.733  -4.337  1.00  0.00    -0.284 N 
HETATM   22  N12 UNL     1       0.393 -20.422  -3.629  1.00  0.00    -0.000 NA
ATOM     23  H11 UNL     1      -1.036 -18.936  -3.995  1.00  0.00     0.184 HD
BRANCH  20  24
HETATM   24  C17 UNL     1      -1.438 -19.797  -6.687  1.00  0.00     0.227 C 
BRANCH  24  25
HETATM   25  O5  UNL     1      -1.668 -18.435  -6.707  1.00  0.00    -0.382 OA
BRANCH  25  26
HETATM   26  C18 UNL     1      -0.552 -17.731  -7.091  1.00  0.00     0.205 C 
BRANCH  26  27
HETATM   27  C19 UNL     1      -0.618 -16.311  -6.564  1.00  0.00     0.072 C 
HETATM   28  C20 UNL     1       0.530 -16.045  -5.601  1.00  0.00     0.047 C 
HETATM   29  C21 UNL     1      -1.886 -16.004  -5.839  1.00  0.00     0.047 C 
BRANCH  27  30
HETATM   30  O6  UNL     1      -0.442 -15.441  -7.632  1.00  0.00    -0.388 OA
ATOM     31  H6  UNL     1      -0.824 -14.603  -7.401  1.00  0.00     0.210 HD
ENDBRANCH  27  30
ENDBRANCH  26  27
ENDBRANCH  25  26
ENDBRANCH  24  25
ENDBRANCH  20  24
ENDBRANCH  12  18
ENDBRANCH   8   9
BRANCH   1  32
HETATM   32  C3  UNL     1       6.297 -24.312  -5.613  1.00  0.00     0.284 C 
HETATM   33  O2  UNL     1       5.553 -23.762  -6.497  1.00  0.00    -0.263 OA
BRANCH  32  34
HETATM   34  O1  UNL     1       7.665 -24.340  -5.937  1.00  0.00    -0.320 OA
BRANCH  34  35
HETATM   35  C2  UNL     1       8.071 -24.593  -7.283  1.00  0.00     0.174 C 
HETATM   36  C1  UNL     1       8.547 -26.000  -7.452  1.00  0.00     0.034 C 
ENDBRANCH  34  35
ENDBRANCH  32  34
ENDBRANCH   1  32
BRANCH   7  37
HETATM   37  O4  UNL     1       7.175 -22.664  -3.408  1.00  0.00    -0.364 OA
ATOM     38  H4  UNL     1       6.648 -22.031  -3.882  1.00  0.00     0.213 HD
ENDBRANCH   7  37
BRANCH   7  39
HETATM   39  C9  UNL     1       5.932 -22.584  -1.485  1.00  0.00     0.169 A 
HETATM   40  N2  UNL     1       5.184 -22.905  -0.431  1.00  0.00    -0.175 N 
HETATM   41  C10 UNL     1       4.951 -22.029   0.590  1.00  0.00     0.691 A 
ATOM     42  H2  UNL     1       4.772 -23.837  -0.385  1.00  0.00     0.185 HD
HETATM   43  N4  UNL     1       5.481 -20.794   0.559  1.00  0.00    -0.023 N 
HETATM   44  C11 UNL     1       6.233 -20.447  -0.486  1.00  0.00     0.691 A 
ATOM     45  H4  UNL     1       5.311 -20.136   1.319  1.00  0.00     0.203 HD
HETATM   46  N6  UNL     1       6.452 -21.321  -1.482  1.00  0.00    -0.175 N 
ATOM     47  H6  UNL     1       7.033 -21.030  -2.269  1.00  0.00     0.185 HD
BRANCH  41  48
HETATM   48  N3  UNL     1       4.226 -22.370   1.602  1.00  0.00    -0.234 N 
ATOM     49  H32 UNL     1       4.660 -22.892   2.364  1.00  0.00     0.174 HD
ATOM     50  H31 UNL     1       3.236 -22.129   1.642  1.00  0.00     0.174 HD
ENDBRANCH  41  48
BRANCH  44  51
HETATM   51  N5  UNL     1       6.724 -19.243  -0.494  1.00  0.00    -0.234 N 
ATOM     52  H52 UNL     1       6.993 -18.767  -1.355  1.00  0.00     0.174 HD
ATOM     53  H51 UNL     1       6.830 -18.774   0.406  1.00  0.00     0.174 HD
ENDBRANCH  44  51
ENDBRANCH   7  39
TORSDOF 15
ENDMDL
MODEL 5
REMARK VINA RESULT: -7.807270073      3.279      4.544
REMARK  15 active torsions:
REMARK  status: ('A' for Active; 'I' for Inactive)
REMARK    1  A    between atoms: C2_2  and  O1_3 
REMARK    2  A    between atoms: O1_3  and  C3_4 
REMARK    3  A    between atoms: C3_4  and  C4_6 
REMARK    4  A    between atoms: C8_12  and  O4_13 
REMARK    5  A    between atoms: C8_12  and  C9_15 
REMARK    6  A    between atoms: C10_18  and  N3_19 
REMARK    7  A    between atoms: C11_24  and  N5_25 
REMARK    8  A    between atoms: N7_30  and  C12_31 
REMARK    9  A    between atoms: N8_33  and  N9_34 
REMARK   10  A    between atoms: C14_37  and  N10_38 
REMARK   11  A    between atoms: C16_40  and  C17_41 
REMARK   12  A    between atoms: C17_41  and  O5_42 
REMARK   13  A    between atoms: O5_42  and  C18_43 
REMARK   14  A    between atoms: C18_43  and  C19_44 
REMARK   15  A    between atoms: C19_44  and  O6_47 
ROOT
HETATM    1  C4  UNL     1       9.245 -25.383  -6.024  1.00  0.00     0.220 C 
HETATM    2  C5  UNL     1      10.703 -25.313  -6.334  1.00  0.00     0.190 C 
HETATM    3  O3  UNL     1      11.466 -26.052  -5.409  1.00  0.00    -0.278 OA
HETATM    4  N1  UNL     1      12.471 -25.258  -5.003  1.00  0.00    -0.100 NA
HETATM    5  C6  UNL     1      11.753 -23.993  -4.753  1.00  0.00     0.155 C 
HETATM    6  C7  UNL     1      11.065 -23.845  -6.082  1.00  0.00     0.100 C 
HETATM    7  C8  UNL     1       9.735 -23.136  -6.009  1.00  0.00     0.204 C 
HETATM    8  N7  UNL     1       8.875 -24.093  -5.426  1.00  0.00    -0.310 N 
ENDROOT
BRANCH   8   9
HETATM    9  C12 UNL     1       7.830 -24.010  -4.440  1.00  0.00     0.141 A 
HETATM   10  C13 UNL     1       7.930 -24.506  -3.155  1.00  0.00     0.183 A 
HETATM   11  N8  UNL     1       6.760 -24.279  -2.512  1.00  0.00    -0.099 N 
HETATM   12  C14 UNL     1       5.934 -23.655  -3.370  1.00  0.00     0.724 A 
HETATM   13  N13 UNL     1       6.595 -23.499  -4.524  1.00  0.00    -0.172 N 
ATOM     14  H13 UNL     1       6.209 -23.052  -5.356  1.00  0.00     0.186 HD
BRANCH  11  15
HETATM   15  N9  UNL     1       6.503 -24.654  -1.191  1.00  0.00    -0.324 N 
ATOM     16  H92 UNL     1       7.168 -24.736  -0.422  1.00  0.00     0.178 HD
ATOM     17  H91 UNL     1       5.580 -24.894  -0.831  1.00  0.00     0.178 HD
ENDBRANCH  11  15
BRANCH  12  18
HETATM   18  N10 UNL     1       4.598 -23.274  -3.002  1.00  0.00    -0.078 N 
HETATM   19  C15 UNL     1       3.454 -23.708  -3.616  1.00  0.00     0.161 A 
HETATM   20  C16 UNL     1       2.353 -23.121  -2.989  1.00  0.00     0.065 A 
HETATM   21  N11 UNL     1       2.873 -22.350  -2.020  1.00  0.00    -0.284 N 
HETATM   22  N12 UNL     1       4.199 -22.454  -2.044  1.00  0.00    -0.000 NA
ATOM     23  H11 UNL     1       2.337 -21.776  -1.369  1.00  0.00     0.184 HD
BRANCH  20  24
HETATM   24  C17 UNL     1       0.922 -23.304  -3.322  1.00  0.00     0.227 C 
BRANCH  24  25
HETATM   25  O5  UNL     1       0.245 -22.129  -3.586  1.00  0.00    -0.382 OA
BRANCH  25  26
HETATM   26  C18 UNL     1       0.661 -21.549  -4.760  1.00  0.00     0.205 C 
BRANCH  26  27
HETATM   27  C19 UNL     1       0.302 -20.077  -4.776  1.00  0.00     0.072 C 
HETATM   28  C20 UNL     1      -0.884 -19.825  -5.695  1.00  0.00     0.047 C 
HETATM   29  C21 UNL     1       1.417 -19.198  -5.239  1.00  0.00     0.047 C 
BRANCH  27  30
HETATM   30  O6  UNL     1      -0.108 -19.714  -3.499  1.00  0.00    -0.388 OA
ATOM     31  H6  UNL     1       0.470 -19.031  -3.183  1.00  0.00     0.210 HD
ENDBRANCH  27  30
ENDBRANCH  26  27
ENDBRANCH  25  26
ENDBRANCH  24  25
ENDBRANCH  20  24
ENDBRANCH  12  18
ENDBRANCH   8   9
BRANCH   1  32
HETATM   32  C3  UNL     1       8.473 -25.688  -7.247  1.00  0.00     0.284 C 
HETATM   33  O2  UNL     1       7.428 -25.025  -7.572  1.00  0.00    -0.263 OA
BRANCH  32  34
HETATM   34  O1  UNL     1       8.817 -26.713  -8.147  1.00  0.00    -0.320 OA
BRANCH  34  35
HETATM   35  C2  UNL     1       8.675 -28.080  -7.755  1.00  0.00     0.174 C 
HETATM   36  C1  UNL     1       9.825 -28.905  -8.234  1.00  0.00     0.034 C 
ENDBRANCH  34  35
ENDBRANCH  32  34
ENDBRANCH   1  32
BRANCH   7  37
HETATM   37  O4  UNL     1       9.344 -22.935  -7.357  1.00  0.00    -0.364 OA
ATOM     38  H4  UNL     1       8.416 -22.732  -7.321  1.00  0.00     0.213 HD
ENDBRANCH   7  37
BRANCH   7  39
HETATM   39  C9  UNL     1       9.777 -21.804  -5.411  1.00  0.00     0.169 A 
HETATM   40  N2  UNL     1       9.202 -21.400  -4.281  1.00  0.00    -0.175 N 
HETATM   41  C10 UNL     1       9.312 -20.117  -3.827  1.00  0.00     0.691 A 
ATOM     42  H2  UNL     1       8.661 -22.071  -3.736  1.00  0.00     0.185 HD
HETATM   43  N4  UNL     1      10.018 -19.209  -4.522  1.00  0.00    -0.023 N 
HETATM   44  C11 UNL     1      10.603 -19.588  -5.659  1.00  0.00     0.691 A 
ATOM     45  H4  UNL     1      10.104 -18.249  -4.187  1.00  0.00     0.203 HD
HETATM   46  N6  UNL     1      10.485 -20.854  -6.091  1.00  0.00    -0.175 N 
ATOM     47  H6  UNL     1      10.944 -21.117  -6.963  1.00  0.00     0.185 HD
BRANCH  41  48
HETATM   48  N3  UNL     1       8.748 -19.755  -2.723  1.00  0.00    -0.234 N 
ATOM     49  H32 UNL     1       7.736 -19.627  -2.707  1.00  0.00     0.174 HD
ATOM     50  H31 UNL     1       9.301 -19.595  -1.882  1.00  0.00     0.174 HD
ENDBRANCH  41  48
BRANCH  44  51
HETATM   51  N5  UNL     1      11.271 -18.686  -6.316  1.00  0.00    -0.234 N 
ATOM     52  H52 UNL     1      11.943 -18.065  -5.864  1.00  0.00     0.174 HD
ATOM     53  H51 UNL     1      11.106 -18.619  -7.320  1.00  0.00     0.174 HD
ENDBRANCH  44  51
ENDBRANCH   7  39
TORSDOF 15
ENDMDL
