MODEL 1
REMARK VINA RESULT: -6.234699244      0.000      0.000
REMARK  6 active torsions:
REMARK  status: ('A' for Active; 'I' for Inactive)
REMARK    1  A    between atoms: C2_2  and  C3_3 
REMARK    2  A    between atoms: C3_3  and  S1_4 
REMARK    3  A    between atoms: S1_4  and  C4_5 
REMARK    4  A    between atoms: C4_5  and  C5_6 
REMARK    5  A    between atoms: C6_7  and  C7_8 
REMARK    6  A    between atoms: C7_8  and  O1_9 
ROOT
HETATM    1  C7  UNL     1      61.734   9.728  33.620  1.00  0.00     0.125 C 
HETATM    2  C8  UNL     1      60.413  10.120  32.939  1.00  0.00     0.052 C 
HETATM    3  C9  UNL     1      60.765  11.570  32.571  1.00  0.00     0.009 C 
HETATM    4  C10 UNL     1      61.287  12.065  33.876  1.00  0.00    -0.002 C 
HETATM    5  C11 UNL     1      61.911  10.875  34.562  1.00  0.00     0.037 C 
HETATM    6  C12 UNL     1      63.364  11.092  34.875  1.00  0.00     0.010 C 
HETATM    7  C13 UNL     1      63.654  12.389  35.562  1.00  0.00     0.011 C 
HETATM    8  C14 UNL     1      62.911  13.569  35.042  1.00  0.00    -0.032 C 
HETATM    9  C15 UNL     1      62.097  14.215  36.111  1.00  0.00     0.014 C 
HETATM   10  C16 UNL     1      62.575  15.547  36.579  1.00  0.00     0.034 C 
HETATM   11  C17 UNL     1      64.046  15.703  36.608  1.00  0.00    -0.089 C 
HETATM   12  C18 UNL     1      64.646  16.350  37.585  1.00  0.00     0.014 C 
HETATM   13  C19 UNL     1      64.836  15.110  35.502  1.00  0.00     0.038 C 
HETATM   14  C20 UNL     1      63.866  14.634  34.484  1.00  0.00    -0.002 C 
HETATM   15  C21 UNL     1      64.423  13.909  33.310  1.00  0.00     0.006 C 
HETATM   16  C22 UNL     1      63.127  13.349  32.693  1.00  0.00     0.006 C 
HETATM   17  C23 UNL     1      62.127  13.271  33.783  1.00  0.00    -0.001 C 
ENDROOT
BRANCH   1  18
HETATM   18  C6  UNL     1      61.538   8.450  34.270  1.00  0.00    -0.067 C 
HETATM   19  C5  UNL     1      61.397   7.383  34.804  1.00  0.00    -0.093 C 
BRANCH  19  20
HETATM   20  C4  UNL     1      61.203   6.123  35.470  1.00  0.00     0.168 C 
BRANCH  20  21
HETATM   21  S1  UNL     1      61.067   6.114  37.227  1.00  0.00    -0.153 SA
BRANCH  21  22
HETATM   22  C3  UNL     1      60.065   7.363  37.991  1.00  0.00     0.101 C 
BRANCH  22  23
HETATM   23  C2  UNL     1      60.762   8.639  38.193  1.00  0.00    -0.027 C 
HETATM   24  C1  UNL     1      60.305   9.804  37.794  1.00  0.00     0.007 C 
ENDBRANCH  22  23
ENDBRANCH  21  22
ENDBRANCH  20  21
ENDBRANCH  19  20
ENDBRANCH   1  18
BRANCH   1  25
HETATM   25  O1  UNL     1      62.691   9.670  32.610  1.00  0.00    -0.377 OA
ATOM     26  H1  UNL     1      62.776  10.492  32.142  1.00  0.00     0.211 HD
ENDBRANCH   1  25
TORSDOF 6
ENDMDL
MODEL 2
REMARK VINA RESULT: -6.154953131      2.856      6.964
REMARK  6 active torsions:
REMARK  status: ('A' for Active; 'I' for Inactive)
REMARK    1  A    between atoms: C2_2  and  C3_3 
REMARK    2  A    between atoms: C3_3  and  S1_4 
REMARK    3  A    between atoms: S1_4  and  C4_5 
REMARK    4  A    between atoms: C4_5  and  C5_6 
REMARK    5  A    between atoms: C6_7  and  C7_8 
REMARK    6  A    between atoms: C7_8  and  O1_9 
ROOT
HETATM    1  C7  UNL     1      63.359  13.425  34.352  1.00  0.00     0.125 C 
HETATM    2  C8  UNL     1      64.756  13.254  33.737  1.00  0.00     0.052 C 
HETATM    3  C9  UNL     1      64.575  11.851  33.137  1.00  0.00     0.009 C 
HETATM    4  C10 UNL     1      64.011  11.123  34.308  1.00  0.00    -0.002 C 
HETATM    5  C11 UNL     1      63.227  12.138  35.102  1.00  0.00     0.037 C 
HETATM    6  C12 UNL     1      61.784  11.752  35.257  1.00  0.00     0.010 C 
HETATM    7  C13 UNL     1      61.574  10.347  35.724  1.00  0.00     0.011 C 
HETATM    8  C14 UNL     1      62.463   9.327  35.106  1.00  0.00    -0.032 C 
HETATM    9  C15 UNL     1      63.258   8.600  36.137  1.00  0.00     0.014 C 
HETATM   10  C16 UNL     1      62.881   7.177  36.368  1.00  0.00     0.034 C 
HETATM   11  C17 UNL     1      61.433   6.893  36.249  1.00  0.00    -0.089 C 
HETATM   12  C18 UNL     1      60.832   6.057  37.069  1.00  0.00     0.014 C 
HETATM   13  C19 UNL     1      60.670   7.575  35.177  1.00  0.00     0.038 C 
HETATM   14  C20 UNL     1      61.659   8.280  34.323  1.00  0.00    -0.002 C 
HETATM   15  C21 UNL     1      61.119   9.123  33.222  1.00  0.00     0.006 C 
HETATM   16  C22 UNL     1      62.394   9.878  32.803  1.00  0.00     0.006 C 
HETATM   17  C23 UNL     1      63.302   9.877  33.974  1.00  0.00    -0.001 C 
ENDROOT
BRANCH   1  18
HETATM   18  C6  UNL     1      63.382  14.603  35.193  1.00  0.00    -0.067 C 
HETATM   19  C5  UNL     1      63.384  15.572  35.903  1.00  0.00    -0.093 C 
BRANCH  19  20
HETATM   20  C4  UNL     1      63.427  16.735  36.747  1.00  0.00     0.168 C 
BRANCH  20  21
HETATM   21  S1  UNL     1      64.965  17.184  37.483  1.00  0.00    -0.153 SA
BRANCH  21  22
HETATM   22  C3  UNL     1      66.340  16.082  37.273  1.00  0.00     0.101 C 
BRANCH  22  23
HETATM   23  C2  UNL     1      66.022  14.678  37.554  1.00  0.00    -0.027 C 
HETATM   24  C1  UNL     1      66.575  13.655  36.943  1.00  0.00     0.007 C 
ENDBRANCH  22  23
ENDBRANCH  21  22
ENDBRANCH  20  21
ENDBRANCH  19  20
ENDBRANCH   1  18
BRANCH   1  25
HETATM   25  O1  UNL     1      62.475  13.551  33.284  1.00  0.00    -0.377 OA
ATOM     26  H1  UNL     1      62.146  12.712  32.983  1.00  0.00     0.211 HD
ENDBRANCH   1  25
TORSDOF 6
ENDMDL
MODEL 3
REMARK VINA RESULT: -6.100561545      1.968      2.482
REMARK  6 active torsions:
REMARK  status: ('A' for Active; 'I' for Inactive)
REMARK    1  A    between atoms: C2_2  and  C3_3 
REMARK    2  A    between atoms: C3_3  and  S1_4 
REMARK    3  A    between atoms: S1_4  and  C4_5 
REMARK    4  A    between atoms: C4_5  and  C5_6 
REMARK    5  A    between atoms: C6_7  and  C7_8 
REMARK    6  A    between atoms: C7_8  and  O1_9 
ROOT
HETATM    1  C7  UNL     1      62.072   8.877  34.793  1.00  0.00     0.125 C 
HETATM    2  C8  UNL     1      60.991   9.661  34.035  1.00  0.00     0.052 C 
HETATM    3  C9  UNL     1      61.899  10.676  33.322  1.00  0.00     0.009 C 
HETATM    4  C10 UNL     1      62.724  11.156  34.465  1.00  0.00    -0.002 C 
HETATM    5  C11 UNL     1      62.836   9.997  35.425  1.00  0.00     0.037 C 
HETATM    6  C12 UNL     1      64.261   9.599  35.678  1.00  0.00     0.010 C 
HETATM    7  C13 UNL     1      65.163  10.741  36.025  1.00  0.00     0.011 C 
HETATM    8  C14 UNL     1      64.959  11.981  35.229  1.00  0.00    -0.032 C 
HETATM    9  C15 UNL     1      64.632  13.143  36.105  1.00  0.00     0.014 C 
HETATM   10  C16 UNL     1      65.692  14.183  36.232  1.00  0.00     0.034 C 
HETATM   11  C17 UNL     1      67.077  13.660  36.224  1.00  0.00    -0.089 C 
HETATM   12  C18 UNL     1      68.001  14.166  37.013  1.00  0.00     0.014 C 
HETATM   13  C19 UNL     1      67.401  12.548  35.300  1.00  0.00     0.038 C 
HETATM   14  C20 UNL     1      66.216  12.349  34.428  1.00  0.00    -0.002 C 
HETATM   15  C21 UNL     1      66.267  11.212  33.470  1.00  0.00     0.006 C 
HETATM   16  C22 UNL     1      64.799  11.176  33.007  1.00  0.00     0.006 C 
HETATM   17  C23 UNL     1      63.991  11.799  34.081  1.00  0.00    -0.001 C 
ENDROOT
BRANCH   1  18
HETATM   18  C6  UNL     1      61.409   8.003  35.738  1.00  0.00    -0.067 C 
HETATM   19  C5  UNL     1      60.880   7.269  36.528  1.00  0.00    -0.093 C 
BRANCH  19  20
HETATM   20  C4  UNL     1      60.216   6.419  37.479  1.00  0.00     0.168 C 
BRANCH  20  21
HETATM   21  S1  UNL     1      59.455   7.162  38.884  1.00  0.00    -0.153 SA
BRANCH  21  22
HETATM   22  C3  UNL     1      60.021   8.768  39.384  1.00  0.00     0.101 C 
BRANCH  22  23
HETATM   23  C2  UNL     1      59.420   9.871  38.626  1.00  0.00    -0.027 C 
HETATM   24  C1  UNL     1      60.041  10.554  37.692  1.00  0.00     0.007 C 
ENDBRANCH  22  23
ENDBRANCH  21  22
ENDBRANCH  20  21
ENDBRANCH  19  20
ENDBRANCH   1  18
BRANCH   1  25
HETATM   25  O1  UNL     1      62.791   8.172  33.831  1.00  0.00    -0.377 OA
ATOM     26  H1  UNL     1      63.281   7.448  34.202  1.00  0.00     0.211 HD
ENDBRANCH   1  25
TORSDOF 6
ENDMDL
MODEL 4
REMARK VINA RESULT: -5.925757853      4.972      7.120
REMARK  6 active torsions:
REMARK  status: ('A' for Active; 'I' for Inactive)
REMARK    1  A    between atoms: C2_2  and  C3_3 
REMARK    2  A    between atoms: C3_3  and  S1_4 
REMARK    3  A    between atoms: S1_4  and  C4_5 
REMARK    4  A    between atoms: C4_5  and  C5_6 
REMARK    5  A    between atoms: C6_7  and  C7_8 
REMARK    6  A    between atoms: C7_8  and  O1_9 
ROOT
HETATM    1  C7  UNL     1      67.221  12.689  37.362  1.00  0.00     0.125 C 
HETATM    2  C8  UNL     1      67.769  13.950  36.676  1.00  0.00     0.052 C 
HETATM    3  C9  UNL     1      66.476  14.420  35.991  1.00  0.00     0.009 C 
HETATM    4  C10 UNL     1      66.038  13.157  35.335  1.00  0.00    -0.002 C 
HETATM    5  C11 UNL     1      66.523  12.031  36.215  1.00  0.00     0.037 C 
HETATM    6  C12 UNL     1      65.400  11.160  36.700  1.00  0.00     0.010 C 
HETATM    7  C13 UNL     1      64.468  10.706  35.621  1.00  0.00     0.011 C 
HETATM    8  C14 UNL     1      64.110  11.738  34.610  1.00  0.00    -0.032 C 
HETATM    9  C15 UNL     1      64.482  11.303  33.233  1.00  0.00     0.014 C 
HETATM   10  C16 UNL     1      63.348  10.964  32.327  1.00  0.00     0.034 C 
HETATM   11  C17 UNL     1      62.195  10.319  32.993  1.00  0.00    -0.089 C 
HETATM   12  C18 UNL     1      61.533   9.339  32.415  1.00  0.00     0.014 C 
HETATM   13  C19 UNL     1      61.796  10.808  34.335  1.00  0.00     0.038 C 
HETATM   14  C20 UNL     1      62.602  12.024  34.609  1.00  0.00    -0.002 C 
HETATM   15  C21 UNL     1      62.445  12.647  35.951  1.00  0.00     0.006 C 
HETATM   16  C22 UNL     1      63.622  13.641  35.932  1.00  0.00     0.006 C 
HETATM   17  C23 UNL     1      64.614  13.119  34.964  1.00  0.00    -0.001 C 
ENDROOT
BRANCH   1  18
HETATM   18  C6  UNL     1      68.346  11.940  37.881  1.00  0.00    -0.067 C 
HETATM   19  C5  UNL     1      69.293  11.330  38.298  1.00  0.00    -0.093 C 
BRANCH  19  20
HETATM   20  C4  UNL     1      70.407  10.595  38.833  1.00  0.00     0.168 C 
BRANCH  20  21
HETATM   21  S1  UNL     1      70.556   8.885  38.436  1.00  0.00    -0.153 SA
BRANCH  21  22
HETATM   22  C3  UNL     1      70.708   7.731  39.775  1.00  0.00     0.101 C 
BRANCH  22  23
HETATM   23  C2  UNL     1      69.745   6.625  39.716  1.00  0.00    -0.027 C 
HETATM   24  C1  UNL     1      69.883   5.561  38.958  1.00  0.00     0.007 C 
ENDBRANCH  22  23
ENDBRANCH  21  22
ENDBRANCH  20  21
ENDBRANCH  19  20
ENDBRANCH   1  18
BRANCH   1  25
HETATM   25  O1  UNL     1      66.367  13.132  38.368  1.00  0.00    -0.377 OA
ATOM     26  H1  UNL     1      66.530  12.701  39.199  1.00  0.00     0.211 HD
ENDBRANCH   1  25
TORSDOF 6
ENDMDL
MODEL 5
REMARK VINA RESULT: -5.924509153      2.139      2.556
REMARK  6 active torsions:
REMARK  status: ('A' for Active; 'I' for Inactive)
REMARK    1  A    between atoms: C2_2  and  C3_3 
REMARK    2  A    between atoms: C3_3  and  S1_4 
REMARK    3  A    between atoms: S1_4  and  C4_5 
REMARK    4  A    between atoms: C4_5  and  C5_6 
REMARK    5  A    between atoms: C6_7  and  C7_8 
REMARK    6  A    between atoms: C7_8  and  O1_9 
ROOT
HETATM    1  C7  UNL     1      62.077   9.469  34.806  1.00  0.00     0.125 C 
HETATM    2  C8  UNL     1      60.932  10.409  34.400  1.00  0.00     0.052 C 
HETATM    3  C9  UNL     1      61.770  11.547  33.799  1.00  0.00     0.009 C 
HETATM    4  C10 UNL     1      62.766  11.759  34.886  1.00  0.00    -0.002 C 
HETATM    5  C11 UNL     1      62.965  10.417  35.546  1.00  0.00     0.037 C 
HETATM    6  C12 UNL     1      64.395   9.962  35.497  1.00  0.00     0.010 C 
HETATM    7  C13 UNL     1      65.381  10.993  35.947  1.00  0.00     0.011 C 
HETATM    8  C14 UNL     1      65.116  12.380  35.476  1.00  0.00    -0.032 C 
HETATM    9  C15 UNL     1      64.962  13.324  36.620  1.00  0.00     0.014 C 
HETATM   10  C16 UNL     1      66.070  14.302  36.812  1.00  0.00     0.034 C 
HETATM   11  C17 UNL     1      67.418  13.783  36.491  1.00  0.00    -0.089 C 
HETATM   12  C18 UNL     1      68.463  14.096  37.227  1.00  0.00     0.014 C 
HETATM   13  C19 UNL     1      67.565  12.898  35.311  1.00  0.00     0.038 C 
HETATM   14  C20 UNL     1      66.263  12.903  34.599  1.00  0.00    -0.002 C 
HETATM   15  C21 UNL     1      66.134  12.004  33.422  1.00  0.00     0.006 C 
HETATM   16  C22 UNL     1      64.615  12.081  33.180  1.00  0.00     0.006 C 
HETATM   17  C23 UNL     1      63.991  12.461  34.469  1.00  0.00    -0.001 C 
ENDROOT
BRANCH   1  18
HETATM   18  C6  UNL     1      61.519   8.414  35.627  1.00  0.00    -0.067 C 
HETATM   19  C5  UNL     1      61.038   7.552  36.310  1.00  0.00    -0.093 C 
BRANCH  19  20
HETATM   20  C4  UNL     1      60.482   6.492  37.107  1.00  0.00     0.168 C 
BRANCH  20  21
HETATM   21  S1  UNL     1      59.612   6.914  38.581  1.00  0.00    -0.153 SA
BRANCH  21  22
HETATM   22  C3  UNL     1      59.535   8.627  39.039  1.00  0.00     0.101 C 
BRANCH  22  23
HETATM   23  C2  UNL     1      58.424   8.949  39.942  1.00  0.00    -0.027 C 
HETATM   24  C1  UNL     1      57.572   8.067  40.413  1.00  0.00     0.007 C 
ENDBRANCH  22  23
ENDBRANCH  21  22
ENDBRANCH  20  21
ENDBRANCH  19  20
ENDBRANCH   1  18
BRANCH   1  25
HETATM   25  O1  UNL     1      62.625   8.986  33.620  1.00  0.00    -0.377 OA
ATOM     26  H1  UNL     1      62.291   9.439  32.855  1.00  0.00     0.211 HD
ENDBRANCH   1  25
TORSDOF 6
ENDMDL
