MODEL 1
REMARK VINA RESULT: -12.381790861      0.000      0.000
REMARK  4 active torsions:
REMARK  status: ('A' for Active; 'I' for Inactive)
REMARK    1  A    between atoms: C2_7  and  N3_8 
REMARK    2  A    between atoms: N3_8  and  N4_9 
REMARK    3  A    between atoms: N4_9  and  C3_11 
REMARK    4  A    between atoms: C8_16  and  C9_17 
ROOT
HETATM    1  O1  UNL     1      13.889   4.672  -2.921  1.00  0.00    -0.264 OA
HETATM    2  C1  UNL     1      13.855   5.002  -4.128  1.00  0.00     0.287 A 
HETATM    3  N1  UNL     1      13.403   6.203  -4.471  1.00  0.00    -0.261 N 
ATOM      4  H1  UNL     1      13.089   6.847  -3.744  1.00  0.00     0.190 HD
HETATM    5  N2  UNL     1      13.354   6.580  -5.740  1.00  0.00    -0.255 N 
ATOM      6  H2  UNL     1      13.005   7.504  -5.995  1.00  0.00     0.191 HD
HETATM    7  C2  UNL     1      13.779   5.707  -6.702  1.00  0.00     0.296 A 
HETATM    8  N5  UNL     1      14.253   4.459  -6.331  1.00  0.00    -0.308 N 
ATOM      9  H5  UNL     1      14.575   3.823  -7.061  1.00  0.00     0.170 HD
HETATM   10  C15 UNL     1      14.309   4.055  -5.074  1.00  0.00     0.117 A 
HETATM   11  C16 UNL     1      14.770   2.801  -4.519  1.00  0.00     0.007 A 
HETATM   12  C17 UNL     1      13.831   2.096  -3.765  1.00  0.00     0.015 A 
HETATM   13  C18 UNL     1      14.161   0.905  -3.115  1.00  0.00     0.002 A 
HETATM   14  C19 UNL     1      15.454   0.423  -3.233  1.00  0.00     0.012 A 
HETATM   15  C20 UNL     1      16.374   1.102  -3.969  1.00  0.00    -0.025 A 
HETATM   16  C21 UNL     1      17.662   0.607  -4.082  1.00  0.00     0.012 A 
HETATM   17  C22 UNL     1      18.569   1.311  -4.832  1.00  0.00     0.001 A 
HETATM   18  C23 UNL     1      18.243   2.492  -5.474  1.00  0.00     0.001 A 
HETATM   19  C24 UNL     1      16.958   2.999  -5.367  1.00  0.00     0.013 A 
HETATM   20  C25 UNL     1      16.033   2.310  -4.626  1.00  0.00    -0.013 A 
ENDROOT
BRANCH   7  21
HETATM   21  N3  UNL     1      13.705   6.048  -7.861  1.00  0.00    -0.286 NA
BRANCH  21  22
HETATM   22  N4  UNL     1      13.657   6.405  -9.114  1.00  0.00    -0.232 N 
ATOM     23  H4  UNL     1      14.566   6.457  -9.575  1.00  0.00     0.202 HD
BRANCH  22  24
HETATM   24  C3  UNL     1      12.567   6.727  -9.934  1.00  0.00     0.072 A 
HETATM   25  C4  UNL     1      12.166   8.051 -10.236  1.00  0.00     0.033 A 
HETATM   26  C5  UNL     1      11.163   8.378 -11.050  1.00  0.00     0.002 A 
HETATM   27  C6  UNL     1      10.395   7.377 -11.698  1.00  0.00     0.001 A 
HETATM   28  C7  UNL     1      10.795   6.103 -11.391  1.00  0.00     0.014 A 
HETATM   29  C8  UNL     1      11.814   5.724 -10.562  1.00  0.00     0.003 A 
BRANCH  29  30
HETATM   30  C9  UNL     1      12.030   4.322 -10.307  1.00  0.00    -0.024 A 
HETATM   31  C10 UNL     1      13.150   3.664 -10.844  1.00  0.00     0.012 A 
HETATM   32  C11 UNL     1      13.344   2.318 -10.760  1.00  0.00     0.001 A 
HETATM   33  C12 UNL     1      12.423   1.505 -10.120  1.00  0.00     0.000 A 
HETATM   34  C13 UNL     1      11.313   2.147  -9.581  1.00  0.00     0.001 A 
HETATM   35  C14 UNL     1      11.124   3.520  -9.673  1.00  0.00     0.012 A 
ENDBRANCH  29  30
ENDBRANCH  22  24
ENDBRANCH  21  22
ENDBRANCH   7  21
TORSDOF 4
ENDMDL
MODEL 2
REMARK VINA RESULT: -11.679084314      1.076      3.456
REMARK  4 active torsions:
REMARK  status: ('A' for Active; 'I' for Inactive)
REMARK    1  A    between atoms: C2_7  and  N3_8 
REMARK    2  A    between atoms: N3_8  and  N4_9 
REMARK    3  A    between atoms: N4_9  and  C3_11 
REMARK    4  A    between atoms: C8_16  and  C9_17 
ROOT
HETATM    1  O1  UNL     1      13.999   4.769  -2.835  1.00  0.00    -0.264 OA
HETATM    2  C1  UNL     1      13.879   5.119  -4.031  1.00  0.00     0.287 A 
HETATM    3  N1  UNL     1      13.395   6.321  -4.322  1.00  0.00    -0.261 N 
ATOM      4  H1  UNL     1      13.127   6.950  -3.565  1.00  0.00     0.190 HD
HETATM    5  N2  UNL     1      13.253   6.717  -5.579  1.00  0.00    -0.255 N 
ATOM      6  H2  UNL     1      12.880   7.642  -5.793  1.00  0.00     0.191 HD
HETATM    7  C2  UNL     1      13.617   5.863  -6.583  1.00  0.00     0.296 A 
HETATM    8  N5  UNL     1      14.125   4.613  -6.265  1.00  0.00    -0.308 N 
ATOM      9  H5  UNL     1      14.400   3.991  -7.026  1.00  0.00     0.170 HD
HETATM   10  C15 UNL     1      14.272   4.191  -5.022  1.00  0.00     0.117 A 
HETATM   11  C16 UNL     1      14.781   2.932  -4.522  1.00  0.00     0.007 A 
HETATM   12  C17 UNL     1      13.902   2.207  -3.715  1.00  0.00     0.015 A 
HETATM   13  C18 UNL     1      14.286   1.009  -3.109  1.00  0.00     0.002 A 
HETATM   14  C19 UNL     1      15.571   0.540  -3.325  1.00  0.00     0.012 A 
HETATM   15  C20 UNL     1      16.432   1.238  -4.113  1.00  0.00    -0.025 A 
HETATM   16  C21 UNL     1      17.712   0.756  -4.324  1.00  0.00     0.012 A 
HETATM   17  C22 UNL     1      18.559   1.480  -5.124  1.00  0.00     0.001 A 
HETATM   18  C23 UNL     1      18.180   2.669  -5.722  1.00  0.00     0.001 A 
HETATM   19  C24 UNL     1      16.902   3.162  -5.517  1.00  0.00     0.013 A 
HETATM   20  C25 UNL     1      16.037   2.454  -4.724  1.00  0.00    -0.013 A 
ENDROOT
BRANCH   7  21
HETATM   21  N3  UNL     1      13.459   6.221  -7.727  1.00  0.00    -0.286 NA
BRANCH  21  22
HETATM   22  N4  UNL     1      13.261   6.589  -8.963  1.00  0.00    -0.232 N 
ATOM     23  H4  UNL     1      13.863   7.348  -9.281  1.00  0.00     0.202 HD
BRANCH  22  24
HETATM   24  C3  UNL     1      12.361   6.114  -9.926  1.00  0.00     0.072 A 
HETATM   25  C4  UNL     1      12.301   4.767 -10.361  1.00  0.00     0.033 A 
HETATM   26  C5  UNL     1      11.422   4.287 -11.239  1.00  0.00     0.002 A 
HETATM   27  C6  UNL     1      10.442   5.130 -11.825  1.00  0.00     0.001 A 
HETATM   28  C7  UNL     1      10.518   6.429 -11.395  1.00  0.00     0.014 A 
HETATM   29  C8  UNL     1      11.402   6.962 -10.500  1.00  0.00     0.003 A 
BRANCH  29  30
HETATM   30  C9  UNL     1      11.368   8.379 -10.234  1.00  0.00    -0.024 A 
HETATM   31  C10 UNL     1      10.582   8.889  -9.187  1.00  0.00     0.012 A 
HETATM   32  C11 UNL     1      10.392  10.220  -8.966  1.00  0.00     0.001 A 
HETATM   33  C12 UNL     1      10.985  11.168  -9.784  1.00  0.00     0.000 A 
HETATM   34  C13 UNL     1      11.769  10.674 -10.822  1.00  0.00     0.001 A 
HETATM   35  C14 UNL     1      11.955   9.315 -11.038  1.00  0.00     0.012 A 
ENDBRANCH  29  30
ENDBRANCH  22  24
ENDBRANCH  21  22
ENDBRANCH   7  21
TORSDOF 4
ENDMDL
MODEL 3
REMARK VINA RESULT: -11.173156376      1.215      3.060
REMARK  4 active torsions:
REMARK  status: ('A' for Active; 'I' for Inactive)
REMARK    1  A    between atoms: C2_7  and  N3_8 
REMARK    2  A    between atoms: N3_8  and  N4_9 
REMARK    3  A    between atoms: N4_9  and  C3_11 
REMARK    4  A    between atoms: C8_16  and  C9_17 
ROOT
HETATM    1  O1  UNL     1      14.448   5.160  -3.439  1.00  0.00    -0.264 OA
HETATM    2  C1  UNL     1      14.349   4.982  -4.674  1.00  0.00     0.287 A 
HETATM    3  N1  UNL     1      14.020   5.998  -5.464  1.00  0.00    -0.261 N 
ATOM      4  H1  UNL     1      13.853   6.917  -5.054  1.00  0.00     0.190 HD
HETATM    5  N2  UNL     1      13.905   5.839  -6.774  1.00  0.00    -0.255 N 
ATOM      6  H2  UNL     1      13.652   6.625  -7.373  1.00  0.00     0.191 HD
HETATM    7  C2  UNL     1      14.133   4.601  -7.309  1.00  0.00     0.296 A 
HETATM    8  N5  UNL     1      14.481   3.551  -6.475  1.00  0.00    -0.308 N 
ATOM      9  H5  UNL     1      14.656   2.636  -6.891  1.00  0.00     0.170 HD
HETATM   10  C15 UNL     1      14.597   3.680  -5.165  1.00  0.00     0.117 A 
HETATM   11  C16 UNL     1      14.948   2.698  -4.161  1.00  0.00     0.007 A 
HETATM   12  C17 UNL     1      13.999   2.502  -3.156  1.00  0.00     0.015 A 
HETATM   13  C18 UNL     1      14.236   1.635  -2.088  1.00  0.00     0.002 A 
HETATM   14  C19 UNL     1      15.444   0.959  -2.038  1.00  0.00     0.012 A 
HETATM   15  C20 UNL     1      16.372   1.143  -3.015  1.00  0.00    -0.025 A 
HETATM   16  C21 UNL     1      17.574   0.459  -2.956  1.00  0.00     0.012 A 
HETATM   17  C22 UNL     1      18.491   0.662  -3.955  1.00  0.00     0.001 A 
HETATM   18  C23 UNL     1      18.258   1.522  -5.013  1.00  0.00     0.001 A 
HETATM   19  C24 UNL     1      17.059   2.214  -5.082  1.00  0.00     0.013 A 
HETATM   20  C25 UNL     1      16.126   2.024  -4.096  1.00  0.00    -0.013 A 
ENDROOT
BRANCH   7  21
HETATM   21  N3  UNL     1      14.000   4.458  -8.503  1.00  0.00    -0.286 NA
BRANCH  21  22
HETATM   22  N4  UNL     1      13.837   4.276  -9.784  1.00  0.00    -0.232 N 
ATOM     23  H4  UNL     1      14.404   4.884 -10.374  1.00  0.00     0.202 HD
BRANCH  22  24
HETATM   24  C3  UNL     1      13.014   3.384 -10.484  1.00  0.00     0.072 A 
HETATM   25  C4  UNL     1      13.402   2.075 -10.863  1.00  0.00     0.033 A 
HETATM   26  C5  UNL     1      12.619   1.197 -11.487  1.00  0.00     0.002 A 
HETATM   27  C6  UNL     1      11.283   1.527 -11.829  1.00  0.00     0.001 A 
HETATM   28  C7  UNL     1      10.926   2.796 -11.458  1.00  0.00     0.014 A 
HETATM   29  C8  UNL     1      11.696   3.728 -10.821  1.00  0.00     0.003 A 
BRANCH  29  30
HETATM   30  C9  UNL     1      11.158   5.045 -10.585  1.00  0.00    -0.024 A 
HETATM   31  C10 UNL     1      11.367   6.078 -11.516  1.00  0.00     0.012 A 
HETATM   32  C11 UNL     1      11.009   7.374 -11.296  1.00  0.00     0.001 A 
HETATM   33  C12 UNL     1      10.401   7.752 -10.111  1.00  0.00     0.000 A 
HETATM   34  C13 UNL     1      10.185   6.737  -9.184  1.00  0.00     0.001 A 
HETATM   35  C14 UNL     1      10.555   5.419  -9.418  1.00  0.00     0.012 A 
ENDBRANCH  29  30
ENDBRANCH  22  24
ENDBRANCH  21  22
ENDBRANCH   7  21
TORSDOF 4
ENDMDL
MODEL 4
REMARK VINA RESULT: -11.005127705      2.900      8.845
REMARK  4 active torsions:
REMARK  status: ('A' for Active; 'I' for Inactive)
REMARK    1  A    between atoms: C2_7  and  N3_8 
REMARK    2  A    between atoms: N3_8  and  N4_9 
REMARK    3  A    between atoms: N4_9  and  C3_11 
REMARK    4  A    between atoms: C8_16  and  C9_17 
ROOT
HETATM    1  O1  UNL     1       8.878   9.510  -8.807  1.00  0.00    -0.264 OA
HETATM    2  C1  UNL     1       9.969   8.907  -8.683  1.00  0.00     0.287 A 
HETATM    3  N1  UNL     1      10.140   8.049  -7.684  1.00  0.00    -0.261 N 
ATOM      4  H1  UNL     1       9.376   7.888  -7.026  1.00  0.00     0.190 HD
HETATM    5  N2  UNL     1      11.283   7.399  -7.526  1.00  0.00    -0.255 N 
ATOM      6  H2  UNL     1      11.406   6.742  -6.756  1.00  0.00     0.191 HD
HETATM    7  C2  UNL     1      12.296   7.625  -8.417  1.00  0.00     0.296 A 
HETATM    8  N5  UNL     1      12.103   8.518  -9.458  1.00  0.00    -0.308 N 
ATOM      9  H5  UNL     1      12.867   8.669 -10.118  1.00  0.00     0.170 HD
HETATM   10  C15 UNL     1      10.976   9.184  -9.636  1.00  0.00     0.117 A 
HETATM   11  C16 UNL     1      10.612  10.142 -10.658  1.00  0.00     0.007 A 
HETATM   12  C17 UNL     1      10.236  11.403 -10.192  1.00  0.00     0.015 A 
HETATM   13  C18 UNL     1       9.797  12.402 -11.063  1.00  0.00     0.002 A 
HETATM   14  C19 UNL     1       9.739  12.121 -12.418  1.00  0.00     0.012 A 
HETATM   15  C20 UNL     1      10.107  10.896 -12.880  1.00  0.00    -0.025 A 
HETATM   16  C21 UNL     1      10.049  10.629 -14.237  1.00  0.00     0.012 A 
HETATM   17  C22 UNL     1      10.427   9.386 -14.675  1.00  0.00     0.001 A 
HETATM   18  C23 UNL     1      10.861   8.395 -13.812  1.00  0.00     0.001 A 
HETATM   19  C24 UNL     1      10.922   8.650 -12.452  1.00  0.00     0.013 A 
HETATM   20  C25 UNL     1      10.552   9.886 -11.991  1.00  0.00    -0.013 A 
ENDROOT
BRANCH   7  21
HETATM   21  N3  UNL     1      13.346   7.048  -8.250  1.00  0.00    -0.286 NA
BRANCH  21  22
HETATM   22  N4  UNL     1      14.466   6.412  -8.043  1.00  0.00    -0.232 N 
ATOM     23  H4  UNL     1      15.217   6.653  -8.690  1.00  0.00     0.202 HD
BRANCH  22  24
HETATM   24  C3  UNL     1      14.809   5.453  -7.080  1.00  0.00     0.072 A 
HETATM   25  C4  UNL     1      15.455   5.754  -5.856  1.00  0.00     0.033 A 
HETATM   26  C5  UNL     1      15.747   4.864  -4.908  1.00  0.00     0.002 A 
HETATM   27  C6  UNL     1      15.415   3.494  -5.068  1.00  0.00     0.001 A 
HETATM   28  C7  UNL     1      14.794   3.222  -6.258  1.00  0.00     0.014 A 
HETATM   29  C8  UNL     1      14.479   4.101  -7.256  1.00  0.00     0.003 A 
BRANCH  29  30
HETATM   30  C9  UNL     1      13.892   3.602  -8.475  1.00  0.00    -0.024 A 
HETATM   31  C10 UNL     1      12.577   3.105  -8.481  1.00  0.00     0.012 A 
HETATM   32  C11 UNL     1      12.007   2.494  -9.556  1.00  0.00     0.001 A 
HETATM   33  C12 UNL     1      12.714   2.329 -10.736  1.00  0.00     0.000 A 
HETATM   34  C13 UNL     1      14.014   2.821 -10.743  1.00  0.00     0.001 A 
HETATM   35  C14 UNL     1      14.586   3.443  -9.640  1.00  0.00     0.012 A 
ENDBRANCH  29  30
ENDBRANCH  22  24
ENDBRANCH  21  22
ENDBRANCH   7  21
TORSDOF 4
ENDMDL
MODEL 5
REMARK VINA RESULT: -10.979670646      3.070      5.881
REMARK  4 active torsions:
REMARK  status: ('A' for Active; 'I' for Inactive)
REMARK    1  A    between atoms: C2_7  and  N3_8 
REMARK    2  A    between atoms: N3_8  and  N4_9 
REMARK    3  A    between atoms: N4_9  and  C3_11 
REMARK    4  A    between atoms: C8_16  and  C9_17 
ROOT
HETATM    1  O1  UNL     1      13.584   2.110 -10.160  1.00  0.00    -0.264 OA
HETATM    2  C1  UNL     1      12.958   3.187 -10.292  1.00  0.00     0.287 A 
HETATM    3  N1  UNL     1      11.829   3.213 -10.992  1.00  0.00    -0.261 N 
ATOM      4  H1  UNL     1      11.482   2.352 -11.414  1.00  0.00     0.190 HD
HETATM    5  N2  UNL     1      11.147   4.338 -11.150  1.00  0.00    -0.255 N 
ATOM      6  H2  UNL     1      10.282   4.349 -11.690  1.00  0.00     0.191 HD
HETATM    7  C2  UNL     1      11.626   5.484 -10.577  1.00  0.00     0.296 A 
HETATM    8  N5  UNL     1      12.802   5.441  -9.845  1.00  0.00    -0.308 N 
ATOM      9  H5  UNL     1      13.141   6.304  -9.417  1.00  0.00     0.170 HD
HETATM   10  C15 UNL     1      13.504   4.335  -9.676  1.00  0.00     0.117 A 
HETATM   11  C16 UNL     1      14.738   4.119  -8.950  1.00  0.00     0.007 A 
HETATM   12  C17 UNL     1      15.796   3.608  -9.703  1.00  0.00     0.015 A 
HETATM   13  C18 UNL     1      17.022   3.288  -9.117  1.00  0.00     0.002 A 
HETATM   14  C19 UNL     1      17.178   3.489  -7.756  1.00  0.00     0.012 A 
HETATM   15  C20 UNL     1      16.153   3.989  -7.015  1.00  0.00    -0.025 A 
HETATM   16  C21 UNL     1      16.323   4.189  -5.656  1.00  0.00     0.012 A 
HETATM   17  C22 UNL     1      15.272   4.696  -4.934  1.00  0.00     0.001 A 
HETATM   18  C23 UNL     1      14.057   5.012  -5.514  1.00  0.00     0.001 A 
HETATM   19  C24 UNL     1      13.874   4.814  -6.873  1.00  0.00     0.013 A 
HETATM   20  C25 UNL     1      14.911   4.312  -7.616  1.00  0.00    -0.013 A 
ENDROOT
BRANCH   7  21
HETATM   21  N3  UNL     1      11.012   6.512 -10.749  1.00  0.00    -0.286 NA
BRANCH  21  22
HETATM   22  N4  UNL     1      10.374   7.636 -10.917  1.00  0.00    -0.232 N 
ATOM     23  H4  UNL     1       9.609   7.594 -11.591  1.00  0.00     0.202 HD
BRANCH  22  24
HETATM   24  C3  UNL     1      10.562   8.893 -10.326  1.00  0.00     0.072 A 
HETATM   25  C4  UNL     1      10.802   9.092  -8.943  1.00  0.00     0.033 A 
HETATM   26  C5  UNL     1      11.031  10.272  -8.371  1.00  0.00     0.002 A 
HETATM   27  C6  UNL     1      11.050  11.464  -9.140  1.00  0.00     0.001 A 
HETATM   28  C7  UNL     1      10.813  11.253 -10.472  1.00  0.00     0.014 A 
HETATM   29  C8  UNL     1      10.572  10.062 -11.100  1.00  0.00     0.003 A 
BRANCH  29  30
HETATM   30  C9  UNL     1      10.266  10.058 -12.509  1.00  0.00    -0.024 A 
HETATM   31  C10 UNL     1      10.995   9.245 -13.394  1.00  0.00     0.012 A 
HETATM   32  C11 UNL     1      10.855   9.292 -14.748  1.00  0.00     0.001 A 
HETATM   33  C12 UNL     1       9.959  10.166 -15.341  1.00  0.00     0.000 A 
HETATM   34  C13 UNL     1       9.229  10.972 -14.474  1.00  0.00     0.001 A 
HETATM   35  C14 UNL     1       9.379  10.916 -13.094  1.00  0.00     0.012 A 
ENDBRANCH  29  30
ENDBRANCH  22  24
ENDBRANCH  21  22
ENDBRANCH   7  21
TORSDOF 4
ENDMDL
