MODEL 1
REMARK VINA RESULT: -9.950252990      0.000      0.000
REMARK  2 active torsions:
REMARK  status: ('A' for Active; 'I' for Inactive)
REMARK    1  A    between atoms: C3_3  and  N1_4 
REMARK    2  A    between atoms: N1_4  and  C4_6 
ROOT
HETATM    1  C1  UNL     1      16.232   3.062  -5.901  1.00  0.00     0.014 C 
HETATM    2  C2  UNL     1      14.899   2.961  -5.209  1.00  0.00     0.032 C 
HETATM    3  C3  UNL     1      14.261   4.312  -5.082  1.00  0.00     0.083 C 
HETATM    4  C14 UNL     1      14.628   4.745  -3.710  1.00  0.00     0.028 C 
HETATM    5  C15 UNL     1      14.451   3.436  -2.913  1.00  0.00     0.034 C 
HETATM    6  C16 UNL     1      15.021   2.382  -3.842  1.00  0.00     0.046 C 
HETATM    7  C17 UNL     1      14.110   1.197  -3.712  1.00  0.00     0.134 C 
HETATM    8  C18 UNL     1      14.356   0.485  -2.429  1.00  0.00     0.221 C 
HETATM    9  O1  UNL     1      13.547   0.581  -1.502  1.00  0.00    -0.273 OA
HETATM   10  N2  UNL     1      15.525  -0.340  -2.184  1.00  0.00    -0.343 N 
ATOM     11  H2  UNL     1      15.478  -0.983  -1.394  1.00  0.00     0.163 HD
HETATM   12  C19 UNL     1      16.751  -0.339  -2.952  1.00  0.00     0.113 C 
HETATM   13  C20 UNL     1      16.609  -1.079  -4.269  1.00  0.00     0.041 C 
HETATM   14  C21 UNL     1      17.957  -1.596  -4.789  1.00  0.00     0.003 C 
HETATM   15  C22 UNL     1      18.478  -2.690  -3.895  1.00  0.00     0.000 C 
HETATM   16  C23 UNL     1      17.863  -2.518  -2.541  1.00  0.00     0.003 C 
HETATM   17  C24 UNL     1      17.793  -1.074  -2.134  1.00  0.00     0.041 C 
HETATM   18  C25 UNL     1      17.199   1.050  -3.219  1.00  0.00     0.246 C 
HETATM   19  O2  UNL     1      18.415   1.226  -3.239  1.00  0.00    -0.271 OA
HETATM   20  N3  UNL     1      16.387   2.166  -3.450  1.00  0.00    -0.349 N 
ATOM     21  H3  UNL     1      16.888   3.043  -3.303  1.00  0.00     0.163 HD
ENDROOT
BRANCH   3  22
HETATM   22  N1  UNL     1      14.437   5.087  -6.160  1.00  0.00    -0.408 N 
ATOM     23  H1  UNL     1      15.360   5.519  -6.194  1.00  0.00     0.154 HD
BRANCH  22  24
HETATM   24  C4  UNL     1      13.647   5.424  -7.224  1.00  0.00     0.027 C 
HETATM   25  C5  UNL     1      12.778   4.364  -7.798  1.00  0.00     0.035 C 
HETATM   26  C6  UNL     1      11.856   4.931  -8.896  1.00  0.00    -0.012 C 
HETATM   27  C7  UNL     1      10.995   6.048  -8.403  1.00  0.00     0.009 C 
HETATM   28  C11 UNL     1      12.719   5.448 -10.005  1.00  0.00     0.009 C 
HETATM   29  C8  UNL     1      11.897   7.118  -7.821  1.00  0.00    -0.012 C 
HETATM   30  C9  UNL     1      12.767   7.706  -8.914  1.00  0.00     0.009 C 
HETATM   31  C13 UNL     1      12.772   6.574  -6.766  1.00  0.00     0.035 C 
HETATM   32  C10 UNL     1      13.581   6.573  -9.449  1.00  0.00    -0.012 C 
HETATM   33  C12 UNL     1      14.475   5.941  -8.419  1.00  0.00     0.035 C 
ENDBRANCH  22  24
ENDBRANCH   3  22
TORSDOF 2
ENDMDL
MODEL 2
REMARK VINA RESULT: -9.919721201      1.589      2.163
REMARK  2 active torsions:
REMARK  status: ('A' for Active; 'I' for Inactive)
REMARK    1  A    between atoms: C3_3  and  N1_4 
REMARK    2  A    between atoms: N1_4  and  C4_6 
ROOT
HETATM    1  C1  UNL     1      15.974   3.888  -7.777  1.00  0.00     0.014 C 
HETATM    2  C2  UNL     1      14.809   3.838  -6.824  1.00  0.00     0.032 C 
HETATM    3  C3  UNL     1      14.037   5.122  -6.862  1.00  0.00     0.083 C 
HETATM    4  C14 UNL     1      14.583   5.893  -5.716  1.00  0.00     0.028 C 
HETATM    5  C15 UNL     1      14.720   4.797  -4.640  1.00  0.00     0.034 C 
HETATM    6  C16 UNL     1      15.246   3.607  -5.420  1.00  0.00     0.046 C 
HETATM    7  C17 UNL     1      14.532   2.412  -4.859  1.00  0.00     0.134 C 
HETATM    8  C18 UNL     1      15.092   2.042  -3.531  1.00  0.00     0.221 C 
HETATM    9  O1  UNL     1      14.455   2.283  -2.501  1.00  0.00    -0.273 OA
HETATM   10  N2  UNL     1      16.382   1.399  -3.358  1.00  0.00    -0.343 N 
ATOM     11  H2  UNL     1      16.558   0.957  -2.456  1.00  0.00     0.163 HD
HETATM   12  C19 UNL     1      17.441   1.325  -4.340  1.00  0.00     0.113 C 
HETATM   13  C20 UNL     1      17.163   0.288  -5.413  1.00  0.00     0.041 C 
HETATM   14  C21 UNL     1      18.452  -0.219  -6.072  1.00  0.00     0.003 C 
HETATM   15  C22 UNL     1      19.259  -1.026  -5.090  1.00  0.00     0.000 C 
HETATM   16  C23 UNL     1      18.879  -0.595  -3.708  1.00  0.00     0.003 C 
HETATM   17  C24 UNL     1      18.697   0.892  -3.612  1.00  0.00     0.041 C 
HETATM   18  C25 UNL     1      17.652   2.646  -4.981  1.00  0.00     0.246 C 
HETATM   19  O2  UNL     1      18.813   2.915  -5.283  1.00  0.00    -0.271 OA
HETATM   20  N3  UNL     1      16.676   3.605  -5.275  1.00  0.00    -0.349 N 
ATOM     21  H3  UNL     1      17.078   4.531  -5.422  1.00  0.00     0.163 HD
ENDROOT
BRANCH   3  22
HETATM   22  N1  UNL     1      13.917   5.636  -8.092  1.00  0.00    -0.408 N 
ATOM     23  H1  UNL     1      14.816   5.798  -8.546  1.00  0.00     0.154 HD
BRANCH  22  24
HETATM   24  C4  UNL     1      12.851   5.991  -8.872  1.00  0.00     0.027 C 
HETATM   25  C5  UNL     1      12.549   5.140 -10.052  1.00  0.00     0.035 C 
HETATM   26  C6  UNL     1      11.248   5.589 -10.747  1.00  0.00    -0.012 C 
HETATM   27  C7  UNL     1      10.071   5.576  -9.826  1.00  0.00     0.009 C 
HETATM   28  C11 UNL     1      11.447   6.987 -11.245  1.00  0.00     0.009 C 
HETATM   29  C8  UNL     1      10.397   6.447  -8.629  1.00  0.00    -0.012 C 
HETATM   30  C9  UNL     1      10.568   7.886  -9.074  1.00  0.00     0.009 C 
HETATM   31  C13 UNL     1      11.638   6.009  -7.963  1.00  0.00     0.035 C 
HETATM   32  C10 UNL     1      11.706   7.886 -10.044  1.00  0.00    -0.012 C 
HETATM   33  C12 UNL     1      13.002   7.416  -9.445  1.00  0.00     0.035 C 
ENDBRANCH  22  24
ENDBRANCH   3  22
TORSDOF 2
ENDMDL
MODEL 3
REMARK VINA RESULT: -9.843479834      1.622      2.621
REMARK  2 active torsions:
REMARK  status: ('A' for Active; 'I' for Inactive)
REMARK    1  A    between atoms: C3_3  and  N1_4 
REMARK    2  A    between atoms: N1_4  and  C4_6 
ROOT
HETATM    1  C1  UNL     1      15.956   3.873  -7.845  1.00  0.00     0.014 C 
HETATM    2  C2  UNL     1      14.813   3.851  -6.865  1.00  0.00     0.032 C 
HETATM    3  C3  UNL     1      14.052   5.142  -6.908  1.00  0.00     0.083 C 
HETATM    4  C14 UNL     1      14.632   5.927  -5.789  1.00  0.00     0.028 C 
HETATM    5  C15 UNL     1      14.783   4.848  -4.696  1.00  0.00     0.034 C 
HETATM    6  C16 UNL     1      15.280   3.640  -5.467  1.00  0.00     0.046 C 
HETATM    7  C17 UNL     1      14.568   2.462  -4.869  1.00  0.00     0.134 C 
HETATM    8  C18 UNL     1      15.154   2.110  -3.548  1.00  0.00     0.221 C 
HETATM    9  O1  UNL     1      14.543   2.375  -2.508  1.00  0.00    -0.273 OA
HETATM   10  N2  UNL     1      16.442   1.458  -3.393  1.00  0.00    -0.343 N 
ATOM     11  H2  UNL     1      16.635   1.030  -2.487  1.00  0.00     0.163 HD
HETATM   12  C19 UNL     1      17.478   1.356  -4.397  1.00  0.00     0.113 C 
HETATM   13  C20 UNL     1      17.166   0.304  -5.445  1.00  0.00     0.041 C 
HETATM   14  C21 UNL     1      18.435  -0.228  -6.124  1.00  0.00     0.003 C 
HETATM   15  C22 UNL     1      19.257  -1.025  -5.147  1.00  0.00     0.000 C 
HETATM   16  C23 UNL     1      18.911  -0.567  -3.765  1.00  0.00     0.003 C 
HETATM   17  C24 UNL     1      18.746   0.924  -3.691  1.00  0.00     0.041 C 
HETATM   18  C25 UNL     1      17.686   2.664  -5.067  1.00  0.00     0.246 C 
HETATM   19  O2  UNL     1      18.843   2.916  -5.399  1.00  0.00    -0.271 OA
HETATM   20  N3  UNL     1      16.713   3.627  -5.355  1.00  0.00    -0.349 N 
ATOM     21  H3  UNL     1      17.120   4.546  -5.527  1.00  0.00     0.163 HD
ENDROOT
BRANCH   3  22
HETATM   22  N1  UNL     1      13.909   5.635  -8.144  1.00  0.00    -0.408 N 
ATOM     23  H1  UNL     1      14.789   5.685  -8.658  1.00  0.00     0.154 HD
BRANCH  22  24
HETATM   24  C4  UNL     1      12.839   6.088  -8.866  1.00  0.00     0.027 C 
HETATM   25  C5  UNL     1      12.954   7.427  -9.498  1.00  0.00     0.035 C 
HETATM   26  C6  UNL     1      11.729   7.735 -10.382  1.00  0.00    -0.012 C 
HETATM   27  C7  UNL     1      11.520   6.712 -11.451  1.00  0.00     0.009 C 
HETATM   28  C11 UNL     1      10.517   7.760  -9.503  1.00  0.00     0.009 C 
HETATM   29  C8  UNL     1      11.407   5.353 -10.790  1.00  0.00    -0.012 C 
HETATM   30  C9  UNL     1      10.169   5.310  -9.916  1.00  0.00     0.009 C 
HETATM   31  C13 UNL     1      12.584   5.059  -9.950  1.00  0.00     0.035 C 
HETATM   32  C10 UNL     1      10.351   6.378  -8.886  1.00  0.00    -0.012 C 
HETATM   33  C12 UNL     1      11.556   6.166  -8.013  1.00  0.00     0.035 C 
ENDBRANCH  22  24
ENDBRANCH   3  22
TORSDOF 2
ENDMDL
MODEL 4
REMARK VINA RESULT: -9.753927185      4.638     10.353
REMARK  2 active torsions:
REMARK  status: ('A' for Active; 'I' for Inactive)
REMARK    1  A    between atoms: C3_3  and  N1_4 
REMARK    2  A    between atoms: N1_4  and  C4_6 
ROOT
HETATM    1  C1  UNL     1      12.450   7.988  -7.919  1.00  0.00     0.014 C 
HETATM    2  C2  UNL     1      11.710   6.748  -8.343  1.00  0.00     0.032 C 
HETATM    3  C3  UNL     1      12.401   5.517  -7.837  1.00  0.00     0.083 C 
HETATM    4  C14 UNL     1      13.228   5.082  -8.991  1.00  0.00     0.028 C 
HETATM    5  C15 UNL     1      12.264   5.319 -10.173  1.00  0.00     0.034 C 
HETATM    6  C16 UNL     1      11.604   6.639  -9.824  1.00  0.00     0.046 C 
HETATM    7  C17 UNL     1      10.165   6.485 -10.218  1.00  0.00     0.134 C 
HETATM    8  C18 UNL     1      10.013   6.571 -11.695  1.00  0.00     0.221 C 
HETATM    9  O1  UNL     1       9.785   5.552 -12.355  1.00  0.00    -0.273 OA
HETATM   10  N2  UNL     1      10.122   7.812 -12.439  1.00  0.00    -0.343 N 
ATOM     11  H2  UNL     1       9.751   7.814 -13.390  1.00  0.00     0.163 HD
HETATM   12  C19 UNL     1      10.706   9.048 -11.965  1.00  0.00     0.113 C 
HETATM   13  C20 UNL     1       9.786   9.795 -11.017  1.00  0.00     0.041 C 
HETATM   14  C21 UNL     1      10.090  11.299 -10.983  1.00  0.00     0.003 C 
HETATM   15  C22 UNL     1       9.731  11.934 -12.300  1.00  0.00     0.000 C 
HETATM   16  C23 UNL     1       9.763  10.873 -13.355  1.00  0.00     0.003 C 
HETATM   17  C24 UNL     1      10.921   9.935 -13.173  1.00  0.00     0.041 C 
HETATM   18  C25 UNL     1      11.999   8.787 -11.285  1.00  0.00     0.246 C 
HETATM   19  O2  UNL     1      12.861   9.652 -11.425  1.00  0.00    -0.271 OA
HETATM   20  N3  UNL     1      12.333   7.670 -10.511  1.00  0.00    -0.349 N 
ATOM     21  H3  UNL     1      13.342   7.561 -10.409  1.00  0.00     0.163 HD
ENDROOT
BRANCH   3  22
HETATM   22  N1  UNL     1      12.894   5.654  -6.601  1.00  0.00    -0.408 N 
ATOM     23  H1  UNL     1      12.461   6.416  -6.080  1.00  0.00     0.154 HD
BRANCH  22  24
HETATM   24  C4  UNL     1      13.854   4.992  -5.884  1.00  0.00     0.027 C 
HETATM   25  C5  UNL     1      15.274   5.272  -6.216  1.00  0.00     0.035 C 
HETATM   26  C6  UNL     1      16.229   4.557  -5.239  1.00  0.00    -0.012 C 
HETATM   27  C7  UNL     1      15.980   4.934  -3.815  1.00  0.00     0.009 C 
HETATM   28  C11 UNL     1      16.020   3.082  -5.385  1.00  0.00     0.009 C 
HETATM   29  C8  UNL     1      14.528   4.643  -3.494  1.00  0.00    -0.012 C 
HETATM   30  C9  UNL     1      14.272   3.152  -3.587  1.00  0.00     0.009 C 
HETATM   31  C13 UNL     1      13.618   5.335  -4.427  1.00  0.00     0.035 C 
HETATM   32  C10 UNL     1      14.582   2.765  -4.997  1.00  0.00    -0.012 C 
HETATM   33  C12 UNL     1      13.717   3.461  -6.011  1.00  0.00     0.035 C 
ENDBRANCH  22  24
ENDBRANCH   3  22
TORSDOF 2
ENDMDL
MODEL 5
REMARK VINA RESULT: -9.616395771      4.656     10.329
REMARK  2 active torsions:
REMARK  status: ('A' for Active; 'I' for Inactive)
REMARK    1  A    between atoms: C3_3  and  N1_4 
REMARK    2  A    between atoms: N1_4  and  C4_6 
ROOT
HETATM    1  C1  UNL     1      12.339   8.097  -7.850  1.00  0.00     0.014 C 
HETATM    2  C2  UNL     1      11.672   6.819  -8.280  1.00  0.00     0.032 C 
HETATM    3  C3  UNL     1      12.393   5.628  -7.722  1.00  0.00     0.083 C 
HETATM    4  C14 UNL     1      13.287   5.209  -8.831  1.00  0.00     0.028 C 
HETATM    5  C15 UNL     1      12.365   5.383 -10.057  1.00  0.00     0.034 C 
HETATM    6  C16 UNL     1      11.635   6.679  -9.762  1.00  0.00     0.046 C 
HETATM    7  C17 UNL     1      10.222   6.454 -10.213  1.00  0.00     0.134 C 
HETATM    8  C18 UNL     1      10.130   6.507 -11.697  1.00  0.00     0.221 C 
HETATM    9  O1  UNL     1       9.976   5.468 -12.346  1.00  0.00    -0.273 OA
HETATM   10  N2  UNL     1      10.217   7.739 -12.460  1.00  0.00    -0.343 N 
ATOM     11  H2  UNL     1       9.888   7.707 -13.425  1.00  0.00     0.163 HD
HETATM   12  C19 UNL     1      10.726   9.007 -11.986  1.00  0.00     0.113 C 
HETATM   13  C20 UNL     1       9.735   9.730 -11.092  1.00  0.00     0.041 C 
HETATM   14  C21 UNL     1       9.973  11.246 -11.075  1.00  0.00     0.003 C 
HETATM   15  C22 UNL     1       9.643  11.842 -12.417  1.00  0.00     0.000 C 
HETATM   16  C23 UNL     1       9.767  10.765 -13.449  1.00  0.00     0.003 C 
HETATM   17  C24 UNL     1      10.955   9.881 -13.201  1.00  0.00     0.041 C 
HETATM   18  C25 UNL     1      11.999   8.815 -11.247  1.00  0.00     0.246 C 
HETATM   19  O2  UNL     1      12.828   9.716 -11.366  1.00  0.00    -0.271 OA
HETATM   20  N3  UNL     1      12.347   7.729 -10.438  1.00  0.00    -0.349 N 
ATOM     21  H3  UNL     1      13.354   7.665 -10.291  1.00  0.00     0.163 HD
ENDROOT
BRANCH   3  22
HETATM   22  N1  UNL     1      12.826   5.808  -6.468  1.00  0.00    -0.408 N 
ATOM     23  H1  UNL     1      12.382   6.599  -6.002  1.00  0.00     0.154 HD
BRANCH  22  24
HETATM   24  C4  UNL     1      13.736   5.161  -5.678  1.00  0.00     0.027 C 
HETATM   25  C5  UNL     1      13.601   5.316  -4.206  1.00  0.00     0.035 C 
HETATM   26  C6  UNL     1      14.610   4.425  -3.455  1.00  0.00    -0.012 C 
HETATM   27  C7  UNL     1      14.470   2.979  -3.804  1.00  0.00     0.009 C 
HETATM   28  C11 UNL     1      15.989   4.873  -3.825  1.00  0.00     0.009 C 
HETATM   29  C8  UNL     1      14.608   2.839  -5.307  1.00  0.00    -0.012 C 
HETATM   30  C9  UNL     1      16.007   3.243  -5.732  1.00  0.00     0.009 C 
HETATM   31  C13 UNL     1      13.637   3.688  -6.022  1.00  0.00     0.035 C 
HETATM   32  C10 UNL     1      16.167   4.672  -5.324  1.00  0.00    -0.012 C 
HETATM   33  C12 UNL     1      15.183   5.596  -5.985  1.00  0.00     0.035 C 
ENDBRANCH  22  24
ENDBRANCH   3  22
TORSDOF 2
ENDMDL
