MODEL 1
REMARK VINA RESULT: -8.562988596      0.000      0.000
REMARK  8 active torsions:
REMARK  status: ('A' for Active; 'I' for Inactive)
REMARK    1  A    between atoms: C2_2  and  N1_5 
REMARK    2  A    between atoms: N1_5  and  C5_7 
REMARK    3  A    between atoms: C6_10  and  N3_11 
REMARK    4  A    between atoms: N3_11  and  C7_13 
REMARK    5  A    between atoms: C7_13  and  C8_14 
REMARK    6  A    between atoms: C8_14  and  C9_15 
REMARK    7  A    between atoms: C11_19  and  C12_20 
REMARK    8  A    between atoms: C16_24  and  C17_25 
ROOT
HETATM    1  C5  UNL     1      13.005   5.680  -6.249  1.00  0.00     0.680 A 
HETATM    2  N2  UNL     1      12.746   4.929  -7.297  1.00  0.00    -0.176 N 
ATOM      3  H2  UNL     1      12.928   3.928  -7.222  1.00  0.00     0.186 HD
HETATM    4  C6  UNL     1      12.243   5.408  -8.500  1.00  0.00     0.130 A 
HETATM    5  C10 UNL     1      11.978   6.742  -8.666  1.00  0.00     0.043 A 
HETATM    6  C11 UNL     1      11.501   7.318  -9.893  1.00  0.00    -0.027 A 
HETATM    7  C16 UNL     1      11.373   8.730  -9.854  1.00  0.00    -0.042 A 
HETATM    8  C21 UNL     1      11.677   9.424  -8.677  1.00  0.00     0.011 A 
HETATM    9  C22 UNL     1      12.114   8.847  -7.533  1.00  0.00     0.031 A 
HETATM   10  C23 UNL     1      12.271   7.503  -7.525  1.00  0.00     0.063 A 
HETATM   11  N4  UNL     1      12.764   6.970  -6.369  1.00  0.00    -0.191 N 
ATOM     12  H4  UNL     1      12.951   7.587  -5.577  1.00  0.00     0.184 HD
ENDROOT
BRANCH   4  13
HETATM   13  N3  UNL     1      12.131   4.555  -9.408  1.00  0.00    -0.375 N 
ATOM     14  H3  UNL     1      12.212   4.846 -10.382  1.00  0.00     0.161 HD
BRANCH  13  15
HETATM   15  C7  UNL     1      11.888   3.172  -9.099  1.00  0.00     0.132 C 
BRANCH  15  16
HETATM   16  C8  UNL     1      10.789   2.464  -9.783  1.00  0.00     0.132 C 
BRANCH  16  17
HETATM   17  C9  UNL     1      10.964   1.015  -9.967  1.00  0.00     0.174 C 
HETATM   18  O1  UNL     1      11.997   0.355  -9.716  1.00  0.00    -0.648 OA
HETATM   19  O2  UNL     1       9.889   0.258 -10.474  1.00  0.00    -0.648 OA
ENDBRANCH  16  17
ENDBRANCH  15  16
ENDBRANCH  13  15
ENDBRANCH   4  13
BRANCH   1  20
HETATM   20  N1  UNL     1      13.454   5.229  -5.179  1.00  0.00    -0.218 N 
ATOM     21  H1  UNL     1      12.885   5.481  -4.370  1.00  0.00     0.178 HD
BRANCH  20  22
HETATM   22  C2  UNL     1      14.577   4.444  -4.842  1.00  0.00     0.036 C 
HETATM   23  C1  UNL     1      15.002   4.720  -3.382  1.00  0.00     0.038 C 
HETATM   24  C3  UNL     1      15.822   4.690  -5.654  1.00  0.00     0.038 C 
HETATM   25  C4  UNL     1      14.195   2.979  -4.855  1.00  0.00     0.038 C 
ENDBRANCH  20  22
ENDBRANCH   1  20
BRANCH   6  26
HETATM   26  C12 UNL     1      11.128   6.452 -10.921  1.00  0.00    -0.023 C 
HETATM   27  C13 UNL     1      10.730   7.181 -12.232  1.00  0.00     0.019 C 
HETATM   28  C14 UNL     1      11.931   5.464 -11.670  1.00  0.00     0.019 C 
HETATM   29  C15 UNL     1       9.677   5.901 -10.734  1.00  0.00     0.019 C 
ENDBRANCH   6  26
BRANCH   7  30
HETATM   30  C17 UNL     1      11.215   9.550 -11.019  1.00  0.00    -0.024 C 
HETATM   31  C18 UNL     1      12.332   9.771 -12.002  1.00  0.00     0.019 C 
HETATM   32  C19 UNL     1       9.860   9.966 -11.527  1.00  0.00     0.019 C 
HETATM   33  C20 UNL     1      11.516  11.029 -10.381  1.00  0.00     0.019 C 
ENDBRANCH   7  30
TORSDOF 8
ENDMDL
MODEL 2
REMARK VINA RESULT: -8.558467022      0.611      1.046
REMARK  8 active torsions:
REMARK  status: ('A' for Active; 'I' for Inactive)
REMARK    1  A    between atoms: C2_2  and  N1_5 
REMARK    2  A    between atoms: N1_5  and  C5_7 
REMARK    3  A    between atoms: C6_10  and  N3_11 
REMARK    4  A    between atoms: N3_11  and  C7_13 
REMARK    5  A    between atoms: C7_13  and  C8_14 
REMARK    6  A    between atoms: C8_14  and  C9_15 
REMARK    7  A    between atoms: C11_19  and  C12_20 
REMARK    8  A    between atoms: C16_24  and  C17_25 
ROOT
HETATM    1  C5  UNL     1      12.974   5.810  -6.212  1.00  0.00     0.680 A 
HETATM    2  N2  UNL     1      12.635   5.014  -7.203  1.00  0.00    -0.176 N 
ATOM      3  H2  UNL     1      12.787   4.013  -7.082  1.00  0.00     0.186 HD
HETATM    4  C6  UNL     1      12.085   5.447  -8.403  1.00  0.00     0.130 A 
HETATM    5  C10 UNL     1      11.857   6.779  -8.629  1.00  0.00     0.043 A 
HETATM    6  C11 UNL     1      11.335   7.305  -9.860  1.00  0.00    -0.027 A 
HETATM    7  C16 UNL     1      11.257   8.722  -9.892  1.00  0.00    -0.042 A 
HETATM    8  C21 UNL     1      11.646   9.465  -8.771  1.00  0.00     0.011 A 
HETATM    9  C22 UNL     1      12.123   8.934  -7.622  1.00  0.00     0.031 A 
HETATM   10  C23 UNL     1      12.235   7.589  -7.548  1.00  0.00     0.063 A 
HETATM   11  N4  UNL     1      12.770   7.100  -6.390  1.00  0.00    -0.191 N 
ATOM     12  H4  UNL     1      13.019   7.751  -5.644  1.00  0.00     0.184 HD
ENDROOT
BRANCH   4  13
HETATM   13  N3  UNL     1      11.897   4.552  -9.255  1.00  0.00    -0.375 N 
ATOM     14  H3  UNL     1      11.236   4.713 -10.015  1.00  0.00     0.161 HD
BRANCH  13  15
HETATM   15  C7  UNL     1      12.599   3.298  -9.181  1.00  0.00     0.132 C 
BRANCH  15  16
HETATM   16  C8  UNL     1      11.825   2.047  -9.069  1.00  0.00     0.132 C 
BRANCH  16  17
HETATM   17  C9  UNL     1      10.948   1.721 -10.206  1.00  0.00     0.174 C 
HETATM   18  O1  UNL     1      10.875   2.345 -11.288  1.00  0.00    -0.648 OA
HETATM   19  O2  UNL     1      10.093   0.606 -10.107  1.00  0.00    -0.648 OA
ENDBRANCH  16  17
ENDBRANCH  15  16
ENDBRANCH  13  15
ENDBRANCH   4  13
BRANCH   1  20
HETATM   20  N1  UNL     1      13.463   5.401  -5.143  1.00  0.00    -0.218 N 
ATOM     21  H1  UNL     1      12.936   5.701  -4.322  1.00  0.00     0.178 HD
BRANCH  20  22
HETATM   22  C2  UNL     1      14.587   4.612  -4.820  1.00  0.00     0.036 C 
HETATM   23  C1  UNL     1      14.295   3.122  -5.109  1.00  0.00     0.038 C 
HETATM   24  C3  UNL     1      15.022   4.641  -3.378  1.00  0.00     0.038 C 
HETATM   25  C4  UNL     1      15.735   4.959  -5.745  1.00  0.00     0.038 C 
ENDBRANCH  20  22
ENDBRANCH   1  20
BRANCH   6  26
HETATM   26  C12 UNL     1      10.880   6.400 -10.818  1.00  0.00    -0.023 C 
HETATM   27  C13 UNL     1      10.001   7.052 -11.919  1.00  0.00     0.019 C 
HETATM   28  C14 UNL     1      11.632   5.624 -11.825  1.00  0.00     0.019 C 
HETATM   29  C15 UNL     1       9.678   5.546 -10.301  1.00  0.00     0.019 C 
ENDBRANCH   6  26
BRANCH   7  30
HETATM   30  C17 UNL     1      11.066   9.483 -11.091  1.00  0.00    -0.024 C 
HETATM   31  C18 UNL     1      12.032   9.424 -12.242  1.00  0.00     0.019 C 
HETATM   32  C19 UNL     1       9.745  10.121 -11.431  1.00  0.00     0.019 C 
HETATM   33  C20 UNL     1      11.728  10.913 -10.639  1.00  0.00     0.019 C 
ENDBRANCH   7  30
TORSDOF 8
ENDMDL
MODEL 3
REMARK VINA RESULT: -8.414765469      1.130      1.331
REMARK  8 active torsions:
REMARK  status: ('A' for Active; 'I' for Inactive)
REMARK    1  A    between atoms: C2_2  and  N1_5 
REMARK    2  A    between atoms: N1_5  and  C5_7 
REMARK    3  A    between atoms: C6_10  and  N3_11 
REMARK    4  A    between atoms: N3_11  and  C7_13 
REMARK    5  A    between atoms: C7_13  and  C8_14 
REMARK    6  A    between atoms: C8_14  and  C9_15 
REMARK    7  A    between atoms: C11_19  and  C12_20 
REMARK    8  A    between atoms: C16_24  and  C17_25 
ROOT
HETATM    1  C5  UNL     1      13.061   5.056  -7.271  1.00  0.00     0.680 A 
HETATM    2  N2  UNL     1      12.808   4.731  -8.520  1.00  0.00    -0.176 N 
ATOM      3  H2  UNL     1      13.060   3.792  -8.827  1.00  0.00     0.186 HD
HETATM    4  C6  UNL     1      12.219   5.582  -9.448  1.00  0.00     0.130 A 
HETATM    5  C10 UNL     1      11.858   6.856  -9.098  1.00  0.00     0.043 A 
HETATM    6  C11 UNL     1      11.288   7.807 -10.012  1.00  0.00    -0.027 A 
HETATM    7  C16 UNL     1      11.067   9.089  -9.445  1.00  0.00    -0.042 A 
HETATM    8  C21 UNL     1      11.376   9.316  -8.099  1.00  0.00     0.011 A 
HETATM    9  C22 UNL     1      11.901   8.392  -7.262  1.00  0.00     0.031 A 
HETATM   10  C23 UNL     1      12.149   7.159  -7.760  1.00  0.00     0.063 A 
HETATM   11  N4  UNL     1      12.729   6.275  -6.895  1.00  0.00    -0.191 N 
ATOM     12  H4  UNL     1      12.909   6.566  -5.934  1.00  0.00     0.184 HD
ENDROOT
BRANCH   4  13
HETATM   13  N3  UNL     1      12.124   5.122 -10.606  1.00  0.00    -0.375 N 
ATOM     14  H3  UNL     1      11.865   5.742 -11.373  1.00  0.00     0.161 HD
BRANCH  13  15
HETATM   15  C7  UNL     1      12.376   3.731 -10.875  1.00  0.00     0.132 C 
BRANCH  15  16
HETATM   16  C8  UNL     1      11.233   2.818 -11.068  1.00  0.00     0.132 C 
BRANCH  16  17
HETATM   17  C9  UNL     1      11.033   1.797 -10.026  1.00  0.00     0.174 C 
HETATM   18  O1  UNL     1      10.164   0.896 -10.029  1.00  0.00    -0.648 OA
HETATM   19  O2  UNL     1      11.879   1.799  -8.900  1.00  0.00    -0.648 OA
ENDBRANCH  16  17
ENDBRANCH  15  16
ENDBRANCH  13  15
ENDBRANCH   4  13
BRANCH   1  20
HETATM   20  N1  UNL     1      13.587   4.277  -6.455  1.00  0.00    -0.218 N 
ATOM     21  H1  UNL     1      12.935   3.583  -6.089  1.00  0.00     0.178 HD
BRANCH  20  22
HETATM   22  C2  UNL     1      14.889   4.145  -5.927  1.00  0.00     0.036 C 
HETATM   23  C1  UNL     1      15.269   5.407  -5.121  1.00  0.00     0.038 C 
HETATM   24  C3  UNL     1      15.998   3.989  -6.935  1.00  0.00     0.038 C 
HETATM   25  C4  UNL     1      14.913   3.024  -4.909  1.00  0.00     0.038 C 
ENDBRANCH  20  22
ENDBRANCH   1  20
BRANCH   6  26
HETATM   26  C12 UNL     1      10.929   7.359 -11.283  1.00  0.00    -0.023 C 
HETATM   27  C13 UNL     1      10.077   8.381 -12.083  1.00  0.00     0.019 C 
HETATM   28  C14 UNL     1      11.770   7.078 -12.465  1.00  0.00     0.019 C 
HETATM   29  C15 UNL     1       9.745   6.339 -11.238  1.00  0.00     0.019 C 
ENDBRANCH   6  26
BRANCH   7  30
HETATM   30  C17 UNL     1      10.802  10.268 -10.216  1.00  0.00    -0.024 C 
HETATM   31  C18 UNL     1      11.818  10.858 -11.154  1.00  0.00     0.019 C 
HETATM   32  C19 UNL     1       9.407  10.800 -10.409  1.00  0.00     0.019 C 
HETATM   33  C20 UNL     1      11.176  11.426  -9.119  1.00  0.00     0.019 C 
ENDBRANCH   7  30
TORSDOF 8
ENDMDL
MODEL 4
REMARK VINA RESULT: -8.396469732      1.973      2.330
REMARK  8 active torsions:
REMARK  status: ('A' for Active; 'I' for Inactive)
REMARK    1  A    between atoms: C2_2  and  N1_5 
REMARK    2  A    between atoms: N1_5  and  C5_7 
REMARK    3  A    between atoms: C6_10  and  N3_11 
REMARK    4  A    between atoms: N3_11  and  C7_13 
REMARK    5  A    between atoms: C7_13  and  C8_14 
REMARK    6  A    between atoms: C8_14  and  C9_15 
REMARK    7  A    between atoms: C11_19  and  C12_20 
REMARK    8  A    between atoms: C16_24  and  C17_25 
ROOT
HETATM    1  C5  UNL     1      13.098   5.905  -6.016  1.00  0.00     0.680 A 
HETATM    2  N2  UNL     1      12.856   5.088  -7.018  1.00  0.00    -0.176 N 
ATOM      3  H2  UNL     1      13.082   4.101  -6.893  1.00  0.00     0.186 HD
HETATM    4  C6  UNL     1      12.314   5.479  -8.237  1.00  0.00     0.130 A 
HETATM    5  C10 UNL     1      11.990   6.790  -8.469  1.00  0.00     0.043 A 
HETATM    6  C11 UNL     1      11.469   7.277  -9.717  1.00  0.00    -0.027 A 
HETATM    7  C16 UNL     1      11.281   8.683  -9.751  1.00  0.00    -0.042 A 
HETATM    8  C21 UNL     1      11.573   9.451  -8.618  1.00  0.00     0.011 A 
HETATM    9  C22 UNL     1      12.051   8.956  -7.453  1.00  0.00     0.031 A 
HETATM   10  C23 UNL     1      12.266   7.623  -7.376  1.00  0.00     0.063 A 
HETATM   11  N4  UNL     1      12.800   7.175  -6.201  1.00  0.00    -0.191 N 
ATOM     12  H4  UNL     1      12.971   7.841  -5.447  1.00  0.00     0.184 HD
ENDROOT
BRANCH   4  13
HETATM   13  N3  UNL     1      12.226   4.574  -9.095  1.00  0.00    -0.375 N 
ATOM     14  H3  UNL     1      11.500   4.630  -9.810  1.00  0.00     0.161 HD
BRANCH  13  15
HETATM   15  C7  UNL     1      13.130   3.456  -9.089  1.00  0.00     0.132 C 
BRANCH  15  16
HETATM   16  C8  UNL     1      14.378   3.536  -9.872  1.00  0.00     0.132 C 
BRANCH  16  17
HETATM   17  C9  UNL     1      15.559   4.051  -9.162  1.00  0.00     0.174 C 
HETATM   18  O1  UNL     1      16.645   3.451  -8.997  1.00  0.00    -0.648 OA
HETATM   19  O2  UNL     1      15.504   5.340  -8.595  1.00  0.00    -0.648 OA
ENDBRANCH  16  17
ENDBRANCH  15  16
ENDBRANCH  13  15
ENDBRANCH   4  13
BRANCH   1  20
HETATM   20  N1  UNL     1      13.582   5.532  -4.932  1.00  0.00    -0.218 N 
ATOM     21  H1  UNL     1      13.204   6.039  -4.131  1.00  0.00     0.178 HD
BRANCH  20  22
HETATM   22  C2  UNL     1      14.539   4.560  -4.569  1.00  0.00     0.036 C 
HETATM   23  C1  UNL     1      15.912   4.908  -5.188  1.00  0.00     0.038 C 
HETATM   24  C3  UNL     1      14.260   3.154  -5.030  1.00  0.00     0.038 C 
HETATM   25  C4  UNL     1      14.773   4.611  -3.074  1.00  0.00     0.038 C 
ENDBRANCH  20  22
ENDBRANCH   1  20
BRANCH   6  26
HETATM   26  C12 UNL     1      11.119   6.342 -10.690  1.00  0.00    -0.023 C 
HETATM   27  C13 UNL     1      10.168   6.906 -11.779  1.00  0.00     0.019 C 
HETATM   28  C14 UNL     1      11.952   5.675 -11.711  1.00  0.00     0.019 C 
HETATM   29  C15 UNL     1      10.024   5.346 -10.186  1.00  0.00     0.019 C 
ENDBRANCH   6  26
BRANCH   7  30
HETATM   30  C17 UNL     1      11.070   9.431 -10.955  1.00  0.00    -0.024 C 
HETATM   31  C18 UNL     1      12.072   9.444 -12.077  1.00  0.00     0.019 C 
HETATM   32  C19 UNL     1       9.717   9.971 -11.335  1.00  0.00     0.019 C 
HETATM   33  C20 UNL     1      11.612  10.904 -10.485  1.00  0.00     0.019 C 
ENDBRANCH   7  30
TORSDOF 8
ENDMDL
MODEL 5
REMARK VINA RESULT: -8.382957240      1.684      2.035
REMARK  8 active torsions:
REMARK  status: ('A' for Active; 'I' for Inactive)
REMARK    1  A    between atoms: C2_2  and  N1_5 
REMARK    2  A    between atoms: N1_5  and  C5_7 
REMARK    3  A    between atoms: C6_10  and  N3_11 
REMARK    4  A    between atoms: N3_11  and  C7_13 
REMARK    5  A    between atoms: C7_13  and  C8_14 
REMARK    6  A    between atoms: C8_14  and  C9_15 
REMARK    7  A    between atoms: C11_19  and  C12_20 
REMARK    8  A    between atoms: C16_24  and  C17_25 
ROOT
HETATM    1  C5  UNL     1      12.837   6.027  -6.241  1.00  0.00     0.680 A 
HETATM    2  N2  UNL     1      12.474   5.219  -7.213  1.00  0.00    -0.176 N 
ATOM      3  H2  UNL     1      12.603   4.217  -7.072  1.00  0.00     0.186 HD
HETATM    4  C6  UNL     1      11.927   5.639  -8.419  1.00  0.00     0.130 A 
HETATM    5  C10 UNL     1      11.728   6.971  -8.670  1.00  0.00     0.043 A 
HETATM    6  C11 UNL     1      11.211   7.484  -9.909  1.00  0.00    -0.027 A 
HETATM    7  C16 UNL     1      11.166   8.901  -9.970  1.00  0.00    -0.042 A 
HETATM    8  C21 UNL     1      11.579   9.658  -8.868  1.00  0.00     0.011 A 
HETATM    9  C22 UNL     1      12.050   9.140  -7.710  1.00  0.00     0.031 A 
HETATM   10  C23 UNL     1      12.132   7.794  -7.609  1.00  0.00     0.063 A 
HETATM   11  N4  UNL     1      12.663   7.317  -6.444  1.00  0.00    -0.191 N 
ATOM     12  H4  UNL     1      12.931   7.977  -5.714  1.00  0.00     0.184 HD
ENDROOT
BRANCH   4  13
HETATM   13  N3  UNL     1      11.712   4.731  -9.251  1.00  0.00    -0.375 N 
ATOM     14  H3  UNL     1      11.139   4.928 -10.072  1.00  0.00     0.161 HD
BRANCH  13  15
HETATM   15  C7  UNL     1      12.261   3.414  -9.070  1.00  0.00     0.132 C 
BRANCH  15  16
HETATM   16  C8  UNL     1      13.324   2.946  -9.979  1.00  0.00     0.132 C 
BRANCH  16  17
HETATM   17  C9  UNL     1      14.654   3.547  -9.788  1.00  0.00     0.174 C 
HETATM   18  O1  UNL     1      14.974   4.371  -8.902  1.00  0.00    -0.648 OA
HETATM   19  O2  UNL     1      15.695   3.188 -10.666  1.00  0.00    -0.648 OA
ENDBRANCH  16  17
ENDBRANCH  15  16
ENDBRANCH  13  15
ENDBRANCH   4  13
BRANCH   1  20
HETATM   20  N1  UNL     1      13.324   5.628  -5.166  1.00  0.00    -0.218 N 
ATOM     21  H1  UNL     1      12.799   5.943  -4.350  1.00  0.00     0.178 HD
BRANCH  20  22
HETATM   22  C2  UNL     1      14.442   4.834  -4.833  1.00  0.00     0.036 C 
HETATM   23  C1  UNL     1      14.238   3.387  -5.335  1.00  0.00     0.038 C 
HETATM   24  C3  UNL     1      14.734   4.690  -3.362  1.00  0.00     0.038 C 
HETATM   25  C4  UNL     1      15.658   5.329  -5.588  1.00  0.00     0.038 C 
ENDBRANCH  20  22
ENDBRANCH   1  20
BRANCH   6  26
HETATM   26  C12 UNL     1      10.729   6.571 -10.846  1.00  0.00    -0.023 C 
HETATM   27  C13 UNL     1       9.893   7.226 -11.978  1.00  0.00     0.019 C 
HETATM   28  C14 UNL     1      11.458   5.732 -11.818  1.00  0.00     0.019 C 
HETATM   29  C15 UNL     1       9.484   5.786 -10.320  1.00  0.00     0.019 C 
ENDBRANCH   6  26
BRANCH   7  30
HETATM   30  C17 UNL     1      10.984   9.642 -11.184  1.00  0.00    -0.024 C 
HETATM   31  C18 UNL     1      11.875   9.452 -12.380  1.00  0.00     0.019 C 
HETATM   32  C19 UNL     1       9.716  10.399 -11.477  1.00  0.00     0.019 C 
HETATM   33  C20 UNL     1      11.808  11.011 -10.817  1.00  0.00     0.019 C 
ENDBRANCH   7  30
TORSDOF 8
ENDMDL
