MODEL 1
REMARK VINA RESULT: -8.356462247      0.000      0.000
REMARK  6 active torsions:
REMARK  status: ('A' for Active; 'I' for Inactive)
REMARK    1  A    between atoms: C2_2  and  N1_4 
REMARK       I    between atoms: N1_4  and  C4_6 
REMARK       I    between atoms: C4_6  and  N2_8 
REMARK    2  A    between atoms: N2_8  and  C6_10 
REMARK    3  A    between atoms: C16_21  and  N3_22 
REMARK    4  A    between atoms: N3_22  and  C17_24 
REMARK    5  A    between atoms: C17_24  and  N4_26 
REMARK    6  A    between atoms: N4_26  and  C18_28 
ROOT
HETATM    1  C6  UNL     1      14.759   4.391  -7.498  1.00  0.00     0.088 C 
HETATM    2  C7  UNL     1      13.363   3.917  -7.225  1.00  0.00     0.028 C 
HETATM    3  C8  UNL     1      12.929   2.954  -8.309  1.00  0.00     0.042 C 
HETATM    4  C9  UNL     1      12.762   3.537  -9.649  1.00  0.00     0.081 C 
HETATM    5  C10 UNL     1      13.739   4.726  -9.738  1.00  0.00     0.042 C 
HETATM    6  C11 UNL     1      14.994   4.310  -9.011  1.00  0.00     0.028 C 
HETATM    7  O2  UNL     1      13.267   2.650 -10.654  1.00  0.00    -0.378 OA
HETATM    8  C12 UNL     1      12.829   1.368 -10.482  1.00  0.00     0.168 C 
HETATM    9  C13 UNL     1      11.779   1.017 -11.486  1.00  0.00     0.026 C 
HETATM   10  C14 UNL     1      10.727   2.065 -11.591  1.00  0.00     0.004 C 
HETATM   11  C15 UNL     1      10.513   2.726 -10.248  1.00  0.00     0.028 C 
HETATM   12  C16 UNL     1      11.426   3.946 -10.137  1.00  0.00     0.118 C 
ENDROOT
BRANCH  12  13
HETATM   13  N3  UNL     1      10.763   5.036  -9.558  1.00  0.00    -0.360 N 
ATOM     14  H3  UNL     1      10.451   4.899  -8.597  1.00  0.00     0.162 HD
BRANCH  13  15
HETATM   15  C17 UNL     1      10.469   6.290 -10.113  1.00  0.00     0.168 C 
HETATM   16  S1  UNL     1      10.128   6.545 -11.710  1.00  0.00    -0.041 SA
BRANCH  15  17
HETATM   17  N4  UNL     1      10.485   7.479  -9.282  1.00  0.00    -0.359 N 
ATOM     18  H4  UNL     1       9.596   7.852  -8.949  1.00  0.00     0.162 HD
BRANCH  17  19
HETATM   19  C18 UNL     1      11.683   8.149  -8.909  1.00  0.00     0.021 C 
HETATM   20  C19 UNL     1      12.376   7.508  -7.723  1.00  0.00     0.037 C 
HETATM   21  C20 UNL     1      12.697   8.227 -10.030  1.00  0.00     0.037 C 
HETATM   22  C21 UNL     1      11.361   9.571  -8.502  1.00  0.00     0.037 C 
ENDBRANCH  17  19
ENDBRANCH  15  17
ENDBRANCH  13  15
ENDBRANCH  12  13
BRANCH   1  23
HETATM   23  N2  UNL     1      15.782   3.741  -6.747  1.00  0.00    -0.334 N 
HETATM   24  C4  UNL     1      15.529   3.228  -5.452  1.00  0.00     0.318 C 
HETATM   25  N1  UNL     1      14.324   3.265  -4.740  1.00  0.00    -0.339 N 
HETATM   26  O1  UNL     1      16.502   2.650  -4.823  1.00  0.00    -0.247 OA
ATOM     27  H1  UNL     1      13.509   3.703  -5.169  1.00  0.00     0.164 HD
HETATM   28  C5  UNL     1      17.146   3.570  -7.272  1.00  0.00     0.154 C 
BRANCH  25  29
HETATM   29  C2  UNL     1      14.201   2.700  -3.415  1.00  0.00     0.078 C 
HETATM   30  C1  UNL     1      13.832   1.248  -3.409  1.00  0.00     0.032 C 
HETATM   31  C3  UNL     1      13.144   3.432  -2.603  1.00  0.00     0.032 C 
ENDBRANCH  25  29
ENDBRANCH   1  23
TORSDOF 6
ENDMDL
MODEL 2
REMARK VINA RESULT: -8.042817881      1.676      2.124
REMARK  6 active torsions:
REMARK  status: ('A' for Active; 'I' for Inactive)
REMARK    1  A    between atoms: C2_2  and  N1_4 
REMARK       I    between atoms: N1_4  and  C4_6 
REMARK       I    between atoms: C4_6  and  N2_8 
REMARK    2  A    between atoms: N2_8  and  C6_10 
REMARK    3  A    between atoms: C16_21  and  N3_22 
REMARK    4  A    between atoms: N3_22  and  C17_24 
REMARK    5  A    between atoms: C17_24  and  N4_26 
REMARK    6  A    between atoms: N4_26  and  C18_28 
ROOT
HETATM    1  C6  UNL     1      15.579   4.400  -6.233  1.00  0.00     0.088 C 
HETATM    2  C7  UNL     1      14.107   4.130  -6.149  1.00  0.00     0.028 C 
HETATM    3  C8  UNL     1      13.608   3.608  -7.480  1.00  0.00     0.042 C 
HETATM    4  C9  UNL     1      13.646   4.567  -8.594  1.00  0.00     0.081 C 
HETATM    5  C10 UNL     1      14.810   5.535  -8.304  1.00  0.00     0.042 C 
HETATM    6  C11 UNL     1      15.917   4.710  -7.696  1.00  0.00     0.028 C 
HETATM    7  O2  UNL     1      14.075   3.925  -9.801  1.00  0.00    -0.378 OA
HETATM    8  C12 UNL     1      13.419   2.748 -10.025  1.00  0.00     0.168 C 
HETATM    9  C13 UNL     1      12.409   2.892 -11.116  1.00  0.00     0.026 C 
HETATM   10  C14 UNL     1      11.556   4.100 -10.938  1.00  0.00     0.004 C 
HETATM   11  C15 UNL     1      11.348   4.381  -9.467  1.00  0.00     0.028 C 
HETATM   12  C16 UNL     1      12.438   5.333  -8.979  1.00  0.00     0.118 C 
ENDROOT
BRANCH  12  13
HETATM   13  N3  UNL     1      11.922   6.316  -8.125  1.00  0.00    -0.360 N 
ATOM     14  H3  UNL     1      11.960   6.095  -7.130  1.00  0.00     0.162 HD
BRANCH  13  15
HETATM   15  C17 UNL     1      11.359   7.560  -8.445  1.00  0.00     0.168 C 
HETATM   16  S1  UNL     1      11.457   8.901  -7.484  1.00  0.00    -0.041 SA
BRANCH  15  17
HETATM   17  N4  UNL     1      10.601   7.725  -9.670  1.00  0.00    -0.359 N 
ATOM     18  H4  UNL     1       9.649   7.360  -9.706  1.00  0.00     0.162 HD
BRANCH  17  19
HETATM   19  C18 UNL     1      11.122   8.373 -10.824  1.00  0.00     0.021 C 
HETATM   20  C19 UNL     1      10.536   9.753 -11.045  1.00  0.00     0.037 C 
HETATM   21  C20 UNL     1      12.628   8.526 -10.794  1.00  0.00     0.037 C 
HETATM   22  C21 UNL     1      10.784   7.559 -12.056  1.00  0.00     0.037 C 
ENDBRANCH  17  19
ENDBRANCH  15  17
ENDBRANCH  13  15
ENDBRANCH  12  13
BRANCH   1  23
HETATM   23  N2  UNL     1      16.418   3.390  -5.677  1.00  0.00    -0.334 N 
HETATM   24  C4  UNL     1      15.972   2.570  -4.613  1.00  0.00     0.318 C 
HETATM   25  N1  UNL     1      14.728   2.604  -3.972  1.00  0.00    -0.339 N 
HETATM   26  O1  UNL     1      16.784   1.672  -4.153  1.00  0.00    -0.247 OA
ATOM     27  H1  UNL     1      14.033   3.284  -4.278  1.00  0.00     0.164 HD
HETATM   28  C5  UNL     1      17.782   3.147  -6.174  1.00  0.00     0.154 C 
BRANCH  25  29
HETATM   29  C2  UNL     1      14.400   1.703  -2.889  1.00  0.00     0.078 C 
HETATM   30  C1  UNL     1      13.733   0.440  -3.337  1.00  0.00     0.032 C 
HETATM   31  C3  UNL     1      13.471   2.368  -1.886  1.00  0.00     0.032 C 
ENDBRANCH  25  29
ENDBRANCH   1  23
TORSDOF 6
ENDMDL
MODEL 3
REMARK VINA RESULT: -8.024236732      3.218      7.563
REMARK  6 active torsions:
REMARK  status: ('A' for Active; 'I' for Inactive)
REMARK    1  A    between atoms: C2_2  and  N1_4 
REMARK       I    between atoms: N1_4  and  C4_6 
REMARK       I    between atoms: C4_6  and  N2_8 
REMARK    2  A    between atoms: N2_8  and  C6_10 
REMARK    3  A    between atoms: C16_21  and  N3_22 
REMARK    4  A    between atoms: N3_22  and  C17_24 
REMARK    5  A    between atoms: C17_24  and  N4_26 
REMARK    6  A    between atoms: N4_26  and  C18_28 
ROOT
HETATM    1  C6  UNL     1      11.014   7.940 -10.826  1.00  0.00     0.088 C 
HETATM    2  C7  UNL     1      12.341   7.297 -10.551  1.00  0.00     0.028 C 
HETATM    3  C8  UNL     1      12.201   5.791 -10.615  1.00  0.00     0.042 C 
HETATM    4  C9  UNL     1      11.378   5.183  -9.558  1.00  0.00     0.081 C 
HETATM    5  C10 UNL     1      10.334   6.240  -9.148  1.00  0.00     0.042 C 
HETATM    6  C11 UNL     1       9.919   6.950 -10.413  1.00  0.00     0.028 C 
HETATM    7  O2  UNL     1      10.561   4.135 -10.093  1.00  0.00    -0.378 OA
HETATM    8  C12 UNL     1      11.267   3.281 -10.891  1.00  0.00     0.168 C 
HETATM    9  C13 UNL     1      11.516   1.980 -10.201  1.00  0.00     0.026 C 
HETATM   10  C14 UNL     1      12.030   2.166  -8.816  1.00  0.00     0.004 C 
HETATM   11  C15 UNL     1      12.883   3.412  -8.738  1.00  0.00     0.028 C 
HETATM   12  C16 UNL     1      12.004   4.599  -8.350  1.00  0.00     0.118 C 
ENDROOT
BRANCH  12  13
HETATM   13  N3  UNL     1      12.636   5.424  -7.411  1.00  0.00    -0.360 N 
ATOM     14  H3  UNL     1      12.015   6.023  -6.866  1.00  0.00     0.162 HD
BRANCH  13  15
HETATM   15  C17 UNL     1      14.001   5.544  -7.114  1.00  0.00     0.168 C 
HETATM   16  S1  UNL     1      15.203   5.576  -8.248  1.00  0.00    -0.041 SA
BRANCH  15  17
HETATM   17  N4  UNL     1      14.445   5.612  -5.734  1.00  0.00    -0.359 N 
ATOM     18  H4  UNL     1      14.406   6.511  -5.255  1.00  0.00     0.162 HD
BRANCH  17  19
HETATM   19  C18 UNL     1      14.932   4.483  -5.019  1.00  0.00     0.021 C 
HETATM   20  C19 UNL     1      14.160   3.213  -5.318  1.00  0.00     0.037 C 
HETATM   21  C20 UNL     1      16.393   4.191  -5.285  1.00  0.00     0.037 C 
HETATM   22  C21 UNL     1      14.793   4.730  -3.531  1.00  0.00     0.037 C 
ENDBRANCH  17  19
ENDBRANCH  15  17
ENDBRANCH  13  15
ENDBRANCH  12  13
BRANCH   1  23
HETATM   23  N2  UNL     1      10.839   8.432 -12.153  1.00  0.00    -0.334 N 
HETATM   24  C4  UNL     1      10.270   9.705 -12.394  1.00  0.00     0.318 C 
HETATM   25  N1  UNL     1       9.818  10.632 -11.447  1.00  0.00    -0.339 N 
HETATM   26  O1  UNL     1      10.137  10.092 -13.623  1.00  0.00    -0.247 OA
ATOM     27  H1  UNL     1       9.890  10.401 -10.456  1.00  0.00     0.164 HD
HETATM   28  C5  UNL     1      11.234   7.648 -13.335  1.00  0.00     0.154 C 
BRANCH  25  29
HETATM   29  C2  UNL     1       9.253  11.906 -11.832  1.00  0.00     0.078 C 
HETATM   30  C1  UNL     1      10.248  12.850 -12.434  1.00  0.00     0.032 C 
HETATM   31  C3  UNL     1       8.633  12.613 -10.638  1.00  0.00     0.032 C 
ENDBRANCH  25  29
ENDBRANCH   1  23
TORSDOF 6
ENDMDL
MODEL 4
REMARK VINA RESULT: -7.986360140      3.292      5.969
REMARK  6 active torsions:
REMARK  status: ('A' for Active; 'I' for Inactive)
REMARK    1  A    between atoms: C2_2  and  N1_4 
REMARK       I    between atoms: N1_4  and  C4_6 
REMARK       I    between atoms: C4_6  and  N2_8 
REMARK    2  A    between atoms: N2_8  and  C6_10 
REMARK    3  A    between atoms: C16_21  and  N3_22 
REMARK    4  A    between atoms: N3_22  and  C17_24 
REMARK    5  A    between atoms: C17_24  and  N4_26 
REMARK    6  A    between atoms: N4_26  and  C18_28 
ROOT
HETATM    1  C6  UNL     1      10.864   4.820 -10.564  1.00  0.00     0.088 C 
HETATM    2  C7  UNL     1      11.906   5.761 -11.089  1.00  0.00     0.028 C 
HETATM    3  C8  UNL     1      11.988   6.981 -10.196  1.00  0.00     0.042 C 
HETATM    4  C9  UNL     1      10.804   7.854 -10.201  1.00  0.00     0.081 C 
HETATM    5  C10 UNL     1       9.592   6.953 -10.507  1.00  0.00     0.042 C 
HETATM    6  C11 UNL     1       9.831   5.648  -9.789  1.00  0.00     0.028 C 
HETATM    7  O2  UNL     1      10.513   8.321  -8.878  1.00  0.00    -0.378 OA
HETATM    8  C12 UNL     1      11.623   8.793  -8.238  1.00  0.00     0.168 C 
HETATM    9  C13 UNL     1      11.613  10.285  -8.169  1.00  0.00     0.026 C 
HETATM   10  C14 UNL     1      11.294  10.908  -9.483  1.00  0.00     0.004 C 
HETATM   11  C15 UNL     1      11.835  10.056 -10.610  1.00  0.00     0.028 C 
HETATM   12  C16 UNL     1      10.758   9.066 -11.051  1.00  0.00     0.118 C 
ENDROOT
BRANCH  12  13
HETATM   13  N3  UNL     1      10.704   8.950 -12.446  1.00  0.00    -0.360 N 
ATOM     14  H3  UNL     1      11.237   8.176 -12.843  1.00  0.00     0.162 HD
BRANCH  13  15
HETATM   15  C17 UNL     1      10.021   9.748 -13.375  1.00  0.00     0.168 C 
HETATM   16  S1  UNL     1      10.286   9.716 -15.006  1.00  0.00    -0.041 SA
BRANCH  15  17
HETATM   17  N4  UNL     1       9.030  10.708 -12.924  1.00  0.00    -0.359 N 
ATOM     18  H4  UNL     1       8.107  10.365 -12.659  1.00  0.00     0.162 HD
BRANCH  17  19
HETATM   19  C18 UNL     1       9.287  12.104 -12.833  1.00  0.00     0.021 C 
HETATM   20  C19 UNL     1      10.766  12.437 -12.849  1.00  0.00     0.037 C 
HETATM   21  C20 UNL     1       8.636  12.904 -13.941  1.00  0.00     0.037 C 
HETATM   22  C21 UNL     1       8.741  12.634 -11.524  1.00  0.00     0.037 C 
ENDBRANCH  17  19
ENDBRANCH  15  17
ENDBRANCH  13  15
ENDBRANCH  12  13
BRANCH   1  23
HETATM   23  N2  UNL     1      11.362   3.717  -9.810  1.00  0.00    -0.334 N 
HETATM   24  C4  UNL     1      12.261   3.909  -8.734  1.00  0.00     0.318 C 
HETATM   25  N1  UNL     1      12.777   5.121  -8.259  1.00  0.00    -0.339 N 
HETATM   26  O1  UNL     1      12.676   2.865  -8.091  1.00  0.00    -0.247 OA
ATOM     27  H1  UNL     1      12.496   5.990  -8.713  1.00  0.00     0.164 HD
HETATM   28  C5  UNL     1      10.972   2.330 -10.107  1.00  0.00     0.154 C 
BRANCH  25  29
HETATM   29  C2  UNL     1      13.695   5.177  -7.143  1.00  0.00     0.078 C 
HETATM   30  C1  UNL     1      13.310   6.172  -6.093  1.00  0.00     0.032 C 
HETATM   31  C3  UNL     1      15.098   5.537  -7.606  1.00  0.00     0.032 C 
ENDBRANCH  25  29
ENDBRANCH   1  23
TORSDOF 6
ENDMDL
MODEL 5
REMARK VINA RESULT: -7.961743311      0.926      1.202
REMARK  6 active torsions:
REMARK  status: ('A' for Active; 'I' for Inactive)
REMARK    1  A    between atoms: C2_2  and  N1_4 
REMARK       I    between atoms: N1_4  and  C4_6 
REMARK       I    between atoms: C4_6  and  N2_8 
REMARK    2  A    between atoms: N2_8  and  C6_10 
REMARK    3  A    between atoms: C16_21  and  N3_22 
REMARK    4  A    between atoms: N3_22  and  C17_24 
REMARK    5  A    between atoms: C17_24  and  N4_26 
REMARK    6  A    between atoms: N4_26  and  C18_28 
ROOT
HETATM    1  C6  UNL     1      14.695   4.256  -8.302  1.00  0.00     0.088 C 
HETATM    2  C7  UNL     1      13.297   4.041  -7.808  1.00  0.00     0.028 C 
HETATM    3  C8  UNL     1      12.692   2.835  -8.495  1.00  0.00     0.042 C 
HETATM    4  C9  UNL     1      12.452   2.980  -9.939  1.00  0.00     0.081 C 
HETATM    5  C10 UNL     1      13.508   3.972 -10.465  1.00  0.00     0.042 C 
HETATM    6  C11 UNL     1      14.786   3.678  -9.720  1.00  0.00     0.028 C 
HETATM    7  O2  UNL     1      12.792   1.774 -10.633  1.00  0.00    -0.378 OA
HETATM    8  C12 UNL     1      12.271   0.664 -10.032  1.00  0.00     0.168 C 
HETATM    9  C13 UNL     1      11.111   0.125 -10.804  1.00  0.00     0.026 C 
HETATM   10  C14 UNL     1      10.140   1.191 -11.177  1.00  0.00     0.004 C 
HETATM   11  C15 UNL     1      10.101   2.260 -10.109  1.00  0.00     0.028 C 
HETATM   12  C16 UNL     1      11.113   3.351 -10.452  1.00  0.00     0.118 C 
ENDROOT
BRANCH  12  13
HETATM   13  N3  UNL     1      10.594   4.630 -10.217  1.00  0.00    -0.360 N 
ATOM     14  H3  UNL     1       9.737   4.661  -9.665  1.00  0.00     0.162 HD
BRANCH  13  15
HETATM   15  C17 UNL     1      11.086   5.876 -10.633  1.00  0.00     0.168 C 
HETATM   16  S1  UNL     1      10.753   6.568 -12.096  1.00  0.00    -0.041 SA
BRANCH  15  17
HETATM   17  N4  UNL     1      11.979   6.631  -9.775  1.00  0.00    -0.359 N 
ATOM     18  H4  UNL     1      12.971   6.391  -9.773  1.00  0.00     0.162 HD
BRANCH  17  19
HETATM   19  C18 UNL     1      11.537   7.693  -8.937  1.00  0.00     0.021 C 
HETATM   20  C19 UNL     1      11.809   9.063  -9.524  1.00  0.00     0.037 C 
HETATM   21  C20 UNL     1      10.059   7.627  -8.619  1.00  0.00     0.037 C 
HETATM   22  C21 UNL     1      12.278   7.636  -7.617  1.00  0.00     0.037 C 
ENDBRANCH  17  19
ENDBRANCH  15  17
ENDBRANCH  13  15
ENDBRANCH  12  13
BRANCH   1  23
HETATM   23  N2  UNL     1      15.727   3.773  -7.445  1.00  0.00    -0.334 N 
HETATM   24  C4  UNL     1      15.467   3.456  -6.090  1.00  0.00     0.318 C 
HETATM   25  N1  UNL     1      14.247   3.552  -5.410  1.00  0.00    -0.339 N 
HETATM   26  O1  UNL     1      16.449   3.024  -5.365  1.00  0.00    -0.247 OA
ATOM     27  H1  UNL     1      13.425   3.884  -5.913  1.00  0.00     0.164 HD
HETATM   28  C5  UNL     1      17.108   3.581  -7.917  1.00  0.00     0.154 C 
BRANCH  25  29
HETATM   29  C2  UNL     1      14.119   3.193  -4.015  1.00  0.00     0.078 C 
HETATM   30  C1  UNL     1      13.453   1.871  -3.790  1.00  0.00     0.032 C 
HETATM   31  C3  UNL     1      13.313   4.234  -3.254  1.00  0.00     0.032 C 
ENDBRANCH  25  29
ENDBRANCH   1  23
TORSDOF 6
ENDMDL
