MODEL 1
REMARK VINA RESULT: -9.650594131      0.000      0.000
REMARK  7 active torsions:
REMARK  status: ('A' for Active; 'I' for Inactive)
REMARK    1  A    between atoms: N1_2  and  C2_5 
REMARK    2  A    between atoms: C2_5  and  C4_7 
REMARK       I    between atoms: C4_7  and  N2_9 
REMARK    3  A    between atoms: N2_9  and  C5_11 
REMARK    4  A    between atoms: C5_11  and  C7_13 
REMARK    5  A    between atoms: C7_13  and  C8_14 
REMARK    6  A    between atoms: C8_14  and  C9_15 
REMARK    7  A    between atoms: C21_27  and  C22_28 
ROOT
HETATM    1  C8  UNL     1       5.331  -0.995  18.580  1.00  0.00    -0.017 C 
HETATM    2  C13 UNL     1       6.200  -1.481  17.496  1.00  0.00     0.014 C 
HETATM    3  C14 UNL     1       7.589  -0.835  17.642  1.00  0.00     0.006 C 
HETATM    4  C15 UNL     1       7.275   0.420  18.421  1.00  0.00    -0.004 C 
HETATM    5  C16 UNL     1       6.272  -0.094  19.380  1.00  0.00     0.002 C 
HETATM    6  C17 UNL     1       6.970  -0.794  20.500  1.00  0.00     0.007 C 
HETATM    7  C18 UNL     1       8.028  -0.004  21.199  1.00  0.00     0.011 C 
HETATM    8  C19 UNL     1       8.820   0.927  20.377  1.00  0.00    -0.019 C 
HETATM    9  C20 UNL     1       8.961   2.274  21.121  1.00  0.00     0.017 C 
HETATM   10  C21 UNL     1      10.285   0.444  20.319  1.00  0.00     0.164 C 
HETATM   11  C23 UNL     1      10.783   1.066  19.059  1.00  0.00     0.142 C 
HETATM   12  O4  UNL     1      11.859   1.598  18.905  1.00  0.00    -0.297 OA
HETATM   13  C24 UNL     1       9.675   0.870  18.089  1.00  0.00     0.085 C 
HETATM   14  C25 UNL     1       8.451   1.134  18.975  1.00  0.00     0.006 C 
ENDROOT
BRANCH   1  15
HETATM   15  C7  UNL     1       4.120  -0.220  18.243  1.00  0.00     0.038 C 
BRANCH  15  16
HETATM   16  C5  UNL     1       3.641   0.049  16.888  1.00  0.00     0.081 C 
HETATM   17  C6  UNL     1       2.174   0.430  16.762  1.00  0.00     0.032 C 
BRANCH  16  18
HETATM   18  N2  UNL     1       4.293   1.322  16.440  1.00  0.00    -0.355 N 
HETATM   19  C4  UNL     1       5.262   1.363  15.455  1.00  0.00     0.248 C 
HETATM   20  O1  UNL     1       5.636   0.301  14.890  1.00  0.00    -0.271 OA
ATOM     21  H2  UNL     1       4.009   2.197  16.881  1.00  0.00     0.162 HD
BRANCH  19  22
HETATM   22  C2  UNL     1       5.859   2.666  15.069  1.00  0.00     0.272 C 
HETATM   23  C3  UNL     1       7.317   2.374  14.702  1.00  0.00     0.050 C 
BRANCH  22  24
HETATM   24  N1  UNL     1       5.236   3.154  13.849  1.00  0.00    -0.067 N 
HETATM   25  C1  UNL     1       4.218   4.135  14.118  1.00  0.00     0.267 C 
ATOM     26  H12 UNL     1       4.869   2.385  13.288  1.00  0.00     0.277 HD
ATOM     27  H11 UNL     1       5.932   3.513  13.196  1.00  0.00     0.277 HD
ENDBRANCH  22  24
ENDBRANCH  19  22
ENDBRANCH  16  18
ENDBRANCH  15  16
ENDBRANCH   1  15
BRANCH   1  28
HETATM   28  C9  UNL     1       4.893  -2.113  19.525  1.00  0.00    -0.015 C 
HETATM   29  C10 UNL     1       4.876  -3.504  19.149  1.00  0.00    -0.091 C 
HETATM   30  C11 UNL     1       6.186  -4.138  18.697  1.00  0.00     0.042 C 
HETATM   31  C12 UNL     1       3.801  -4.091  18.310  1.00  0.00     0.042 C 
ENDBRANCH   1  28
BRANCH  10  32
HETATM   32  C22 UNL     1      11.045   0.853  21.492  1.00  0.00     0.185 C 
HETATM   33  O2  UNL     1      11.254   0.045  22.422  1.00  0.00    -0.647 OA
HETATM   34  O3  UNL     1      11.542   2.133  21.593  1.00  0.00    -0.647 OA
ENDBRANCH  10  32
TORSDOF 7
ENDMDL
MODEL 2
REMARK VINA RESULT: -9.559623030      1.026      1.213
REMARK  7 active torsions:
REMARK  status: ('A' for Active; 'I' for Inactive)
REMARK    1  A    between atoms: N1_2  and  C2_5 
REMARK    2  A    between atoms: C2_5  and  C4_7 
REMARK       I    between atoms: C4_7  and  N2_9 
REMARK    3  A    between atoms: N2_9  and  C5_11 
REMARK    4  A    between atoms: C5_11  and  C7_13 
REMARK    5  A    between atoms: C7_13  and  C8_14 
REMARK    6  A    between atoms: C8_14  and  C9_15 
REMARK    7  A    between atoms: C21_27  and  C22_28 
ROOT
HETATM    1  C8  UNL     1       5.417  -0.743  18.505  1.00  0.00    -0.017 C 
HETATM    2  C13 UNL     1       6.258  -1.148  17.368  1.00  0.00     0.014 C 
HETATM    3  C14 UNL     1       7.653  -0.517  17.530  1.00  0.00     0.006 C 
HETATM    4  C15 UNL     1       7.361   0.677  18.408  1.00  0.00    -0.004 C 
HETATM    5  C16 UNL     1       6.379   0.094  19.349  1.00  0.00     0.002 C 
HETATM    6  C17 UNL     1       7.099  -0.688  20.397  1.00  0.00     0.007 C 
HETATM    7  C18 UNL     1       8.175   0.045  21.129  1.00  0.00     0.011 C 
HETATM    8  C19 UNL     1       8.952   1.034  20.361  1.00  0.00    -0.019 C 
HETATM    9  C20 UNL     1       9.115   2.321  21.200  1.00  0.00     0.017 C 
HETATM   10  C21 UNL     1      10.414   0.554  20.233  1.00  0.00     0.164 C 
HETATM   11  C23 UNL     1      10.885   1.267  19.013  1.00  0.00     0.142 C 
HETATM   12  O4  UNL     1      11.959   1.808  18.874  1.00  0.00    -0.297 OA
HETATM   13  C24 UNL     1       9.754   1.146  18.056  1.00  0.00     0.085 C 
HETATM   14  C25 UNL     1       8.552   1.345  18.987  1.00  0.00     0.006 C 
ENDROOT
BRANCH   1  15
HETATM   15  C7  UNL     1       4.200   0.058  18.255  1.00  0.00     0.038 C 
BRANCH  15  16
HETATM   16  C5  UNL     1       3.647   0.359  16.936  1.00  0.00     0.081 C 
HETATM   17  C6  UNL     1       2.145   0.171  16.784  1.00  0.00     0.032 C 
BRANCH  16  18
HETATM   18  N2  UNL     1       3.756   1.842  16.745  1.00  0.00    -0.355 N 
HETATM   19  C4  UNL     1       4.723   2.427  15.949  1.00  0.00     0.248 C 
HETATM   20  O1  UNL     1       5.564   1.709  15.344  1.00  0.00    -0.271 OA
ATOM     21  H2  UNL     1       3.088   2.446  17.224  1.00  0.00     0.162 HD
BRANCH  19  22
HETATM   22  C2  UNL     1       4.764   3.904  15.813  1.00  0.00     0.272 C 
HETATM   23  C3  UNL     1       4.438   4.204  14.347  1.00  0.00     0.050 C 
BRANCH  22  24
HETATM   24  N1  UNL     1       3.687   4.502  16.586  1.00  0.00    -0.067 N 
HETATM   25  C1  UNL     1       4.126   5.662  17.315  1.00  0.00     0.267 C 
ATOM     26  H12 UNL     1       3.253   3.818  17.206  1.00  0.00     0.277 HD
ATOM     27  H11 UNL     1       2.884   4.717  15.995  1.00  0.00     0.277 HD
ENDBRANCH  22  24
ENDBRANCH  19  22
ENDBRANCH  16  18
ENDBRANCH  15  16
ENDBRANCH   1  15
BRANCH   1  28
HETATM   28  C9  UNL     1       4.996  -1.927  19.374  1.00  0.00    -0.015 C 
HETATM   29  C10 UNL     1       5.006  -3.290  18.908  1.00  0.00    -0.091 C 
HETATM   30  C11 UNL     1       6.328  -3.871  18.422  1.00  0.00     0.042 C 
HETATM   31  C12 UNL     1       3.944  -3.842  18.029  1.00  0.00     0.042 C 
ENDBRANCH   1  28
BRANCH  10  32
HETATM   32  C22 UNL     1      11.202   0.872  21.416  1.00  0.00     0.185 C 
HETATM   33  O2  UNL     1      11.327   0.035  22.335  1.00  0.00    -0.647 OA
HETATM   34  O3  UNL     1      11.817   2.098  21.537  1.00  0.00    -0.647 OA
ENDBRANCH  10  32
TORSDOF 7
ENDMDL
MODEL 3
REMARK VINA RESULT: -9.402172777      0.997      1.127
REMARK  7 active torsions:
REMARK  status: ('A' for Active; 'I' for Inactive)
REMARK    1  A    between atoms: N1_2  and  C2_5 
REMARK    2  A    between atoms: C2_5  and  C4_7 
REMARK       I    between atoms: C4_7  and  N2_9 
REMARK    3  A    between atoms: N2_9  and  C5_11 
REMARK    4  A    between atoms: C5_11  and  C7_13 
REMARK    5  A    between atoms: C7_13  and  C8_14 
REMARK    6  A    between atoms: C8_14  and  C9_15 
REMARK    7  A    between atoms: C21_27  and  C22_28 
ROOT
HETATM    1  C8  UNL     1       5.398  -1.162  18.720  1.00  0.00    -0.017 C 
HETATM    2  C13 UNL     1       6.235  -1.550  17.573  1.00  0.00     0.014 C 
HETATM    3  C14 UNL     1       7.579  -0.804  17.662  1.00  0.00     0.006 C 
HETATM    4  C15 UNL     1       7.218   0.402  18.498  1.00  0.00    -0.004 C 
HETATM    5  C16 UNL     1       6.315  -0.215  19.495  1.00  0.00     0.002 C 
HETATM    6  C17 UNL     1       7.127  -0.890  20.551  1.00  0.00     0.007 C 
HETATM    7  C18 UNL     1       8.161  -0.041  21.214  1.00  0.00     0.011 C 
HETATM    8  C19 UNL     1       8.833   0.970  20.379  1.00  0.00    -0.019 C 
HETATM    9  C20 UNL     1       8.916   2.302  21.157  1.00  0.00     0.017 C 
HETATM   10  C21 UNL     1      10.324   0.602  20.223  1.00  0.00     0.164 C 
HETATM   11  C23 UNL     1      10.700   1.295  18.959  1.00  0.00     0.142 C 
HETATM   12  O4  UNL     1      11.722   1.912  18.762  1.00  0.00    -0.297 OA
HETATM   13  C24 UNL     1       9.554   1.042  18.046  1.00  0.00     0.085 C 
HETATM   14  C25 UNL     1       8.368   1.187  19.007  1.00  0.00     0.006 C 
ENDROOT
BRANCH   1  15
HETATM   15  C7  UNL     1       4.114  -0.473  18.476  1.00  0.00     0.038 C 
BRANCH  15  16
HETATM   16  C5  UNL     1       3.252  -0.683  17.315  1.00  0.00     0.081 C 
HETATM   17  C6  UNL     1       1.882  -1.280  17.600  1.00  0.00     0.032 C 
BRANCH  16  18
HETATM   18  N2  UNL     1       2.858   0.674  16.812  1.00  0.00    -0.355 N 
HETATM   19  C4  UNL     1       3.620   1.389  15.908  1.00  0.00     0.248 C 
HETATM   20  O1  UNL     1       4.698   0.908  15.467  1.00  0.00    -0.271 OA
ATOM     21  H2  UNL     1       1.990   1.087  17.153  1.00  0.00     0.162 HD
BRANCH  19  22
HETATM   22  C2  UNL     1       3.160   2.727  15.460  1.00  0.00     0.272 C 
HETATM   23  C3  UNL     1       3.888   3.744  16.343  1.00  0.00     0.050 C 
BRANCH  22  24
HETATM   24  N1  UNL     1       3.620   2.981  14.104  1.00  0.00    -0.067 N 
HETATM   25  C1  UNL     1       4.516   4.106  14.040  1.00  0.00     0.267 C 
ATOM     26  H12 UNL     1       2.836   3.095  13.462  1.00  0.00     0.277 HD
ATOM     27  H11 UNL     1       4.043   2.147  13.696  1.00  0.00     0.277 HD
ENDBRANCH  22  24
ENDBRANCH  19  22
ENDBRANCH  16  18
ENDBRANCH  15  16
ENDBRANCH   1  15
BRANCH   1  28
HETATM   28  C9  UNL     1       5.100  -2.336  19.652  1.00  0.00    -0.015 C 
HETATM   29  C10 UNL     1       5.066  -3.706  19.208  1.00  0.00    -0.091 C 
HETATM   30  C11 UNL     1       6.325  -4.283  18.570  1.00  0.00     0.042 C 
HETATM   31  C12 UNL     1       3.910  -4.281  18.475  1.00  0.00     0.042 C 
ENDBRANCH   1  28
BRANCH  10  32
HETATM   32  C22 UNL     1      11.119   1.035  21.365  1.00  0.00     0.185 C 
HETATM   33  O2  UNL     1      11.396   0.232  22.281  1.00  0.00    -0.647 OA
HETATM   34  O3  UNL     1      11.573   2.332  21.449  1.00  0.00    -0.647 OA
ENDBRANCH  10  32
TORSDOF 7
ENDMDL
MODEL 4
REMARK VINA RESULT: -9.341545132      1.547      2.244
REMARK  7 active torsions:
REMARK  status: ('A' for Active; 'I' for Inactive)
REMARK    1  A    between atoms: N1_2  and  C2_5 
REMARK    2  A    between atoms: C2_5  and  C4_7 
REMARK       I    between atoms: C4_7  and  N2_9 
REMARK    3  A    between atoms: N2_9  and  C5_11 
REMARK    4  A    between atoms: C5_11  and  C7_13 
REMARK    5  A    between atoms: C7_13  and  C8_14 
REMARK    6  A    between atoms: C8_14  and  C9_15 
REMARK    7  A    between atoms: C21_27  and  C22_28 
ROOT
HETATM    1  C8  UNL     1       6.773  -0.032  19.128  1.00  0.00    -0.017 C 
HETATM    2  C13 UNL     1       7.679  -1.129  18.754  1.00  0.00     0.014 C 
HETATM    3  C14 UNL     1       9.130  -0.617  18.806  1.00  0.00     0.006 C 
HETATM    4  C15 UNL     1       8.948   0.871  18.620  1.00  0.00    -0.004 C 
HETATM    5  C16 UNL     1       7.743   1.107  19.445  1.00  0.00     0.002 C 
HETATM    6  C17 UNL     1       8.133   1.184  20.884  1.00  0.00     0.007 C 
HETATM    7  C18 UNL     1       9.210   2.165  21.212  1.00  0.00     0.011 C 
HETATM    8  C19 UNL     1      10.270   2.356  20.206  1.00  0.00    -0.019 C 
HETATM    9  C20 UNL     1      10.553   3.866  20.041  1.00  0.00     0.017 C 
HETATM   10  C21 UNL     1      11.613   1.843  20.769  1.00  0.00     0.164 C 
HETATM   11  C23 UNL     1      12.390   1.543  19.534  1.00  0.00     0.142 C 
HETATM   12  O4  UNL     1      13.557   1.803  19.346  1.00  0.00    -0.297 OA
HETATM   13  C24 UNL     1      11.412   0.872  18.637  1.00  0.00     0.085 C 
HETATM   14  C25 UNL     1      10.147   1.696  18.904  1.00  0.00     0.006 C 
ENDROOT
BRANCH   1  15
HETATM   15  C7  UNL     1       5.786   0.458  18.143  1.00  0.00     0.038 C 
BRANCH  15  16
HETATM   16  C5  UNL     1       5.675  -0.004  16.761  1.00  0.00     0.081 C 
HETATM   17  C6  UNL     1       4.632  -1.080  16.499  1.00  0.00     0.032 C 
BRANCH  16  18
HETATM   18  N2  UNL     1       5.101   1.130  15.966  1.00  0.00    -0.355 N 
HETATM   19  C4  UNL     1       5.783   1.743  14.932  1.00  0.00     0.248 C 
HETATM   20  O1  UNL     1       6.940   1.353  14.618  1.00  0.00    -0.271 OA
ATOM     21  H2  UNL     1       4.166   1.465  16.199  1.00  0.00     0.162 HD
BRANCH  19  22
HETATM   22  C2  UNL     1       5.144   2.861  14.194  1.00  0.00     0.272 C 
HETATM   23  C3  UNL     1       3.636   2.709  14.417  1.00  0.00     0.050 C 
BRANCH  22  24
HETATM   24  N1  UNL     1       5.508   4.129  14.805  1.00  0.00    -0.067 N 
HETATM   25  C1  UNL     1       4.524   4.570  15.758  1.00  0.00     0.267 C 
ATOM     26  H12 UNL     1       5.685   4.843  14.099  1.00  0.00     0.277 HD
ATOM     27  H11 UNL     1       6.436   4.083  15.226  1.00  0.00     0.277 HD
ENDBRANCH  22  24
ENDBRANCH  19  22
ENDBRANCH  16  18
ENDBRANCH  15  16
ENDBRANCH   1  15
BRANCH   1  28
HETATM   28  C9  UNL     1       6.005  -0.319  20.417  1.00  0.00    -0.015 C 
HETATM   29  C10 UNL     1       4.807  -1.119  20.461  1.00  0.00    -0.091 C 
HETATM   30  C11 UNL     1       4.889  -2.557  19.962  1.00  0.00     0.042 C 
HETATM   31  C12 UNL     1       3.481  -0.594  20.048  1.00  0.00     0.042 C 
ENDBRANCH   1  28
BRANCH  10  32
HETATM   32  C22 UNL     1      12.263   2.828  21.623  1.00  0.00     0.185 C 
HETATM   33  O2  UNL     1      13.080   3.640  21.141  1.00  0.00    -0.647 OA
HETATM   34  O3  UNL     1      11.985   2.877  22.970  1.00  0.00    -0.647 OA
ENDBRANCH  10  32
TORSDOF 7
ENDMDL
MODEL 5
REMARK VINA RESULT: -9.328940259      1.231      1.497
REMARK  7 active torsions:
REMARK  status: ('A' for Active; 'I' for Inactive)
REMARK    1  A    between atoms: N1_2  and  C2_5 
REMARK    2  A    between atoms: C2_5  and  C4_7 
REMARK       I    between atoms: C4_7  and  N2_9 
REMARK    3  A    between atoms: N2_9  and  C5_11 
REMARK    4  A    between atoms: C5_11  and  C7_13 
REMARK    5  A    between atoms: C7_13  and  C8_14 
REMARK    6  A    between atoms: C8_14  and  C9_15 
REMARK    7  A    between atoms: C21_27  and  C22_28 
ROOT
HETATM    1  C8  UNL     1       5.908  -1.496  19.330  1.00  0.00    -0.017 C 
HETATM    2  C13 UNL     1       6.585  -1.861  18.075  1.00  0.00     0.014 C 
HETATM    3  C14 UNL     1       7.744  -0.878  17.830  1.00  0.00     0.006 C 
HETATM    4  C15 UNL     1       7.305   0.334  18.618  1.00  0.00    -0.004 C 
HETATM    5  C16 UNL     1       6.740  -0.311  19.824  1.00  0.00     0.002 C 
HETATM    6  C17 UNL     1       7.849  -0.695  20.748  1.00  0.00     0.007 C 
HETATM    7  C18 UNL     1       8.794   0.400  21.117  1.00  0.00     0.011 C 
HETATM    8  C19 UNL     1       9.086   1.408  20.083  1.00  0.00    -0.019 C 
HETATM    9  C20 UNL     1       9.038   2.818  20.714  1.00  0.00     0.017 C 
HETATM   10  C21 UNL     1      10.567   1.301  19.662  1.00  0.00     0.164 C 
HETATM   11  C23 UNL     1      10.561   1.893  18.294  1.00  0.00     0.142 C 
HETATM   12  O4  UNL     1      11.385   2.657  17.845  1.00  0.00    -0.297 OA
HETATM   13  C24 UNL     1       9.344   1.328  17.654  1.00  0.00     0.085 C 
HETATM   14  C25 UNL     1       8.346   1.371  18.819  1.00  0.00     0.006 C 
ENDROOT
BRANCH   1  15
HETATM   15  C7  UNL     1       4.489  -1.085  19.293  1.00  0.00     0.038 C 
BRANCH  15  16
HETATM   16  C5  UNL     1       3.617  -1.173  18.123  1.00  0.00     0.081 C 
HETATM   17  C6  UNL     1       2.132  -1.339  18.409  1.00  0.00     0.032 C 
BRANCH  16  18
HETATM   18  N2  UNL     1       3.620   0.178  17.474  1.00  0.00    -0.355 N 
HETATM   19  C4  UNL     1       4.247   0.430  16.268  1.00  0.00     0.248 C 
HETATM   20  O1  UNL     1       4.852  -0.495  15.663  1.00  0.00    -0.271 OA
ATOM     21  H2  UNL     1       3.137   0.945  17.943  1.00  0.00     0.162 HD
BRANCH  19  22
HETATM   22  C2  UNL     1       4.203   1.798  15.692  1.00  0.00     0.272 C 
HETATM   23  C3  UNL     1       4.810   2.723  16.750  1.00  0.00     0.050 C 
BRANCH  22  24
HETATM   24  N1  UNL     1       5.089   1.879  14.542  1.00  0.00    -0.067 N 
HETATM   25  C1  UNL     1       6.277   2.639  14.829  1.00  0.00     0.267 C 
ATOM     26  H12 UNL     1       4.603   2.247  13.726  1.00  0.00     0.277 HD
ATOM     27  H11 UNL     1       5.320   0.950  14.188  1.00  0.00     0.277 HD
ENDBRANCH  22  24
ENDBRANCH  19  22
ENDBRANCH  16  18
ENDBRANCH  15  16
ENDBRANCH   1  15
BRANCH   1  28
HETATM   28  C9  UNL     1       6.026  -2.583  20.398  1.00  0.00    -0.015 C 
HETATM   29  C10 UNL     1       5.487  -3.909  20.236  1.00  0.00    -0.091 C 
HETATM   30  C11 UNL     1       5.979  -4.743  19.058  1.00  0.00     0.042 C 
HETATM   31  C12 UNL     1       4.042  -4.210  20.403  1.00  0.00     0.042 C 
ENDBRANCH   1  28
BRANCH  10  32
HETATM   32  C22 UNL     1      11.452   2.005  20.580  1.00  0.00     0.185 C 
HETATM   33  O2  UNL     1      12.033   1.385  21.496  1.00  0.00    -0.647 OA
HETATM   34  O3  UNL     1      11.657   3.360  20.453  1.00  0.00    -0.647 OA
ENDBRANCH  10  32
TORSDOF 7
ENDMDL
