MODEL 1
REMARK VINA RESULT: -10.023948988      0.000      0.000
REMARK  11 active torsions:
REMARK  status: ('A' for Active; 'I' for Inactive)
REMARK    1  A    between atoms: C2_2  and  C3_3 
REMARK    2  A    between atoms: C4_4  and  C5_5 
REMARK    3  A    between atoms: C11_11  and  O1_12 
REMARK    4  A    between atoms: C12_14  and  N1_15 
REMARK       I    between atoms: N1_15  and  C13_17 
REMARK       I    between atoms: C13_17  and  N2_19 
REMARK    5  A    between atoms: N2_19  and  C14_21 
REMARK    6  A    between atoms: C14_21  and  C15_22 
REMARK    7  A    between atoms: C15_22  and  C16_23 
REMARK    8  A    between atoms: C16_23  and  C17_24 
REMARK    9  A    between atoms: C17_24  and  N3_25 
REMARK       I    between atoms: N3_25  and  C19_27 
REMARK   10  A    between atoms: C19_27  and  O4_29 
REMARK   11  A    between atoms: O4_29  and  C20_30 
ROOT
HETATM    1  C5  UNL     1       5.073   0.902  16.791  1.00  0.00     0.024 C 
HETATM    2  C6  UNL     1       5.062  -0.585  17.209  1.00  0.00     0.004 C 
HETATM    3  C7  UNL     1       5.581  -1.216  15.930  1.00  0.00     0.007 C 
HETATM    4  C8  UNL     1       6.623  -0.271  15.378  1.00  0.00     0.013 C 
HETATM    5  C9  UNL     1       6.421   0.990  16.197  1.00  0.00    -0.009 C 
HETATM    6  C10 UNL     1       6.723   2.240  15.418  1.00  0.00     0.018 C 
HETATM    7  C11 UNL     1       7.425   0.940  17.326  1.00  0.00     0.150 C 
HETATM    8  C12 UNL     1       7.300  -0.178  18.274  1.00  0.00     0.123 C 
HETATM    9  C22 UNL     1       5.940  -0.795  18.384  1.00  0.00    -0.020 C 
HETATM   10  C23 UNL     1       6.063  -2.307  18.598  1.00  0.00     0.017 C 
HETATM   11  C24 UNL     1       5.223  -0.261  19.607  1.00  0.00     0.017 C 
ENDROOT
BRANCH   8  12
HETATM   12  N1  UNL     1       7.771   0.169  19.599  1.00  0.00    -0.335 N 
HETATM   13  C13 UNL     1       9.145   0.053  19.991  1.00  0.00     0.316 C 
HETATM   14  O2  UNL     1       9.936  -0.378  19.096  1.00  0.00    -0.247 OA
HETATM   15  N2  UNL     1       9.584   0.397  21.290  1.00  0.00    -0.343 N 
ATOM     16  H2  UNL     1       8.916   0.739  21.981  1.00  0.00     0.164 HD
ATOM     17  H1  UNL     1       7.096   0.510  20.282  1.00  0.00     0.164 HD
BRANCH  15  18
HETATM   18  C14 UNL     1      10.958   0.265  21.634  1.00  0.00     0.124 C 
BRANCH  18  19
HETATM   19  C15 UNL     1      11.455   1.391  22.526  1.00  0.00     0.021 C 
BRANCH  19  20
HETATM   20  C16 UNL     1      12.278   2.383  21.797  1.00  0.00     0.022 C 
BRANCH  20  21
HETATM   21  C17 UNL     1      12.261   2.137  20.324  1.00  0.00     0.127 C 
BRANCH  21  22
HETATM   22  N3  UNL     1      13.328   2.701  19.569  1.00  0.00    -0.332 N 
HETATM   23  C18 UNL     1      14.690   2.685  20.114  1.00  0.00     0.155 C 
HETATM   24  C19 UNL     1      13.105   3.278  18.306  1.00  0.00     0.362 C 
HETATM   25  O3  UNL     1      11.979   3.364  17.772  1.00  0.00    -0.238 OA
BRANCH  24  26
HETATM   26  O4  UNL     1      14.172   3.785  17.592  1.00  0.00    -0.304 OA
BRANCH  26  27
HETATM   27  C20 UNL     1      14.428   5.177  17.500  1.00  0.00     0.176 C 
HETATM   28  C21 UNL     1      15.485   5.641  18.453  1.00  0.00     0.034 C 
ENDBRANCH  26  27
ENDBRANCH  24  26
ENDBRANCH  21  22
ENDBRANCH  20  21
ENDBRANCH  19  20
ENDBRANCH  18  19
ENDBRANCH  15  18
ENDBRANCH   8  12
BRANCH   7  29
HETATM   29  O1  UNL     1       8.695   1.045  16.741  1.00  0.00    -0.393 OA
ATOM     30  H1  UNL     1       8.685   1.827  16.203  1.00  0.00     0.210 HD
ENDBRANCH   7  29
BRANCH   1  31
HETATM   31  C4  UNL     1       3.913   1.061  15.922  1.00  0.00    -0.021 C 
HETATM   32  C3  UNL     1       2.909   1.868  15.994  1.00  0.00    -0.004 C 
BRANCH  32  33
HETATM   33  C2  UNL     1       1.861   1.835  14.991  1.00  0.00    -0.011 C 
HETATM   34  C1  UNL     1       1.842   2.761  14.054  1.00  0.00     0.011 C 
ENDBRANCH  32  33
ENDBRANCH   1  31
TORSDOF 11
ENDMDL
MODEL 2
REMARK VINA RESULT: -8.866322489      1.458      1.919
REMARK  11 active torsions:
REMARK  status: ('A' for Active; 'I' for Inactive)
REMARK    1  A    between atoms: C2_2  and  C3_3 
REMARK    2  A    between atoms: C4_4  and  C5_5 
REMARK    3  A    between atoms: C11_11  and  O1_12 
REMARK    4  A    between atoms: C12_14  and  N1_15 
REMARK       I    between atoms: N1_15  and  C13_17 
REMARK       I    between atoms: C13_17  and  N2_19 
REMARK    5  A    between atoms: N2_19  and  C14_21 
REMARK    6  A    between atoms: C14_21  and  C15_22 
REMARK    7  A    between atoms: C15_22  and  C16_23 
REMARK    8  A    between atoms: C16_23  and  C17_24 
REMARK    9  A    between atoms: C17_24  and  N3_25 
REMARK       I    between atoms: N3_25  and  C19_27 
REMARK   10  A    between atoms: C19_27  and  O4_29 
REMARK   11  A    between atoms: O4_29  and  C20_30 
ROOT
HETATM    1  C5  UNL     1       4.379  -0.344  17.364  1.00  0.00     0.024 C 
HETATM    2  C6  UNL     1       3.579  -1.215  18.357  1.00  0.00     0.004 C 
HETATM    3  C7  UNL     1       3.297  -2.418  17.476  1.00  0.00     0.007 C 
HETATM    4  C8  UNL     1       4.530  -2.627  16.627  1.00  0.00     0.013 C 
HETATM    5  C9  UNL     1       5.323  -1.352  16.844  1.00  0.00    -0.009 C 
HETATM    6  C10 UNL     1       6.119  -0.953  15.632  1.00  0.00     0.018 C 
HETATM    7  C11 UNL     1       6.329  -1.646  17.934  1.00  0.00     0.150 C 
HETATM    8  C12 UNL     1       5.788  -2.010  19.253  1.00  0.00     0.123 C 
HETATM    9  C22 UNL     1       4.403  -1.523  19.551  1.00  0.00    -0.020 C 
HETATM   10  C23 UNL     1       3.643  -2.567  20.375  1.00  0.00     0.017 C 
HETATM   11  C24 UNL     1       4.463  -0.278  20.412  1.00  0.00     0.017 C 
ENDROOT
BRANCH   8  12
HETATM   12  N1  UNL     1       6.669  -1.623  20.335  1.00  0.00    -0.335 N 
HETATM   13  C13 UNL     1       7.679  -0.616  20.193  1.00  0.00     0.316 C 
HETATM   14  O2  UNL     1       7.759  -0.076  19.047  1.00  0.00    -0.247 OA
HETATM   15  N2  UNL     1       8.529  -0.252  21.263  1.00  0.00    -0.343 N 
ATOM     16  H2  UNL     1       8.433  -0.710  22.169  1.00  0.00     0.164 HD
ATOM     17  H1  UNL     1       6.565  -2.086  21.237  1.00  0.00     0.164 HD
BRANCH  15  18
HETATM   18  C14 UNL     1       9.518   0.753  21.075  1.00  0.00     0.124 C 
BRANCH  18  19
HETATM   19  C15 UNL     1      10.859   0.384  21.686  1.00  0.00     0.021 C 
BRANCH  19  20
HETATM   20  C16 UNL     1      11.876   1.450  21.530  1.00  0.00     0.022 C 
BRANCH  20  21
HETATM   21  C17 UNL     1      11.580   2.326  20.357  1.00  0.00     0.127 C 
BRANCH  21  22
HETATM   22  N3  UNL     1      12.698   2.806  19.618  1.00  0.00    -0.332 N 
HETATM   23  C18 UNL     1      14.043   2.714  20.197  1.00  0.00     0.155 C 
HETATM   24  C19 UNL     1      12.542   3.371  18.340  1.00  0.00     0.362 C 
HETATM   25  O3  UNL     1      11.438   3.518  17.777  1.00  0.00    -0.238 OA
BRANCH  24  26
HETATM   26  O4  UNL     1      13.657   3.795  17.644  1.00  0.00    -0.304 OA
BRANCH  26  27
HETATM   27  C20 UNL     1      14.053   5.156  17.607  1.00  0.00     0.176 C 
HETATM   28  C21 UNL     1      15.384   5.394  18.248  1.00  0.00     0.034 C 
ENDBRANCH  26  27
ENDBRANCH  24  26
ENDBRANCH  21  22
ENDBRANCH  20  21
ENDBRANCH  19  20
ENDBRANCH  18  19
ENDBRANCH  15  18
ENDBRANCH   8  12
BRANCH   7  29
HETATM   29  O1  UNL     1       7.226  -2.589  17.412  1.00  0.00    -0.393 OA
ATOM     30  H1  UNL     1       6.924  -2.799  16.537  1.00  0.00     0.210 HD
ENDBRANCH   7  29
BRANCH   1  31
HETATM   31  C4  UNL     1       3.381   0.214  16.459  1.00  0.00    -0.021 C 
HETATM   32  C3  UNL     1       2.931   1.416  16.337  1.00  0.00    -0.004 C 
BRANCH  32  33
HETATM   33  C2  UNL     1       1.920   1.729  15.345  1.00  0.00    -0.011 C 
HETATM   34  C1  UNL     1       2.080   2.792  14.582  1.00  0.00     0.011 C 
ENDBRANCH  32  33
ENDBRANCH   1  31
TORSDOF 11
ENDMDL
MODEL 3
REMARK VINA RESULT: -8.440700479      5.040      7.781
REMARK  11 active torsions:
REMARK  status: ('A' for Active; 'I' for Inactive)
REMARK    1  A    between atoms: C2_2  and  C3_3 
REMARK    2  A    between atoms: C4_4  and  C5_5 
REMARK    3  A    between atoms: C11_11  and  O1_12 
REMARK    4  A    between atoms: C12_14  and  N1_15 
REMARK       I    between atoms: N1_15  and  C13_17 
REMARK       I    between atoms: C13_17  and  N2_19 
REMARK    5  A    between atoms: N2_19  and  C14_21 
REMARK    6  A    between atoms: C14_21  and  C15_22 
REMARK    7  A    between atoms: C15_22  and  C16_23 
REMARK    8  A    between atoms: C16_23  and  C17_24 
REMARK    9  A    between atoms: C17_24  and  N3_25 
REMARK       I    between atoms: N3_25  and  C19_27 
REMARK   10  A    between atoms: C19_27  and  O4_29 
REMARK   11  A    between atoms: O4_29  and  C20_30 
ROOT
HETATM    1  C5  UNL     1       4.486   0.089  17.418  1.00  0.00     0.024 C 
HETATM    2  C6  UNL     1       4.292  -1.227  16.632  1.00  0.00     0.004 C 
HETATM    3  C7  UNL     1       5.547  -1.207  15.781  1.00  0.00     0.007 C 
HETATM    4  C8  UNL     1       6.645  -0.634  16.648  1.00  0.00     0.013 C 
HETATM    5  C9  UNL     1       5.892  -0.070  17.838  1.00  0.00    -0.009 C 
HETATM    6  C10 UNL     1       6.554   1.150  18.416  1.00  0.00     0.018 C 
HETATM    7  C11 UNL     1       5.932  -1.128  18.918  1.00  0.00     0.150 C 
HETATM    8  C12 UNL     1       5.288  -2.414  18.610  1.00  0.00     0.123 C 
HETATM    9  C22 UNL     1       4.215  -2.376  17.566  1.00  0.00    -0.020 C 
HETATM   10  C23 UNL     1       4.256  -3.654  16.722  1.00  0.00     0.017 C 
HETATM   11  C24 UNL     1       2.849  -2.356  18.222  1.00  0.00     0.017 C 
ENDROOT
BRANCH   8  12
HETATM   12  N1  UNL     1       4.773  -3.069  19.794  1.00  0.00    -0.335 N 
HETATM   13  C13 UNL     1       5.185  -4.381  20.198  1.00  0.00     0.316 C 
HETATM   14  O2  UNL     1       6.041  -4.943  19.447  1.00  0.00    -0.247 OA
HETATM   15  N2  UNL     1       4.670  -5.004  21.358  1.00  0.00    -0.343 N 
ATOM     16  H2  UNL     1       3.984  -4.519  21.936  1.00  0.00     0.164 HD
ATOM     17  H1  UNL     1       4.087  -2.576  20.365  1.00  0.00     0.164 HD
BRANCH  15  18
HETATM   18  C14 UNL     1       5.109  -6.308  21.720  1.00  0.00     0.124 C 
BRANCH  18  19
HETATM   19  C15 UNL     1       4.157  -7.009  22.673  1.00  0.00     0.021 C 
BRANCH  19  20
HETATM   20  C16 UNL     1       4.525  -6.823  24.096  1.00  0.00     0.022 C 
BRANCH  20  21
HETATM   21  C17 UNL     1       3.704  -5.757  24.742  1.00  0.00     0.127 C 
BRANCH  21  22
HETATM   22  N3  UNL     1       4.336  -4.497  24.946  1.00  0.00    -0.332 N 
HETATM   23  C18 UNL     1       5.378  -4.367  25.970  1.00  0.00     0.155 C 
HETATM   24  C19 UNL     1       3.981  -3.369  24.185  1.00  0.00     0.362 C 
HETATM   25  O3  UNL     1       3.088  -3.374  23.312  1.00  0.00    -0.238 OA
BRANCH  24  26
HETATM   26  O4  UNL     1       4.641  -2.174  24.393  1.00  0.00    -0.304 OA
BRANCH  26  27
HETATM   27  C20 UNL     1       5.419  -1.554  23.382  1.00  0.00     0.176 C 
HETATM   28  C21 UNL     1       6.633  -2.346  23.011  1.00  0.00     0.034 C 
ENDBRANCH  26  27
ENDBRANCH  24  26
ENDBRANCH  21  22
ENDBRANCH  20  21
ENDBRANCH  19  20
ENDBRANCH  18  19
ENDBRANCH  15  18
ENDBRANCH   8  12
BRANCH   7  29
HETATM   29  O1  UNL     1       7.271  -1.248  19.316  1.00  0.00    -0.393 OA
ATOM     30  H1  UNL     1       7.324  -2.019  19.868  1.00  0.00     0.210 HD
ENDBRANCH   7  29
BRANCH   1  31
HETATM   31  C4  UNL     1       4.153   1.148  16.473  1.00  0.00    -0.021 C 
HETATM   32  C3  UNL     1       3.024   1.489  15.950  1.00  0.00    -0.004 C 
BRANCH  32  33
HETATM   33  C2  UNL     1       2.946   2.598  15.018  1.00  0.00    -0.011 C 
HETATM   34  C1  UNL     1       1.788   2.882  14.456  1.00  0.00     0.011 C 
ENDBRANCH  32  33
ENDBRANCH   1  31
TORSDOF 11
ENDMDL
MODEL 4
REMARK VINA RESULT: -8.382712782      5.310      7.246
REMARK  11 active torsions:
REMARK  status: ('A' for Active; 'I' for Inactive)
REMARK    1  A    between atoms: C2_2  and  C3_3 
REMARK    2  A    between atoms: C4_4  and  C5_5 
REMARK    3  A    between atoms: C11_11  and  O1_12 
REMARK    4  A    between atoms: C12_14  and  N1_15 
REMARK       I    between atoms: N1_15  and  C13_17 
REMARK       I    between atoms: C13_17  and  N2_19 
REMARK    5  A    between atoms: N2_19  and  C14_21 
REMARK    6  A    between atoms: C14_21  and  C15_22 
REMARK    7  A    between atoms: C15_22  and  C16_23 
REMARK    8  A    between atoms: C16_23  and  C17_24 
REMARK    9  A    between atoms: C17_24  and  N3_25 
REMARK       I    between atoms: N3_25  and  C19_27 
REMARK   10  A    between atoms: C19_27  and  O4_29 
REMARK   11  A    between atoms: O4_29  and  C20_30 
ROOT
HETATM    1  C5  UNL     1       4.512  -0.163  17.458  1.00  0.00     0.024 C 
HETATM    2  C6  UNL     1       4.374  -1.411  16.559  1.00  0.00     0.004 C 
HETATM    3  C7  UNL     1       5.765  -1.448  15.953  1.00  0.00     0.007 C 
HETATM    4  C8  UNL     1       6.719  -1.019  17.044  1.00  0.00     0.013 C 
HETATM    5  C9  UNL     1       5.800  -0.463  18.114  1.00  0.00    -0.009 C 
HETATM    6  C10 UNL     1       6.429   0.663  18.889  1.00  0.00     0.018 C 
HETATM    7  C11 UNL     1       5.562  -1.579  19.105  1.00  0.00     0.150 C 
HETATM    8  C12 UNL     1       4.896  -2.787  18.595  1.00  0.00     0.123 C 
HETATM    9  C22 UNL     1       4.042  -2.601  17.378  1.00  0.00    -0.020 C 
HETATM   10  C23 UNL     1       4.148  -3.828  16.467  1.00  0.00     0.017 C 
HETATM   11  C24 UNL     1       2.583  -2.504  17.775  1.00  0.00     0.017 C 
ENDROOT
BRANCH   8  12
HETATM   12  N1  UNL     1       4.124  -3.464  19.615  1.00  0.00    -0.335 N 
HETATM   13  C13 UNL     1       4.654  -4.529  20.414  1.00  0.00     0.316 C 
HETATM   14  O2  UNL     1       5.858  -4.850  20.171  1.00  0.00    -0.247 OA
HETATM   15  N2  UNL     1       3.883  -5.177  21.406  1.00  0.00    -0.343 N 
ATOM     16  H2  UNL     1       2.918  -4.889  21.571  1.00  0.00     0.164 HD
ATOM     17  H1  UNL     1       3.160  -3.169  19.773  1.00  0.00     0.164 HD
BRANCH  15  18
HETATM   18  C14 UNL     1       4.452  -6.230  22.175  1.00  0.00     0.124 C 
BRANCH  18  19
HETATM   19  C15 UNL     1       4.029  -6.192  23.634  1.00  0.00     0.021 C 
BRANCH  19  20
HETATM   20  C16 UNL     1       4.865  -5.285  24.453  1.00  0.00     0.022 C 
BRANCH  20  21
HETATM   21  C17 UNL     1       4.277  -3.915  24.533  1.00  0.00     0.127 C 
BRANCH  21  22
HETATM   22  N3  UNL     1       5.088  -2.842  24.069  1.00  0.00    -0.332 N 
HETATM   23  C18 UNL     1       6.370  -2.565  24.726  1.00  0.00     0.155 C 
HETATM   24  C19 UNL     1       4.686  -2.035  22.990  1.00  0.00     0.362 C 
HETATM   25  O3  UNL     1       3.601  -2.174  22.386  1.00  0.00    -0.238 OA
BRANCH  24  26
HETATM   26  O4  UNL     1       5.517  -1.023  22.550  1.00  0.00    -0.304 OA
BRANCH  26  27
HETATM   27  C20 UNL     1       5.050   0.298  22.330  1.00  0.00     0.176 C 
HETATM   28  C21 UNL     1       4.829   1.058  23.600  1.00  0.00     0.034 C 
ENDBRANCH  26  27
ENDBRANCH  24  26
ENDBRANCH  21  22
ENDBRANCH  20  21
ENDBRANCH  19  20
ENDBRANCH  18  19
ENDBRANCH  15  18
ENDBRANCH   8  12
BRANCH   7  29
HETATM   29  O1  UNL     1       6.791  -1.834  19.730  1.00  0.00    -0.393 OA
ATOM     30  H1  UNL     1       7.289  -1.026  19.694  1.00  0.00     0.210 HD
ENDBRANCH   7  29
BRANCH   1  31
HETATM   31  C4  UNL     1       4.439   0.973  16.546  1.00  0.00    -0.021 C 
HETATM   32  C3  UNL     1       3.433   1.501  15.936  1.00  0.00    -0.004 C 
BRANCH  32  33
HETATM   33  C2  UNL     1       3.616   2.647  15.065  1.00  0.00    -0.011 C 
HETATM   34  C1  UNL     1       4.800   2.858  14.526  1.00  0.00     0.011 C 
ENDBRANCH  32  33
ENDBRANCH   1  31
TORSDOF 11
ENDMDL
MODEL 5
REMARK VINA RESULT: -8.331411134      3.030      8.795
REMARK  11 active torsions:
REMARK  status: ('A' for Active; 'I' for Inactive)
REMARK    1  A    between atoms: C2_2  and  C3_3 
REMARK    2  A    between atoms: C4_4  and  C5_5 
REMARK    3  A    between atoms: C11_11  and  O1_12 
REMARK    4  A    between atoms: C12_14  and  N1_15 
REMARK       I    between atoms: N1_15  and  C13_17 
REMARK       I    between atoms: C13_17  and  N2_19 
REMARK    5  A    between atoms: N2_19  and  C14_21 
REMARK    6  A    between atoms: C14_21  and  C15_22 
REMARK    7  A    between atoms: C15_22  and  C16_23 
REMARK    8  A    between atoms: C16_23  and  C17_24 
REMARK    9  A    between atoms: C17_24  and  N3_25 
REMARK       I    between atoms: N3_25  and  C19_27 
REMARK   10  A    between atoms: C19_27  and  O4_29 
REMARK   11  A    between atoms: O4_29  and  C20_30 
ROOT
HETATM    1  C5  UNL     1      10.769   0.754  20.314  1.00  0.00     0.024 C 
HETATM    2  C6  UNL     1       9.412   1.094  20.967  1.00  0.00     0.004 C 
HETATM    3  C7  UNL     1       9.451   2.607  20.872  1.00  0.00     0.007 C 
HETATM    4  C8  UNL     1      10.113   2.937  19.554  1.00  0.00     0.013 C 
HETATM    5  C9  UNL     1      10.695   1.608  19.112  1.00  0.00    -0.009 C 
HETATM    6  C10 UNL     1      11.969   1.765  18.329  1.00  0.00     0.018 C 
HETATM    7  C11 UNL     1       9.690   0.987  18.168  1.00  0.00     0.150 C 
HETATM    8  C12 UNL     1       8.363   0.679  18.722  1.00  0.00     0.123 C 
HETATM    9  C22 UNL     1       8.303   0.471  20.204  1.00  0.00    -0.020 C 
HETATM   10  C23 UNL     1       6.992   1.032  20.763  1.00  0.00     0.017 C 
HETATM   11  C24 UNL     1       8.290  -1.010  20.523  1.00  0.00     0.017 C 
ENDROOT
BRANCH   8  12
HETATM   12  N1  UNL     1       7.738  -0.448  18.061  1.00  0.00    -0.335 N 
HETATM   13  C13 UNL     1       6.416  -0.393  17.513  1.00  0.00     0.316 C 
HETATM   14  O2  UNL     1       5.814   0.718  17.642  1.00  0.00    -0.247 OA
HETATM   15  N2  UNL     1       5.823  -1.505  16.871  1.00  0.00    -0.343 N 
ATOM     16  H2  UNL     1       6.340  -2.381  16.788  1.00  0.00     0.164 HD
ATOM     17  H1  UNL     1       8.262  -1.319  17.983  1.00  0.00     0.164 HD
BRANCH  15  18
HETATM   18  C14 UNL     1       4.507  -1.403  16.341  1.00  0.00     0.124 C 
BRANCH  18  19
HETATM   19  C15 UNL     1       3.497  -2.247  17.100  1.00  0.00     0.021 C 
BRANCH  19  20
HETATM   20  C16 UNL     1       3.798  -3.696  17.042  1.00  0.00     0.022 C 
BRANCH  20  21
HETATM   21  C17 UNL     1       3.754  -4.322  18.396  1.00  0.00     0.127 C 
BRANCH  21  22
HETATM   22  N3  UNL     1       4.892  -4.129  19.229  1.00  0.00    -0.332 N 
HETATM   23  C18 UNL     1       6.218  -4.535  18.750  1.00  0.00     0.155 C 
HETATM   24  C19 UNL     1       4.774  -3.555  20.507  1.00  0.00     0.362 C 
HETATM   25  O3  UNL     1       3.687  -3.204  21.013  1.00  0.00    -0.238 OA
BRANCH  24  26
HETATM   26  O4  UNL     1       5.908  -3.355  21.270  1.00  0.00    -0.304 OA
BRANCH  26  27
HETATM   27  C20 UNL     1       5.914  -3.534  22.677  1.00  0.00     0.176 C 
HETATM   28  C21 UNL     1       6.519  -2.378  23.410  1.00  0.00     0.034 C 
ENDBRANCH  26  27
ENDBRANCH  24  26
ENDBRANCH  21  22
ENDBRANCH  20  21
ENDBRANCH  19  20
ENDBRANCH  18  19
ENDBRANCH  15  18
ENDBRANCH   8  12
BRANCH   7  29
HETATM   29  O1  UNL     1       9.650   1.802  17.028  1.00  0.00    -0.393 OA
ATOM     30  H1  UNL     1       9.809   1.236  16.282  1.00  0.00     0.210 HD
ENDBRANCH   7  29
BRANCH   1  31
HETATM   31  C4  UNL     1      11.768   1.061  21.330  1.00  0.00    -0.021 C 
HETATM   32  C3  UNL     1      11.891   0.645  22.545  1.00  0.00    -0.004 C 
BRANCH  32  33
HETATM   33  C2  UNL     1      12.990   1.103  23.375  1.00  0.00    -0.011 C 
HETATM   34  C1  UNL     1      14.225   0.958  22.939  1.00  0.00     0.011 C 
ENDBRANCH  32  33
ENDBRANCH   1  31
TORSDOF 11
ENDMDL
