MODEL 1
REMARK VINA RESULT: -9.624912924      0.000      0.000
REMARK  15 active torsions:
REMARK  status: ('A' for Active; 'I' for Inactive)
REMARK    1  A    between atoms: N1_1  and  C1_4 
REMARK    2  A    between atoms: C3_8  and  C4_9 
REMARK    3  A    between atoms: C4_9  and  C5_10 
REMARK    4  A    between atoms: C6_11  and  O1_12 
REMARK    5  A    between atoms: N3_14  and  C7_15 
REMARK    6  A    between atoms: C7_15  and  C8_16 
REMARK    7  A    between atoms: C14_22  and  N4_23 
REMARK    8  A    between atoms: N5_26  and  C15_27 
REMARK    9  A    between atoms: C15_27  and  S1_28 
REMARK   10  A    between atoms: S1_28  and  C16_29 
REMARK   11  A    between atoms: C17_34  and  N8_35 
REMARK   12  A    between atoms: C19_43  and  N11_44 
REMARK   13  A    between atoms: N11_44  and  C20_46 
REMARK   14  A    between atoms: C20_46  and  C21_47 
REMARK   15  A    between atoms: C21_47  and  N12_48 
ROOT
HETATM    1  C5  UNL     1      29.999   0.658  16.530  1.00  0.00     0.105 A 
HETATM    2  C6  UNL     1      29.248   0.995  17.641  1.00  0.00     0.186 A 
HETATM    3  N3  UNL     1      30.072   1.082  18.700  1.00  0.00    -0.156 N 
HETATM    4  C14 UNL     1      31.306   0.813  18.293  1.00  0.00     0.684 A 
HETATM    5  N5  UNL     1      31.276   0.552  16.969  1.00  0.00    -0.169 N 
ENDROOT
BRANCH   1   6
HETATM    6  C4  UNL     1      29.588   0.444  15.149  1.00  0.00     0.051 C 
BRANCH   6   7
HETATM    7  C3  UNL     1      29.411   1.445  14.300  1.00  0.00     0.030 A 
HETATM    8  C2  UNL     1      28.243   2.107  13.992  1.00  0.00     0.172 A 
HETATM    9  N2  UNL     1      26.964   1.969  14.422  1.00  0.00    -0.173 N 
HETATM   10  N10 UNL     1      28.485   3.066  13.080  1.00  0.00    -0.068 N 
HETATM   11  C1  UNL     1      25.959   2.750  13.969  1.00  0.00     0.692 A 
ATOM     12  H2  UNL     1      26.753   1.250  15.113  1.00  0.00     0.186 HD
HETATM   13  N13 UNL     1      26.261   3.689  13.060  1.00  0.00    -0.021 N 
HETATM   14  C19 UNL     1      27.514   3.865  12.604  1.00  0.00     0.715 A 
ATOM     15  H13 UNL     1      25.518   4.289  12.704  1.00  0.00     0.203 HD
HETATM   16  N9  UNL     1      29.787   3.029  12.802  1.00  0.00    -0.288 N 
HETATM   17  C18 UNL     1      30.382   2.060  13.521  1.00  0.00     0.123 A 
ATOM     18  H9  UNL     1      30.262   3.644  12.142  1.00  0.00     0.187 HD
BRANCH  11  19
HETATM   19  N1  UNL     1      24.755   2.630  14.363  1.00  0.00    -0.234 N 
ATOM     20  H12 UNL     1      24.165   1.907  13.952  1.00  0.00     0.174 HD
ATOM     21  H11 UNL     1      24.343   3.226  15.081  1.00  0.00     0.174 HD
ENDBRANCH  11  19
BRANCH  14  22
HETATM   22  N11 UNL     1      27.820   4.757  11.737  1.00  0.00    -0.222 N 
ATOM     23  H11 UNL     1      27.884   4.464  10.762  1.00  0.00     0.177 HD
BRANCH  22  24
HETATM   24  C20 UNL     1      28.078   6.131  12.031  1.00  0.00     0.165 C 
BRANCH  24  25
HETATM   25  C21 UNL     1      29.575   6.451  11.972  1.00  0.00     0.249 C 
BRANCH  25  26
HETATM   26  N12 UNL     1      29.943   7.305  13.077  1.00  0.00    -0.078 N 
ATOM     27 3H12 UNL     1      30.918   7.597  13.027  1.00  0.00     0.274 HD
ATOM     28 2H12 UNL     1      29.507   8.225  13.011  1.00  0.00     0.274 HD
ATOM     29 1H12 UNL     1      29.728   6.844  13.961  1.00  0.00     0.274 HD
ENDBRANCH  25  26
ENDBRANCH  24  25
ENDBRANCH  22  24
ENDBRANCH  14  22
ENDBRANCH   6   7
ENDBRANCH   1   6
BRANCH   2  30
HETATM   30  O1  UNL     1      27.888   1.190  17.571  1.00  0.00    -0.344 OA
ATOM     31  H1  UNL     1      27.434   1.791  18.149  1.00  0.00     0.219 HD
ENDBRANCH   2  30
BRANCH   5  32
HETATM   32  C15 UNL     1      32.461   0.223  16.238  1.00  0.00     0.230 C 
BRANCH  32  33
HETATM   33  S1  UNL     1      32.684  -1.521  15.927  1.00  0.00    -0.064 SA
BRANCH  33  34
HETATM   34  C16 UNL     1      33.168  -1.722  14.213  1.00  0.00     0.206 A 
HETATM   35  N6  UNL     1      32.434  -1.545  13.104  1.00  0.00    -0.271 N 
HETATM   36  N7  UNL     1      33.157  -1.793  12.024  1.00  0.00    -0.263 N 
ATOM     37  H6  UNL     1      31.455  -1.260  13.095  1.00  0.00     0.189 HD
HETATM   38  C17 UNL     1      34.376  -2.135  12.466  1.00  0.00     0.239 A 
ATOM     39  H7  UNL     1      32.849  -1.736  11.053  1.00  0.00     0.190 HD
HETATM   40  O2  UNL     1      34.373  -2.089  13.787  1.00  0.00    -0.253 OA
BRANCH  38  41
HETATM   41  N8  UNL     1      35.373  -2.454  11.700  1.00  0.00    -0.364 N 
ATOM     42  H82 UNL     1      35.451  -2.290  10.696  1.00  0.00     0.159 HD
ATOM     43  H81 UNL     1      36.222  -2.919  12.020  1.00  0.00     0.159 HD
ENDBRANCH  38  41
ENDBRANCH  33  34
ENDBRANCH  32  33
ENDBRANCH   5  32
BRANCH   3  44
HETATM   44  C7  UNL     1      29.645   1.420  20.042  1.00  0.00     0.188 C 
BRANCH  44  45
HETATM   45  C8  UNL     1      28.879   0.349  20.714  1.00  0.00    -0.039 A 
HETATM   46  C9  UNL     1      29.490  -0.849  20.988  1.00  0.00     0.009 A 
HETATM   47  C10 UNL     1      28.758  -1.839  21.617  1.00  0.00     0.001 A 
HETATM   48  C11 UNL     1      27.431  -1.606  21.958  1.00  0.00     0.000 A 
HETATM   49  C12 UNL     1      26.829  -0.400  21.679  1.00  0.00     0.001 A 
HETATM   50  C13 UNL     1      27.556   0.584  21.053  1.00  0.00     0.009 A 
ENDBRANCH  44  45
ENDBRANCH   3  44
BRANCH   4  51
HETATM   51  N4  UNL     1      32.357   0.812  19.061  1.00  0.00    -0.234 N 
ATOM     52  H42 UNL     1      32.717   0.023  19.597  1.00  0.00     0.174 HD
ATOM     53  H41 UNL     1      32.963   1.618  19.219  1.00  0.00     0.174 HD
ENDBRANCH   4  51
TORSDOF 15
ENDMDL
MODEL 2
REMARK VINA RESULT: -9.551416550      1.067      1.195
REMARK  15 active torsions:
REMARK  status: ('A' for Active; 'I' for Inactive)
REMARK    1  A    between atoms: N1_1  and  C1_4 
REMARK    2  A    between atoms: C3_8  and  C4_9 
REMARK    3  A    between atoms: C4_9  and  C5_10 
REMARK    4  A    between atoms: C6_11  and  O1_12 
REMARK    5  A    between atoms: N3_14  and  C7_15 
REMARK    6  A    between atoms: C7_15  and  C8_16 
REMARK    7  A    between atoms: C14_22  and  N4_23 
REMARK    8  A    between atoms: N5_26  and  C15_27 
REMARK    9  A    between atoms: C15_27  and  S1_28 
REMARK   10  A    between atoms: S1_28  and  C16_29 
REMARK   11  A    between atoms: C17_34  and  N8_35 
REMARK   12  A    between atoms: C19_43  and  N11_44 
REMARK   13  A    between atoms: N11_44  and  C20_46 
REMARK   14  A    between atoms: C20_46  and  C21_47 
REMARK   15  A    between atoms: C21_47  and  N12_48 
ROOT
HETATM    1  C5  UNL     1      29.991   0.624  16.519  1.00  0.00     0.105 A 
HETATM    2  C6  UNL     1      29.261   0.984  17.637  1.00  0.00     0.186 A 
HETATM    3  N3  UNL     1      30.098   1.048  18.687  1.00  0.00    -0.156 N 
HETATM    4  C14 UNL     1      31.319   0.744  18.269  1.00  0.00     0.684 A 
HETATM    5  N5  UNL     1      31.269   0.481  16.946  1.00  0.00    -0.169 N 
ENDROOT
BRANCH   1   6
HETATM    6  C4  UNL     1      29.561   0.420  15.142  1.00  0.00     0.051 C 
BRANCH   6   7
HETATM    7  C3  UNL     1      29.388   1.425  14.299  1.00  0.00     0.030 A 
HETATM    8  C2  UNL     1      28.221   2.093  13.993  1.00  0.00     0.172 A 
HETATM    9  N2  UNL     1      26.941   1.956  14.422  1.00  0.00    -0.173 N 
HETATM   10  N10 UNL     1      28.467   3.056  13.087  1.00  0.00    -0.068 N 
HETATM   11  C1  UNL     1      25.939   2.742  13.972  1.00  0.00     0.692 A 
ATOM     12  H2  UNL     1      26.728   1.234  15.110  1.00  0.00     0.186 HD
HETATM   13  N13 UNL     1      26.244   3.685  13.069  1.00  0.00    -0.021 N 
HETATM   14  C19 UNL     1      27.498   3.860  12.614  1.00  0.00     0.715 A 
ATOM     15  H13 UNL     1      25.503   4.289  12.716  1.00  0.00     0.203 HD
HETATM   16  N9  UNL     1      29.769   3.016  12.809  1.00  0.00    -0.288 N 
HETATM   17  C18 UNL     1      30.361   2.042  13.523  1.00  0.00     0.123 A 
ATOM     18  H9  UNL     1      30.246   3.634  12.153  1.00  0.00     0.187 HD
BRANCH  11  19
HETATM   19  N1  UNL     1      24.735   2.624  14.366  1.00  0.00    -0.234 N 
ATOM     20  H12 UNL     1      24.468   2.999  15.276  1.00  0.00     0.174 HD
ATOM     21  H11 UNL     1      24.011   2.168  13.811  1.00  0.00     0.174 HD
ENDBRANCH  11  19
BRANCH  14  22
HETATM   22  N11 UNL     1      27.807   4.756  11.753  1.00  0.00    -0.222 N 
ATOM     23  H11 UNL     1      27.880   4.466  10.777  1.00  0.00     0.177 HD
BRANCH  22  24
HETATM   24  C20 UNL     1      28.057   6.130  12.053  1.00  0.00     0.165 C 
BRANCH  24  25
HETATM   25  C21 UNL     1      29.550   6.465  11.970  1.00  0.00     0.249 C 
BRANCH  25  26
HETATM   26  N12 UNL     1      29.927   7.323  13.070  1.00  0.00    -0.078 N 
ATOM     27 3H12 UNL     1      29.137   7.865  13.419  1.00  0.00     0.274 HD
ATOM     28 2H12 UNL     1      30.129   6.791  13.916  1.00  0.00     0.274 HD
ATOM     29 1H12 UNL     1      30.707   7.919  12.796  1.00  0.00     0.274 HD
ENDBRANCH  25  26
ENDBRANCH  24  25
ENDBRANCH  22  24
ENDBRANCH  14  22
ENDBRANCH   6   7
ENDBRANCH   1   6
BRANCH   2  30
HETATM   30  O1  UNL     1      27.906   1.217  17.579  1.00  0.00    -0.344 OA
ATOM     31  H1  UNL     1      27.466   1.786  18.199  1.00  0.00     0.219 HD
ENDBRANCH   2  30
BRANCH   5  32
HETATM   32  C15 UNL     1      32.437   0.117  16.204  1.00  0.00     0.230 C 
BRANCH  32  33
HETATM   33  S1  UNL     1      32.839  -1.622  16.255  1.00  0.00    -0.064 SA
BRANCH  33  34
HETATM   34  C16 UNL     1      32.206  -2.380  14.759  1.00  0.00     0.206 A 
HETATM   35  N6  UNL     1      31.844  -1.797  13.607  1.00  0.00    -0.271 N 
HETATM   36  N7  UNL     1      31.427  -2.703  12.738  1.00  0.00    -0.263 N 
ATOM     37  H6  UNL     1      31.885  -0.794  13.425  1.00  0.00     0.189 HD
HETATM   38  C17 UNL     1      31.529  -3.887  13.361  1.00  0.00     0.239 A 
ATOM     39  H7  UNL     1      31.096  -2.536  11.788  1.00  0.00     0.190 HD
HETATM   40  O2  UNL     1      31.999  -3.681  14.579  1.00  0.00    -0.253 OA
BRANCH  38  41
HETATM   41  N8  UNL     1      31.210  -5.026  12.830  1.00  0.00    -0.364 N 
ATOM     42  H82 UNL     1      31.620  -5.451  11.998  1.00  0.00     0.159 HD
ATOM     43  H81 UNL     1      30.491  -5.652  13.194  1.00  0.00     0.159 HD
ENDBRANCH  38  41
ENDBRANCH  33  34
ENDBRANCH  32  33
ENDBRANCH   5  32
BRANCH   3  44
HETATM   44  C7  UNL     1      29.694   1.400  20.033  1.00  0.00     0.188 C 
BRANCH  44  45
HETATM   45  C8  UNL     1      28.910   0.350  20.717  1.00  0.00    -0.039 A 
HETATM   46  C9  UNL     1      29.506  -0.848  21.022  1.00  0.00     0.009 A 
HETATM   47  C10 UNL     1      28.757  -1.819  21.662  1.00  0.00     0.001 A 
HETATM   48  C11 UNL     1      27.427  -1.567  21.981  1.00  0.00     0.000 A 
HETATM   49  C12 UNL     1      26.840  -0.361  21.669  1.00  0.00     0.001 A 
HETATM   50  C13 UNL     1      27.584   0.604  21.033  1.00  0.00     0.009 A 
ENDBRANCH  44  45
ENDBRANCH   3  44
BRANCH   4  51
HETATM   51  N4  UNL     1      32.377   0.713  19.027  1.00  0.00    -0.234 N 
ATOM     52  H42 UNL     1      33.077   1.449  19.124  1.00  0.00     0.174 HD
ATOM     53  H41 UNL     1      32.637  -0.067  19.632  1.00  0.00     0.174 HD
ENDBRANCH   4  51
TORSDOF 15
ENDMDL
MODEL 3
REMARK VINA RESULT: -9.536829185      1.016      2.237
REMARK  15 active torsions:
REMARK  status: ('A' for Active; 'I' for Inactive)
REMARK    1  A    between atoms: N1_1  and  C1_4 
REMARK    2  A    between atoms: C3_8  and  C4_9 
REMARK    3  A    between atoms: C4_9  and  C5_10 
REMARK    4  A    between atoms: C6_11  and  O1_12 
REMARK    5  A    between atoms: N3_14  and  C7_15 
REMARK    6  A    between atoms: C7_15  and  C8_16 
REMARK    7  A    between atoms: C14_22  and  N4_23 
REMARK    8  A    between atoms: N5_26  and  C15_27 
REMARK    9  A    between atoms: C15_27  and  S1_28 
REMARK   10  A    between atoms: S1_28  and  C16_29 
REMARK   11  A    between atoms: C17_34  and  N8_35 
REMARK   12  A    between atoms: C19_43  and  N11_44 
REMARK   13  A    between atoms: N11_44  and  C20_46 
REMARK   14  A    between atoms: C20_46  and  C21_47 
REMARK   15  A    between atoms: C21_47  and  N12_48 
ROOT
HETATM    1  C5  UNL     1      29.776   0.636  16.532  1.00  0.00     0.105 A 
HETATM    2  C6  UNL     1      29.033   1.008  17.637  1.00  0.00     0.186 A 
HETATM    3  N3  UNL     1      29.872   1.172  18.675  1.00  0.00    -0.156 N 
HETATM    4  C14 UNL     1      31.106   0.917  18.261  1.00  0.00     0.684 A 
HETATM    5  N5  UNL     1      31.063   0.587  16.954  1.00  0.00    -0.169 N 
ENDROOT
BRANCH   1   6
HETATM    6  C4  UNL     1      29.349   0.339  15.171  1.00  0.00     0.051 C 
BRANCH   6   7
HETATM    7  C3  UNL     1      29.090   1.291  14.288  1.00  0.00     0.030 A 
HETATM    8  C2  UNL     1      29.979   2.119  13.637  1.00  0.00     0.172 A 
HETATM    9  N2  UNL     1      31.331   2.233  13.677  1.00  0.00    -0.173 N 
HETATM   10  N10 UNL     1      29.315   2.952  12.817  1.00  0.00    -0.068 N 
HETATM   11  C1  UNL     1      32.003   3.138  12.933  1.00  0.00     0.692 A 
ATOM     12  H2  UNL     1      31.858   1.612  14.290  1.00  0.00     0.186 HD
HETATM   13  N13 UNL     1      31.287   3.943  12.134  1.00  0.00    -0.021 N 
HETATM   14  C19 UNL     1      29.947   3.867  12.060  1.00  0.00     0.715 A 
ATOM     15  H13 UNL     1      31.775   4.634  11.565  1.00  0.00     0.203 HD
HETATM   16  N9  UNL     1      28.018   2.672  12.931  1.00  0.00    -0.288 N 
HETATM   17  C18 UNL     1      27.841   1.671  13.813  1.00  0.00     0.123 A 
ATOM     18  H9  UNL     1      27.270   3.146  12.425  1.00  0.00     0.187 HD
BRANCH  11  19
HETATM   19  N1  UNL     1      33.270   3.256  12.962  1.00  0.00    -0.234 N 
ATOM     20  H12 UNL     1      33.695   3.913  13.617  1.00  0.00     0.174 HD
ATOM     21  H11 UNL     1      33.892   2.720  12.358  1.00  0.00     0.174 HD
ENDBRANCH  11  19
BRANCH  14  22
HETATM   22  N11 UNL     1      29.248   4.628  11.301  1.00  0.00    -0.222 N 
ATOM     23  H11 UNL     1      28.549   4.183  10.705  1.00  0.00     0.177 HD
BRANCH  22  24
HETATM   24  C20 UNL     1      29.372   6.048  11.225  1.00  0.00     0.165 C 
BRANCH  24  25
HETATM   25  C21 UNL     1      28.906   6.727  12.517  1.00  0.00     0.249 C 
BRANCH  25  26
HETATM   26  N12 UNL     1      30.008   7.427  13.135  1.00  0.00    -0.078 N 
ATOM     27 3H12 UNL     1      30.644   6.790  13.615  1.00  0.00     0.274 HD
ATOM     28 2H12 UNL     1      30.662   7.796  12.444  1.00  0.00     0.274 HD
ATOM     29 1H12 UNL     1      29.656   8.155  13.756  1.00  0.00     0.274 HD
ENDBRANCH  25  26
ENDBRANCH  24  25
ENDBRANCH  22  24
ENDBRANCH  14  22
ENDBRANCH   6   7
ENDBRANCH   1   6
BRANCH   2  30
HETATM   30  O1  UNL     1      27.667   1.161  17.581  1.00  0.00    -0.344 OA
ATOM     31  H1  UNL     1      27.082   0.668  18.143  1.00  0.00     0.219 HD
ENDBRANCH   2  30
BRANCH   5  32
HETATM   32  C15 UNL     1      32.245   0.254  16.220  1.00  0.00     0.230 C 
BRANCH  32  33
HETATM   33  S1  UNL     1      32.460  -1.491  15.907  1.00  0.00    -0.064 SA
BRANCH  33  34
HETATM   34  C16 UNL     1      33.037  -1.685  14.221  1.00  0.00     0.206 A 
HETATM   35  N6  UNL     1      32.365  -1.507  13.074  1.00  0.00    -0.271 N 
HETATM   36  N7  UNL     1      33.146  -1.751  12.035  1.00  0.00    -0.263 N 
ATOM     37  H6  UNL     1      31.388  -1.224  13.013  1.00  0.00     0.189 HD
HETATM   38  C17 UNL     1      34.340  -2.091  12.541  1.00  0.00     0.239 A 
ATOM     39  H7  UNL     1      32.891  -1.691  11.049  1.00  0.00     0.190 HD
HETATM   40  O2  UNL     1      34.265  -2.049  13.861  1.00  0.00    -0.253 OA
BRANCH  38  41
HETATM   41  N8  UNL     1      35.378  -2.406  11.830  1.00  0.00    -0.364 N 
ATOM     42  H82 UNL     1      35.793  -1.858  11.076  1.00  0.00     0.159 HD
ATOM     43  H81 UNL     1      35.919  -3.263  11.944  1.00  0.00     0.159 HD
ENDBRANCH  38  41
ENDBRANCH  33  34
ENDBRANCH  32  33
ENDBRANCH   5  32
BRANCH   3  44
HETATM   44  C7  UNL     1      29.457   1.566  20.006  1.00  0.00     0.188 C 
BRANCH  44  45
HETATM   45  C8  UNL     1      28.760   0.500  20.757  1.00  0.00    -0.039 A 
HETATM   46  C9  UNL     1      29.454  -0.618  21.145  1.00  0.00     0.009 A 
HETATM   47  C10 UNL     1      28.785  -1.604  21.846  1.00  0.00     0.001 A 
HETATM   48  C11 UNL     1      27.435  -1.447  22.142  1.00  0.00     0.000 A 
HETATM   49  C12 UNL     1      26.749  -0.321  21.746  1.00  0.00     0.001 A 
HETATM   50  C13 UNL     1      27.414   0.660  21.049  1.00  0.00     0.009 A 
ENDBRANCH  44  45
ENDBRANCH   3  44
BRANCH   4  51
HETATM   51  N4  UNL     1      32.169   0.984  19.010  1.00  0.00    -0.234 N 
ATOM     52  H42 UNL     1      32.280   0.593  19.945  1.00  0.00     0.174 HD
ATOM     53  H41 UNL     1      33.040   1.444  18.743  1.00  0.00     0.174 HD
ENDBRANCH   4  51
TORSDOF 15
ENDMDL
MODEL 4
REMARK VINA RESULT: -9.529016787      0.678      1.099
REMARK  15 active torsions:
REMARK  status: ('A' for Active; 'I' for Inactive)
REMARK    1  A    between atoms: N1_1  and  C1_4 
REMARK    2  A    between atoms: C3_8  and  C4_9 
REMARK    3  A    between atoms: C4_9  and  C5_10 
REMARK    4  A    between atoms: C6_11  and  O1_12 
REMARK    5  A    between atoms: N3_14  and  C7_15 
REMARK    6  A    between atoms: C7_15  and  C8_16 
REMARK    7  A    between atoms: C14_22  and  N4_23 
REMARK    8  A    between atoms: N5_26  and  C15_27 
REMARK    9  A    between atoms: C15_27  and  S1_28 
REMARK   10  A    between atoms: S1_28  and  C16_29 
REMARK   11  A    between atoms: C17_34  and  N8_35 
REMARK   12  A    between atoms: C19_43  and  N11_44 
REMARK   13  A    between atoms: N11_44  and  C20_46 
REMARK   14  A    between atoms: C20_46  and  C21_47 
REMARK   15  A    between atoms: C21_47  and  N12_48 
ROOT
HETATM    1  C5  UNL     1      30.013   0.649  16.533  1.00  0.00     0.105 A 
HETATM    2  C6  UNL     1      29.269   0.989  17.648  1.00  0.00     0.186 A 
HETATM    3  N3  UNL     1      30.100   1.072  18.702  1.00  0.00    -0.156 N 
HETATM    4  C14 UNL     1      31.330   0.797  18.289  1.00  0.00     0.684 A 
HETATM    5  N5  UNL     1      31.292   0.536  16.966  1.00  0.00    -0.169 N 
ENDROOT
BRANCH   1   6
HETATM    6  C4  UNL     1      29.594   0.436  15.154  1.00  0.00     0.051 C 
BRANCH   6   7
HETATM    7  C3  UNL     1      29.411   1.437  14.308  1.00  0.00     0.030 A 
HETATM    8  C2  UNL     1      28.239   2.097  14.005  1.00  0.00     0.172 A 
HETATM    9  N2  UNL     1      26.962   1.954  14.439  1.00  0.00    -0.173 N 
HETATM   10  N10 UNL     1      28.475   3.058  13.095  1.00  0.00    -0.068 N 
HETATM   11  C1  UNL     1      25.953   2.732  13.991  1.00  0.00     0.692 A 
ATOM     12  H2  UNL     1      26.756   1.232  15.130  1.00  0.00     0.186 HD
HETATM   13  N13 UNL     1      26.249   3.674  13.084  1.00  0.00    -0.021 N 
HETATM   14  C19 UNL     1      27.500   3.854  12.623  1.00  0.00     0.715 A 
ATOM     15  H13 UNL     1      25.502   4.272  12.731  1.00  0.00     0.203 HD
HETATM   16  N9  UNL     1      29.776   3.026  12.811  1.00  0.00    -0.288 N 
HETATM   17  C18 UNL     1      30.377   2.057  13.526  1.00  0.00     0.123 A 
ATOM     18  H9  UNL     1      30.247   3.644  12.151  1.00  0.00     0.187 HD
BRANCH  11  19
HETATM   19  N1  UNL     1      24.751   2.608  14.390  1.00  0.00    -0.234 N 
ATOM     20  H12 UNL     1      24.559   2.076  15.239  1.00  0.00     0.174 HD
ATOM     21  H11 UNL     1      23.957   3.019  13.899  1.00  0.00     0.174 HD
ENDBRANCH  11  19
BRANCH  14  22
HETATM   22  N11 UNL     1      27.799   4.750  11.757  1.00  0.00    -0.222 N 
ATOM     23  H11 UNL     1      27.869   4.457  10.782  1.00  0.00     0.177 HD
BRANCH  22  24
HETATM   24  C20 UNL     1      28.044   6.126  12.051  1.00  0.00     0.165 C 
BRANCH  24  25
HETATM   25  C21 UNL     1      29.533   6.471  11.948  1.00  0.00     0.249 C 
BRANCH  25  26
HETATM   26  N12 UNL     1      29.931   7.288  13.071  1.00  0.00    -0.078 N 
ATOM     27 3H12 UNL     1      29.352   7.115  13.893  1.00  0.00     0.274 HD
ATOM     28 2H12 UNL     1      30.829   6.995  13.457  1.00  0.00     0.274 HD
ATOM     29 1H12 UNL     1      29.932   8.272  12.805  1.00  0.00     0.274 HD
ENDBRANCH  25  26
ENDBRANCH  24  25
ENDBRANCH  22  24
ENDBRANCH  14  22
ENDBRANCH   6   7
ENDBRANCH   1   6
BRANCH   2  30
HETATM   30  O1  UNL     1      27.910   1.190  17.585  1.00  0.00    -0.344 OA
ATOM     31  H1  UNL     1      27.511   2.017  17.828  1.00  0.00     0.219 HD
ENDBRANCH   2  30
BRANCH   5  32
HETATM   32  C15 UNL     1      32.472   0.200  16.228  1.00  0.00     0.230 C 
BRANCH  32  33
HETATM   33  S1  UNL     1      32.838  -1.546  16.164  1.00  0.00    -0.064 SA
BRANCH  33  34
HETATM   34  C16 UNL     1      32.432  -2.137  14.521  1.00  0.00     0.206 A 
HETATM   35  N6  UNL     1      31.392  -2.886  14.128  1.00  0.00    -0.271 N 
HETATM   36  N7  UNL     1      31.446  -3.112  12.826  1.00  0.00    -0.263 N 
ATOM     37  H6  UNL     1      30.660  -3.234  14.747  1.00  0.00     0.189 HD
HETATM   38  C17 UNL     1      32.550  -2.489  12.388  1.00  0.00     0.239 A 
ATOM     39  H7  UNL     1      30.783  -3.651  12.268  1.00  0.00     0.190 HD
HETATM   40  O2  UNL     1      33.138  -1.904  13.418  1.00  0.00    -0.253 OA
BRANCH  38  41
HETATM   41  N8  UNL     1      32.950  -2.480  11.155  1.00  0.00    -0.364 N 
ATOM     42  H82 UNL     1      32.423  -2.789  10.338  1.00  0.00     0.159 HD
ATOM     43  H81 UNL     1      33.865  -2.152  10.846  1.00  0.00     0.159 HD
ENDBRANCH  38  41
ENDBRANCH  33  34
ENDBRANCH  32  33
ENDBRANCH   5  32
BRANCH   3  44
HETATM   44  C7  UNL     1      29.682   1.413  20.047  1.00  0.00     0.188 C 
BRANCH  44  45
HETATM   45  C8  UNL     1      28.885   0.359  20.711  1.00  0.00    -0.039 A 
HETATM   46  C9  UNL     1      27.575   0.607  21.037  1.00  0.00     0.009 A 
HETATM   47  C10 UNL     1      26.845  -0.390  21.658  1.00  0.00     0.001 A 
HETATM   48  C11 UNL     1      27.445  -1.613  21.937  1.00  0.00     0.000 A 
HETATM   49  C12 UNL     1      28.759  -1.850  21.605  1.00  0.00     0.001 A 
HETATM   50  C13 UNL     1      29.485  -0.859  20.988  1.00  0.00     0.009 A 
ENDBRANCH  44  45
ENDBRANCH   3  44
BRANCH   4  51
HETATM   51  N4  UNL     1      32.385   0.791  19.051  1.00  0.00    -0.234 N 
ATOM     52  H42 UNL     1      32.399   0.725  20.069  1.00  0.00     0.174 HD
ATOM     53  H41 UNL     1      33.346   0.849  18.714  1.00  0.00     0.174 HD
ENDBRANCH   4  51
TORSDOF 15
ENDMDL
MODEL 5
REMARK VINA RESULT: -9.505927715      1.477      2.502
REMARK  15 active torsions:
REMARK  status: ('A' for Active; 'I' for Inactive)
REMARK    1  A    between atoms: N1_1  and  C1_4 
REMARK    2  A    between atoms: C3_8  and  C4_9 
REMARK    3  A    between atoms: C4_9  and  C5_10 
REMARK    4  A    between atoms: C6_11  and  O1_12 
REMARK    5  A    between atoms: N3_14  and  C7_15 
REMARK    6  A    between atoms: C7_15  and  C8_16 
REMARK    7  A    between atoms: C14_22  and  N4_23 
REMARK    8  A    between atoms: N5_26  and  C15_27 
REMARK    9  A    between atoms: C15_27  and  S1_28 
REMARK   10  A    between atoms: S1_28  and  C16_29 
REMARK   11  A    between atoms: C17_34  and  N8_35 
REMARK   12  A    between atoms: C19_43  and  N11_44 
REMARK   13  A    between atoms: N11_44  and  C20_46 
REMARK   14  A    between atoms: C20_46  and  C21_47 
REMARK   15  A    between atoms: C21_47  and  N12_48 
ROOT
HETATM    1  C5  UNL     1      29.718   0.586  16.485  1.00  0.00     0.105 A 
HETATM    2  C6  UNL     1      29.008   0.998  17.597  1.00  0.00     0.186 A 
HETATM    3  N3  UNL     1      29.866   1.128  18.624  1.00  0.00    -0.156 N 
HETATM    4  C14 UNL     1      31.082   0.812  18.196  1.00  0.00     0.684 A 
HETATM    5  N5  UNL     1      31.006   0.478  16.891  1.00  0.00    -0.169 N 
ENDROOT
BRANCH   1   6
HETATM    6  C4  UNL     1      29.260   0.303  15.131  1.00  0.00     0.051 C 
BRANCH   6   7
HETATM    7  C3  UNL     1      29.018   1.263  14.252  1.00  0.00     0.030 A 
HETATM    8  C2  UNL     1      29.919   2.100  13.630  1.00  0.00     0.172 A 
HETATM    9  N2  UNL     1      31.269   2.218  13.702  1.00  0.00    -0.173 N 
HETATM   10  N10 UNL     1      29.271   2.939  12.803  1.00  0.00    -0.068 N 
HETATM   11  C1  UNL     1      31.955   3.133  12.983  1.00  0.00     0.692 A 
ATOM     12  H2  UNL     1      31.784   1.593  14.321  1.00  0.00     0.186 HD
HETATM   13  N13 UNL     1      31.255   3.943  12.176  1.00  0.00    -0.021 N 
HETATM   14  C19 UNL     1      29.916   3.864  12.070  1.00  0.00     0.715 A 
ATOM     15  H13 UNL     1      31.753   4.641  11.624  1.00  0.00     0.203 HD
HETATM   16  N9  UNL     1      27.973   2.653  12.884  1.00  0.00    -0.288 N 
HETATM   17  C18 UNL     1      27.779   1.643  13.752  1.00  0.00     0.123 A 
ATOM     18  H9  UNL     1      27.235   3.129  12.365  1.00  0.00     0.187 HD
BRANCH  11  19
HETATM   19  N1  UNL     1      33.220   3.255  13.043  1.00  0.00    -0.234 N 
ATOM     20  H12 UNL     1      33.635   4.184  12.972  1.00  0.00     0.174 HD
ATOM     21  H11 UNL     1      33.850   2.462  13.160  1.00  0.00     0.174 HD
ENDBRANCH  11  19
BRANCH  14  22
HETATM   22  N11 UNL     1      29.233   4.629  11.302  1.00  0.00    -0.222 N 
ATOM     23  H11 UNL     1      28.505   4.196  10.732  1.00  0.00     0.177 HD
BRANCH  22  24
HETATM   24  C20 UNL     1      29.410   6.041  11.182  1.00  0.00     0.165 C 
BRANCH  24  25
HETATM   25  C21 UNL     1      28.908   6.782  12.425  1.00  0.00     0.249 C 
BRANCH  25  26
HETATM   26  N12 UNL     1      30.018   7.389  13.123  1.00  0.00    -0.078 N 
ATOM     27 3H12 UNL     1      30.598   6.694  13.593  1.00  0.00     0.274 HD
ATOM     28 2H12 UNL     1      30.718   7.758  12.479  1.00  0.00     0.274 HD
ATOM     29 1H12 UNL     1      29.678   8.101  13.768  1.00  0.00     0.274 HD
ENDBRANCH  25  26
ENDBRANCH  24  25
ENDBRANCH  22  24
ENDBRANCH  14  22
ENDBRANCH   6   7
ENDBRANCH   1   6
BRANCH   2  30
HETATM   30  O1  UNL     1      27.650   1.216  17.557  1.00  0.00    -0.344 OA
ATOM     31  H1  UNL     1      27.118   1.229  18.344  1.00  0.00     0.219 HD
ENDBRANCH   2  30
BRANCH   5  32
HETATM   32  C15 UNL     1      32.162   0.086  16.144  1.00  0.00     0.230 C 
BRANCH  32  33
HETATM   33  S1  UNL     1      32.590  -1.642  16.288  1.00  0.00    -0.064 SA
BRANCH  33  34
HETATM   34  C16 UNL     1      32.133  -2.455  14.757  1.00  0.00     0.206 A 
HETATM   35  N6  UNL     1      31.689  -1.912  13.614  1.00  0.00    -0.271 N 
HETATM   36  N7  UNL     1      31.461  -2.851  12.711  1.00  0.00    -0.263 N 
ATOM     37  H6  UNL     1      31.546  -0.914  13.463  1.00  0.00     0.189 HD
HETATM   38  C17 UNL     1      31.770  -4.015  13.302  1.00  0.00     0.239 A 
ATOM     39  H7  UNL     1      31.120  -2.717  11.759  1.00  0.00     0.190 HD
HETATM   40  O2  UNL     1      32.174  -3.766  14.536  1.00  0.00    -0.253 OA
BRANCH  38  41
HETATM   41  N8  UNL     1      31.676  -5.176  12.732  1.00  0.00    -0.364 N 
ATOM     42  H82 UNL     1      31.664  -5.368  11.730  1.00  0.00     0.159 HD
ATOM     43  H81 UNL     1      31.602  -6.062  13.233  1.00  0.00     0.159 HD
ENDBRANCH  38  41
ENDBRANCH  33  34
ENDBRANCH  32  33
ENDBRANCH   5  32
BRANCH   3  44
HETATM   44  C7  UNL     1      29.488   1.548  19.958  1.00  0.00     0.188 C 
BRANCH  44  45
HETATM   45  C8  UNL     1      28.789   0.505  20.739  1.00  0.00    -0.039 A 
HETATM   46  C9  UNL     1      29.489  -0.587  21.185  1.00  0.00     0.009 A 
HETATM   47  C10 UNL     1      28.819  -1.553  21.914  1.00  0.00     0.001 A 
HETATM   48  C11 UNL     1      27.462  -1.401  22.179  1.00  0.00     0.000 A 
HETATM   49  C12 UNL     1      26.771  -0.301  21.725  1.00  0.00     0.001 A 
HETATM   50  C13 UNL     1      27.436   0.659  21.000  1.00  0.00     0.009 A 
ENDBRANCH  44  45
ENDBRANCH   3  44
BRANCH   4  51
HETATM   51  N4  UNL     1      32.156   0.833  18.931  1.00  0.00    -0.234 N 
ATOM     52  H42 UNL     1      32.733   0.032  19.188  1.00  0.00     0.174 HD
ATOM     53  H41 UNL     1      32.561   1.673  19.345  1.00  0.00     0.174 HD
ENDBRANCH   4  51
TORSDOF 15
ENDMDL
