MODEL 1
REMARK VINA RESULT: -8.149247031      0.000      0.000
REMARK  7 active torsions:
REMARK  status: ('A' for Active; 'I' for Inactive)
REMARK    1  A    between atoms: N1_2  and  C4_5 
REMARK    2  A    between atoms: C4_5  and  C5_6 
REMARK    3  A    between atoms: C5_6  and  N3_10 
REMARK    4  A    between atoms: N3_10  and  N4_12 
REMARK       I    between atoms: N4_12  and  C6_14 
REMARK       I    between atoms: C6_14  and  N6_18 
REMARK    5  A    between atoms: N6_18  and  C7_20 
REMARK    6  A    between atoms: C7_20  and  C8_21 
REMARK    7  A    between atoms: C8_21  and  N7_22 
ROOT
HETATM    1  N4  UNL     1     -25.438 -13.251  64.892  1.00  0.00    -0.131 N 
ATOM      2  H4  UNL     1     -25.064 -13.570  63.998  1.00  0.00     0.205 HD
HETATM    3  C6  UNL     1     -25.856 -14.206  65.879  1.00  0.00     0.686 C 
HETATM    4  N5  UNL     1     -25.060 -14.795  66.677  1.00  0.00    -0.234 N 
ATOM      5  H51 UNL     1     -25.358 -15.474  67.378  1.00  0.00     0.174 HD
ATOM      6  H52 UNL     1     -24.060 -14.603  66.640  1.00  0.00     0.174 HD
HETATM    7  N6  UNL     1     -27.254 -14.475  65.930  1.00  0.00    -0.224 N 
ATOM      8  H6  UNL     1     -27.652 -15.162  65.290  1.00  0.00     0.177 HD
ENDROOT
BRANCH   1   9
HETATM    9  N3  UNL     1     -25.544 -11.886  65.161  1.00  0.00    -0.274 N 
ATOM     10  H3  UNL     1     -26.315 -11.528  65.724  1.00  0.00     0.189 HD
BRANCH   9  11
HETATM   11  C5  UNL     1     -24.568 -11.010  64.642  1.00  0.00     0.116 C 
HETATM   12  N2  UNL     1     -24.267  -9.956  65.304  1.00  0.00    -0.386 N 
ATOM     13  H22 UNL     1     -23.562  -9.321  64.929  1.00  0.00     0.157 HD
ATOM     14  H21 UNL     1     -24.724  -9.753  66.194  1.00  0.00     0.157 HD
BRANCH  11  15
HETATM   15  C4  UNL     1     -23.915 -11.298  63.372  1.00  0.00     0.312 C 
BRANCH  15  16
HETATM   16  N1  UNL     1     -22.508 -11.524  63.427  1.00  0.00    -0.072 N 
HETATM   17  C1  UNL     1     -22.078 -11.764  62.040  1.00  0.00     0.272 C 
HETATM   18  C2  UNL     1     -21.768 -10.380  63.912  1.00  0.00     0.272 C 
HETATM   19  C3  UNL     1     -22.125 -12.668  64.199  1.00  0.00     0.272 C 
ENDBRANCH  15  16
ENDBRANCH  11  15
ENDBRANCH   9  11
ENDBRANCH   1   9
BRANCH   7  20
HETATM   20  C7  UNL     1     -28.118 -13.801  66.863  1.00  0.00     0.166 C 
BRANCH  20  21
HETATM   21  C8  UNL     1     -28.106 -14.481  68.176  1.00  0.00     0.257 C 
BRANCH  21  22
HETATM   22  N7  UNL     1     -28.649 -13.747  69.283  1.00  0.00    -0.069 N 
HETATM   23  C9  UNL     1     -28.999 -12.396  68.984  1.00  0.00     0.272 C 
HETATM   24  C10 UNL     1     -27.762 -13.780  70.409  1.00  0.00     0.237 C 
HETATM   25  C11 UNL     1     -28.560 -14.152  71.637  1.00  0.00     0.029 C 
HETATM   26  C12 UNL     1     -30.007 -14.094  71.184  1.00  0.00     0.029 C 
HETATM   27  C13 UNL     1     -29.872 -14.421  69.731  1.00  0.00     0.237 C 
ENDBRANCH  21  22
ENDBRANCH  20  21
ENDBRANCH   7  20
TORSDOF 7
ENDMDL
MODEL 2
REMARK VINA RESULT: -7.127088661      2.137      3.428
REMARK  7 active torsions:
REMARK  status: ('A' for Active; 'I' for Inactive)
REMARK    1  A    between atoms: N1_2  and  C4_5 
REMARK    2  A    between atoms: C4_5  and  C5_6 
REMARK    3  A    between atoms: C5_6  and  N3_10 
REMARK    4  A    between atoms: N3_10  and  N4_12 
REMARK       I    between atoms: N4_12  and  C6_14 
REMARK       I    between atoms: C6_14  and  N6_18 
REMARK    5  A    between atoms: N6_18  and  C7_20 
REMARK    6  A    between atoms: C7_20  and  C8_21 
REMARK    7  A    between atoms: C8_21  and  N7_22 
ROOT
HETATM    1  N4  UNL     1     -24.985 -14.586  65.607  1.00  0.00    -0.131 N 
ATOM      2  H4  UNL     1     -24.464 -15.349  65.174  1.00  0.00     0.205 HD
HETATM    3  C6  UNL     1     -25.536 -14.746  66.922  1.00  0.00     0.686 C 
HETATM    4  N5  UNL     1     -24.868 -14.599  67.994  1.00  0.00    -0.234 N 
ATOM      5  H51 UNL     1     -25.260 -14.713  68.929  1.00  0.00     0.174 HD
ATOM      6  H52 UNL     1     -23.879 -14.354  67.953  1.00  0.00     0.174 HD
HETATM    7  N6  UNL     1     -26.918 -15.089  66.980  1.00  0.00    -0.224 N 
ATOM      8  H6  UNL     1     -27.192 -16.067  66.891  1.00  0.00     0.177 HD
ENDROOT
BRANCH   1   9
HETATM    9  N3  UNL     1     -25.163 -13.382  64.924  1.00  0.00    -0.274 N 
ATOM     10  H3  UNL     1     -25.986 -13.236  64.339  1.00  0.00     0.189 HD
BRANCH   9  11
HETATM   11  C5  UNL     1     -24.188 -12.371  65.056  1.00  0.00     0.116 C 
HETATM   12  N2  UNL     1     -24.427 -11.378  65.829  1.00  0.00    -0.386 N 
ATOM     13  H22 UNL     1     -23.722 -10.646  65.924  1.00  0.00     0.157 HD
ATOM     14  H21 UNL     1     -25.306 -11.319  66.342  1.00  0.00     0.157 HD
BRANCH  11  15
HETATM   15  C4  UNL     1     -22.932 -12.455  64.323  1.00  0.00     0.312 C 
BRANCH  15  16
HETATM   16  N1  UNL     1     -22.747 -11.494  63.284  1.00  0.00    -0.072 N 
HETATM   17  C1  UNL     1     -22.067 -10.347  63.906  1.00  0.00     0.272 C 
HETATM   18  C2  UNL     1     -21.895 -11.969  62.217  1.00  0.00     0.272 C 
HETATM   19  C3  UNL     1     -23.964 -11.010  62.706  1.00  0.00     0.272 C 
ENDBRANCH  15  16
ENDBRANCH  11  15
ENDBRANCH   9  11
ENDBRANCH   1   9
BRANCH   7  20
HETATM   20  C7  UNL     1     -27.936 -14.088  67.160  1.00  0.00     0.166 C 
BRANCH  20  21
HETATM   21  C8  UNL     1     -27.991 -13.178  65.995  1.00  0.00     0.257 C 
BRANCH  21  22
HETATM   22  N7  UNL     1     -28.304 -11.805  66.268  1.00  0.00    -0.069 N 
HETATM   23  C9  UNL     1     -27.679 -11.276  67.437  1.00  0.00     0.272 C 
HETATM   24  C10 UNL     1     -29.721 -11.603  66.342  1.00  0.00     0.237 C 
HETATM   25  C11 UNL     1     -30.079 -10.408  65.488  1.00  0.00     0.029 C 
HETATM   26  C12 UNL     1     -28.744  -9.793  65.113  1.00  0.00     0.029 C 
HETATM   27  C13 UNL     1     -27.853 -10.994  65.133  1.00  0.00     0.237 C 
ENDBRANCH  21  22
ENDBRANCH  20  21
ENDBRANCH   7  20
TORSDOF 7
ENDMDL
MODEL 3
REMARK VINA RESULT: -7.122019191      2.227      3.410
REMARK  7 active torsions:
REMARK  status: ('A' for Active; 'I' for Inactive)
REMARK    1  A    between atoms: N1_2  and  C4_5 
REMARK    2  A    between atoms: C4_5  and  C5_6 
REMARK    3  A    between atoms: C5_6  and  N3_10 
REMARK    4  A    between atoms: N3_10  and  N4_12 
REMARK       I    between atoms: N4_12  and  C6_14 
REMARK       I    between atoms: C6_14  and  N6_18 
REMARK    5  A    between atoms: N6_18  and  C7_20 
REMARK    6  A    between atoms: C7_20  and  C8_21 
REMARK    7  A    between atoms: C8_21  and  N7_22 
ROOT
HETATM    1  N4  UNL     1     -25.549 -13.953  65.114  1.00  0.00    -0.131 N 
ATOM      2  H4  UNL     1     -25.089 -14.460  64.357  1.00  0.00     0.205 HD
HETATM    3  C6  UNL     1     -25.577 -14.505  66.438  1.00  0.00     0.686 C 
HETATM    4  N5  UNL     1     -24.615 -14.413  67.265  1.00  0.00    -0.234 N 
ATOM      5  H51 UNL     1     -24.635 -14.805  68.206  1.00  0.00     0.174 HD
ATOM      6  H52 UNL     1     -23.758 -13.926  67.004  1.00  0.00     0.174 HD
HETATM    7  N6  UNL     1     -26.774 -15.186  66.803  1.00  0.00    -0.224 N 
ATOM      8  H6  UNL     1     -26.891 -16.163  66.538  1.00  0.00     0.177 HD
ENDROOT
BRANCH   1   9
HETATM    9  N3  UNL     1     -26.154 -12.721  64.865  1.00  0.00    -0.274 N 
ATOM     10  H3  UNL     1     -26.791 -12.607  64.076  1.00  0.00     0.189 HD
BRANCH   9  11
HETATM   11  C5  UNL     1     -25.872 -11.636  65.721  1.00  0.00     0.116 C 
HETATM   12  N2  UNL     1     -24.724 -11.072  65.648  1.00  0.00    -0.386 N 
ATOM     13  H22 UNL     1     -24.520 -10.287  66.267  1.00  0.00     0.157 HD
ATOM     14  H21 UNL     1     -24.025 -11.401  64.982  1.00  0.00     0.157 HD
BRANCH  11  15
HETATM   15  C4  UNL     1     -26.870 -11.166  66.672  1.00  0.00     0.312 C 
BRANCH  15  16
HETATM   16  N1  UNL     1     -28.021 -10.534  66.114  1.00  0.00    -0.072 N 
HETATM   17  C1  UNL     1     -28.173  -9.257  66.830  1.00  0.00     0.272 C 
HETATM   18  C2  UNL     1     -27.872 -10.222  64.710  1.00  0.00     0.272 C 
HETATM   19  C3  UNL     1     -29.237 -11.269  66.285  1.00  0.00     0.272 C 
ENDBRANCH  15  16
ENDBRANCH  11  15
ENDBRANCH   9  11
ENDBRANCH   1   9
BRANCH   7  20
HETATM   20  C7  UNL     1     -27.822 -14.527  67.538  1.00  0.00     0.166 C 
BRANCH  20  21
HETATM   21  C8  UNL     1     -27.489 -14.454  68.977  1.00  0.00     0.257 C 
BRANCH  21  22
HETATM   22  N7  UNL     1     -28.430 -13.773  69.819  1.00  0.00    -0.069 N 
HETATM   23  C9  UNL     1     -28.794 -12.469  69.367  1.00  0.00     0.272 C 
HETATM   24  C10 UNL     1     -27.957 -13.702  71.170  1.00  0.00     0.237 C 
HETATM   25  C11 UNL     1     -29.070 -14.146  72.091  1.00  0.00     0.029 C 
HETATM   26  C12 UNL     1     -30.290 -14.245  71.196  1.00  0.00     0.029 C 
HETATM   27  C13 UNL     1     -29.660 -14.569  69.878  1.00  0.00     0.237 C 
ENDBRANCH  21  22
ENDBRANCH  20  21
ENDBRANCH   7  20
TORSDOF 7
ENDMDL
MODEL 4
REMARK VINA RESULT: -7.110361336      1.468      2.545
REMARK  7 active torsions:
REMARK  status: ('A' for Active; 'I' for Inactive)
REMARK    1  A    between atoms: N1_2  and  C4_5 
REMARK    2  A    between atoms: C4_5  and  C5_6 
REMARK    3  A    between atoms: C5_6  and  N3_10 
REMARK    4  A    between atoms: N3_10  and  N4_12 
REMARK       I    between atoms: N4_12  and  C6_14 
REMARK       I    between atoms: C6_14  and  N6_18 
REMARK    5  A    between atoms: N6_18  and  C7_20 
REMARK    6  A    between atoms: C7_20  and  C8_21 
REMARK    7  A    between atoms: C8_21  and  N7_22 
ROOT
HETATM    1  N4  UNL     1     -25.144 -13.565  64.773  1.00  0.00    -0.131 N 
ATOM      2  H4  UNL     1     -24.514 -13.941  64.063  1.00  0.00     0.205 HD
HETATM    3  C6  UNL     1     -25.607 -14.405  65.841  1.00  0.00     0.686 C 
HETATM    4  N5  UNL     1     -24.933 -14.652  66.891  1.00  0.00    -0.234 N 
ATOM      5  H51 UNL     1     -25.262 -15.248  67.651  1.00  0.00     0.174 HD
ATOM      6  H52 UNL     1     -24.005 -14.247  67.014  1.00  0.00     0.174 HD
HETATM    7  N6  UNL     1     -26.903 -14.970  65.671  1.00  0.00    -0.224 N 
ATOM      8  H6  UNL     1     -27.004 -15.829  65.131  1.00  0.00     0.177 HD
ENDROOT
BRANCH   1   9
HETATM    9  N3  UNL     1     -25.558 -12.234  64.710  1.00  0.00    -0.274 N 
ATOM     10  H3  UNL     1     -26.528 -11.985  64.899  1.00  0.00     0.189 HD
BRANCH   9  11
HETATM   11  C5  UNL     1     -24.613 -11.240  64.380  1.00  0.00     0.116 C 
HETATM   12  N2  UNL     1     -24.441 -10.258  65.185  1.00  0.00    -0.386 N 
ATOM     13  H22 UNL     1     -23.758  -9.539  64.946  1.00  0.00     0.157 HD
ATOM     14  H21 UNL     1     -24.976 -10.196  66.051  1.00  0.00     0.157 HD
BRANCH  11  15
HETATM   15  C4  UNL     1     -23.848 -11.328  63.143  1.00  0.00     0.312 C 
BRANCH  15  16
HETATM   16  N1  UNL     1     -22.442 -11.525  63.289  1.00  0.00    -0.072 N 
HETATM   17  C1  UNL     1     -21.923 -11.773  61.934  1.00  0.00     0.272 C 
HETATM   18  C2  UNL     1     -21.756 -10.361  63.803  1.00  0.00     0.272 C 
HETATM   19  C3  UNL     1     -22.086 -12.651  64.097  1.00  0.00     0.272 C 
ENDBRANCH  15  16
ENDBRANCH  11  15
ENDBRANCH   9  11
ENDBRANCH   1   9
BRANCH   7  20
HETATM   20  C7  UNL     1     -28.074 -14.358  66.242  1.00  0.00     0.166 C 
BRANCH  20  21
HETATM   21  C8  UNL     1     -27.737 -13.646  67.493  1.00  0.00     0.257 C 
BRANCH  21  22
HETATM   22  N7  UNL     1     -28.320 -12.347  67.669  1.00  0.00    -0.069 N 
HETATM   23  C9  UNL     1     -28.790 -12.081  68.990  1.00  0.00     0.272 C 
HETATM   24  C10 UNL     1     -29.375 -12.123  66.725  1.00  0.00     0.237 C 
HETATM   25  C11 UNL     1     -29.164 -10.772  66.082  1.00  0.00     0.029 C 
HETATM   26  C12 UNL     1     -28.053 -10.132  66.893  1.00  0.00     0.029 C 
HETATM   27  C13 UNL     1     -27.301 -11.337  67.361  1.00  0.00     0.237 C 
ENDBRANCH  21  22
ENDBRANCH  20  21
ENDBRANCH   7  20
TORSDOF 7
ENDMDL
MODEL 5
REMARK VINA RESULT: -7.068886577      2.207      6.748
REMARK  7 active torsions:
REMARK  status: ('A' for Active; 'I' for Inactive)
REMARK    1  A    between atoms: N1_2  and  C4_5 
REMARK    2  A    between atoms: C4_5  and  C5_6 
REMARK    3  A    between atoms: C5_6  and  N3_10 
REMARK    4  A    between atoms: N3_10  and  N4_12 
REMARK       I    between atoms: N4_12  and  C6_14 
REMARK       I    between atoms: C6_14  and  N6_18 
REMARK    5  A    between atoms: N6_18  and  C7_20 
REMARK    6  A    between atoms: C7_20  and  C8_21 
REMARK    7  A    between atoms: C8_21  and  N7_22 
ROOT
HETATM    1  N4  UNL     1     -26.728 -14.026  68.248  1.00  0.00    -0.131 N 
ATOM      2  H4  UNL     1     -26.522 -14.382  69.181  1.00  0.00     0.205 HD
HETATM    3  C6  UNL     1     -26.389 -14.803  67.090  1.00  0.00     0.686 C 
HETATM    4  N5  UNL     1     -27.105 -15.754  66.640  1.00  0.00    -0.234 N 
ATOM      5  H51 UNL     1     -26.864 -16.306  65.817  1.00  0.00     0.174 HD
ATOM      6  H52 UNL     1     -27.977 -16.005  67.106  1.00  0.00     0.174 HD
HETATM    7  N6  UNL     1     -25.172 -14.452  66.439  1.00  0.00    -0.224 N 
ATOM      8  H6  UNL     1     -24.294 -14.834  66.787  1.00  0.00     0.177 HD
ENDROOT
BRANCH   1   9
HETATM    9  N3  UNL     1     -27.340 -12.782  68.092  1.00  0.00    -0.274 N 
ATOM     10  H3  UNL     1     -26.947 -11.953  68.538  1.00  0.00     0.189 HD
BRANCH   9  11
HETATM   11  C5  UNL     1     -28.509 -12.689  67.308  1.00  0.00     0.116 C 
HETATM   12  N2  UNL     1     -29.621 -13.083  67.806  1.00  0.00    -0.386 N 
ATOM     13  H22 UNL     1     -30.467 -13.017  67.239  1.00  0.00     0.157 HD
ATOM     14  H21 UNL     1     -29.662 -13.458  68.754  1.00  0.00     0.157 HD
BRANCH  11  15
HETATM   15  C4  UNL     1     -28.451 -12.155  65.954  1.00  0.00     0.312 C 
BRANCH  15  16
HETATM   16  N1  UNL     1     -28.690 -10.754  65.822  1.00  0.00    -0.072 N 
HETATM   17  C1  UNL     1     -27.861 -10.304  64.692  1.00  0.00     0.272 C 
HETATM   18  C2  UNL     1     -30.063 -10.441  65.495  1.00  0.00     0.272 C 
HETATM   19  C3  UNL     1     -28.312  -9.982  66.966  1.00  0.00     0.272 C 
ENDBRANCH  15  16
ENDBRANCH  11  15
ENDBRANCH   9  11
ENDBRANCH   1   9
BRANCH   7  20
HETATM   20  C7  UNL     1     -25.153 -13.570  65.301  1.00  0.00     0.166 C 
BRANCH  20  21
HETATM   21  C8  UNL     1     -23.776 -13.116  65.010  1.00  0.00     0.257 C 
BRANCH  21  22
HETATM   22  N7  UNL     1     -23.633 -11.781  64.506  1.00  0.00    -0.069 N 
HETATM   23  C9  UNL     1     -24.284 -10.780  65.287  1.00  0.00     0.272 C 
HETATM   24  C10 UNL     1     -24.071 -11.694  63.144  1.00  0.00     0.237 C 
HETATM   25  C11 UNL     1     -23.011 -10.971  62.345  1.00  0.00     0.029 C 
HETATM   26  C12 UNL     1     -22.046 -10.437  63.387  1.00  0.00     0.029 C 
HETATM   27  C13 UNL     1     -22.205 -11.447  64.478  1.00  0.00     0.237 C 
ENDBRANCH  21  22
ENDBRANCH  20  21
ENDBRANCH   7  20
TORSDOF 7
ENDMDL
