MODEL 1
REMARK VINA RESULT: -7.886068814      0.000      0.000
REMARK  6 active torsions:
REMARK  status: ('A' for Active; 'I' for Inactive)
REMARK    1  A    between atoms: C2_2  and  N1_4 
REMARK    2  A    between atoms: N1_4  and  C4_6 
REMARK    3  A    between atoms: C8_10  and  N2_11 
REMARK    4  A    between atoms: N2_11  and  C9_14 
REMARK    5  A    between atoms: C9_14  and  C10_15 
REMARK    6  A    between atoms: C11_18  and  C12_19 
ROOT
HETATM    1  C9  UNL     1       9.239  19.961  -6.359  1.00  0.00     0.319 C 
ENDROOT
BRANCH   1   2
HETATM    2  N2  UNL     1       9.068  21.079  -7.264  1.00  0.00    -0.063 N 
ATOM      3  H22 UNL     1       8.971  21.953  -6.747  1.00  0.00     0.278 HD
ATOM      4  H21 UNL     1       8.152  21.048  -7.712  1.00  0.00     0.278 HD
BRANCH   2   5
HETATM    5  C8  UNL     1      10.108  21.175  -8.236  1.00  0.00     0.191 C 
HETATM    6  C7  UNL     1      11.447  21.538  -7.742  1.00  0.00     0.034 C 
HETATM    7  C6  UNL     1      11.638  22.971  -7.401  1.00  0.00     0.008 C 
HETATM    8  C5  UNL     1      10.815  23.934  -8.256  1.00  0.00     0.052 C 
HETATM    9  C4  UNL     1      10.487  23.301  -9.584  1.00  0.00    -0.016 C 
HETATM   10  C18 UNL     1       9.655  22.079  -9.365  1.00  0.00     0.085 C 
BRANCH   9  11
HETATM   11  N1  UNL     1      11.511  23.235 -10.548  1.00  0.00    -0.392 N 
ATOM     12  H1  UNL     1      12.257  23.931 -10.529  1.00  0.00     0.159 HD
BRANCH  11  13
HETATM   13  C2  UNL     1      11.532  22.228 -11.541  1.00  0.00     0.073 C 
HETATM   14  C1  UNL     1      11.627  22.645 -12.959  1.00  0.00     0.031 C 
HETATM   15  C3  UNL     1      12.814  21.404 -11.283  1.00  0.00     0.031 C 
ENDBRANCH  11  13
ENDBRANCH   9  11
ENDBRANCH   2   5
ENDBRANCH   1   2
BRANCH   1  16
HETATM   16  C10 UNL     1       8.990  18.677  -7.046  1.00  0.00     0.174 A 
HETATM   17  N3  UNL     1       9.867  17.772  -7.429  1.00  0.00    -0.323 N 
HETATM   18  C11 UNL     1       9.175  16.768  -8.010  1.00  0.00     0.133 A 
ATOM     19  H3  UNL     1      10.879  17.821  -7.310  1.00  0.00     0.169 HD
HETATM   20  N4  UNL     1       7.880  17.108  -7.952  1.00  0.00    -0.244 N 
HETATM   21  O2  UNL     1       7.766  18.241  -7.383  1.00  0.00    -0.221 OA
ATOM     22  H4  UNL     1       7.106  16.546  -8.309  1.00  0.00     0.196 HD
BRANCH  18  23
HETATM   23  C12 UNL     1       9.706  15.473  -8.570  1.00  0.00     0.190 C 
HETATM   24  C13 UNL     1       9.410  14.423  -7.573  1.00  0.00     0.040 C 
HETATM   25  C14 UNL     1       9.830  14.763  -6.184  1.00  0.00     0.003 C 
HETATM   26  C15 UNL     1      11.277  14.604  -5.914  1.00  0.00     0.002 C 
HETATM   27  C16 UNL     1      12.227  15.161  -6.913  1.00  0.00     0.026 C 
HETATM   28  C17 UNL     1      11.933  14.857  -8.348  1.00  0.00     0.168 C 
HETATM   29  O1  UNL     1      10.998  15.696  -8.918  1.00  0.00    -0.378 OA
ENDBRANCH  18  23
ENDBRANCH   1  16
TORSDOF 6
ENDMDL
MODEL 2
REMARK VINA RESULT: -7.864292084      3.318      6.562
REMARK  6 active torsions:
REMARK  status: ('A' for Active; 'I' for Inactive)
REMARK    1  A    between atoms: C2_2  and  N1_4 
REMARK    2  A    between atoms: N1_4  and  C4_6 
REMARK    3  A    between atoms: C8_10  and  N2_11 
REMARK    4  A    between atoms: N2_11  and  C9_14 
REMARK    5  A    between atoms: C9_14  and  C10_15 
REMARK    6  A    between atoms: C11_18  and  C12_19 
ROOT
HETATM    1  C9  UNL     1      11.118  18.911  -2.998  1.00  0.00     0.319 C 
ENDROOT
BRANCH   1   2
HETATM    2  N2  UNL     1      11.220  17.600  -3.604  1.00  0.00    -0.063 N 
ATOM      3  H22 UNL     1      10.357  17.072  -3.478  1.00  0.00     0.278 HD
ATOM      4  H21 UNL     1      11.859  17.004  -3.077  1.00  0.00     0.278 HD
BRANCH   2   5
HETATM    5  C8  UNL     1      11.590  17.650  -4.982  1.00  0.00     0.191 C 
HETATM    6  C7  UNL     1      11.089  16.567  -5.844  1.00  0.00     0.034 C 
HETATM    7  C6  UNL     1      11.787  15.262  -5.707  1.00  0.00     0.008 C 
HETATM    8  C5  UNL     1      13.269  15.379  -5.352  1.00  0.00     0.052 C 
HETATM    9  C4  UNL     1      13.809  16.711  -5.804  1.00  0.00    -0.016 C 
HETATM   10  C18 UNL     1      13.095  17.811  -5.089  1.00  0.00     0.085 C 
BRANCH   9  11
HETATM   11  N1  UNL     1      14.069  16.880  -7.178  1.00  0.00    -0.392 N 
ATOM     12  H1  UNL     1      13.434  16.463  -7.859  1.00  0.00     0.159 HD
BRANCH  11  13
HETATM   13  C2  UNL     1      15.188  17.613  -7.638  1.00  0.00     0.073 C 
HETATM   14  C1  UNL     1      16.196  16.909  -8.463  1.00  0.00     0.031 C 
HETATM   15  C3  UNL     1      14.621  18.717  -8.559  1.00  0.00     0.031 C 
ENDBRANCH  11  13
ENDBRANCH   9  11
ENDBRANCH   2   5
ENDBRANCH   1   2
BRANCH   1  16
HETATM   16  C10 UNL     1      10.302  19.820  -3.829  1.00  0.00     0.174 A 
HETATM   17  N3  UNL     1      10.712  20.730  -4.689  1.00  0.00    -0.323 N 
HETATM   18  C11 UNL     1       9.610  21.310  -5.212  1.00  0.00     0.133 A 
ATOM     19  H3  UNL     1      11.681  20.954  -4.918  1.00  0.00     0.169 HD
HETATM   20  N4  UNL     1       8.553  20.715  -4.640  1.00  0.00    -0.244 N 
HETATM   21  O2  UNL     1       8.959  19.833  -3.817  1.00  0.00    -0.221 OA
ATOM     22  H4  UNL     1       7.576  20.936  -4.834  1.00  0.00     0.196 HD
BRANCH  18  23
HETATM   23  C12 UNL     1       9.534  22.375  -6.276  1.00  0.00     0.190 C 
HETATM   24  C13 UNL     1       9.222  21.688  -7.546  1.00  0.00     0.040 C 
HETATM   25  C14 UNL     1      10.100  20.521  -7.842  1.00  0.00     0.003 C 
HETATM   26  C15 UNL     1      11.441  20.868  -8.366  1.00  0.00     0.002 C 
HETATM   27  C16 UNL     1      12.194  21.941  -7.666  1.00  0.00     0.026 C 
HETATM   28  C17 UNL     1      11.428  23.186  -7.344  1.00  0.00     0.168 C 
HETATM   29  O1  UNL     1      10.677  23.099  -6.190  1.00  0.00    -0.378 OA
ENDBRANCH  18  23
ENDBRANCH   1  16
TORSDOF 6
ENDMDL
MODEL 3
REMARK VINA RESULT: -7.803176458      2.475      6.689
REMARK  6 active torsions:
REMARK  status: ('A' for Active; 'I' for Inactive)
REMARK    1  A    between atoms: C2_2  and  N1_4 
REMARK    2  A    between atoms: N1_4  and  C4_6 
REMARK    3  A    between atoms: C8_10  and  N2_11 
REMARK    4  A    between atoms: N2_11  and  C9_14 
REMARK    5  A    between atoms: C9_14  and  C10_15 
REMARK    6  A    between atoms: C11_18  and  C12_19 
ROOT
HETATM    1  C9  UNL     1       8.849  17.281  -6.183  1.00  0.00     0.319 C 
ENDROOT
BRANCH   1   2
HETATM    2  N2  UNL     1      10.162  16.793  -5.813  1.00  0.00    -0.063 N 
ATOM      3  H22 UNL     1      10.090  15.942  -5.256  1.00  0.00     0.278 HD
ATOM      4  H21 UNL     1      10.597  17.407  -5.124  1.00  0.00     0.278 HD
BRANCH   2   5
HETATM    5  C8  UNL     1      11.021  16.597  -6.935  1.00  0.00     0.191 C 
HETATM    6  C7  UNL     1      11.292  15.205  -7.329  1.00  0.00     0.034 C 
HETATM    7  C6  UNL     1      12.255  14.470  -6.468  1.00  0.00     0.008 C 
HETATM    8  C5  UNL     1      13.340  15.350  -5.849  1.00  0.00     0.052 C 
HETATM    9  C4  UNL     1      13.555  16.580  -6.692  1.00  0.00    -0.016 C 
HETATM   10  C18 UNL     1      12.298  17.388  -6.730  1.00  0.00     0.085 C 
BRANCH   9  11
HETATM   11  N1  UNL     1      14.280  16.435  -7.890  1.00  0.00    -0.392 N 
ATOM     12  H1  UNL     1      13.894  15.857  -8.637  1.00  0.00     0.159 HD
BRANCH  11  13
HETATM   13  C2  UNL     1      15.529  17.070  -8.086  1.00  0.00     0.073 C 
HETATM   14  C1  UNL     1      16.651  16.261  -8.613  1.00  0.00     0.031 C 
HETATM   15  C3  UNL     1      15.288  18.160  -9.155  1.00  0.00     0.031 C 
ENDBRANCH  11  13
ENDBRANCH   9  11
ENDBRANCH   2   5
ENDBRANCH   1   2
BRANCH   1  16
HETATM   16  C10 UNL     1       8.886  18.724  -6.495  1.00  0.00     0.174 A 
HETATM   17  N3  UNL     1       8.997  19.303  -7.673  1.00  0.00    -0.323 N 
HETATM   18  C11 UNL     1       8.981  20.638  -7.465  1.00  0.00     0.133 A 
ATOM     19  H3  UNL     1       9.080  18.831  -8.574  1.00  0.00     0.169 HD
HETATM   20  N4  UNL     1       8.854  20.820  -6.143  1.00  0.00    -0.244 N 
HETATM   21  O2  UNL     1       8.800  19.688  -5.563  1.00  0.00    -0.221 OA
ATOM     22  H4  UNL     1       8.809  21.725  -5.674  1.00  0.00     0.196 HD
BRANCH  18  23
HETATM   23  C12 UNL     1       9.030  21.741  -8.490  1.00  0.00     0.190 C 
HETATM   24  C13 UNL     1      10.423  21.808  -8.979  1.00  0.00     0.040 C 
HETATM   25  C14 UNL     1      11.448  21.865  -7.899  1.00  0.00     0.003 C 
HETATM   26  C15 UNL     1      11.612  23.193  -7.265  1.00  0.00     0.002 C 
HETATM   27  C16 UNL     1      10.379  23.924  -6.873  1.00  0.00     0.026 C 
HETATM   28  C17 UNL     1       9.283  23.969  -7.891  1.00  0.00     0.168 C 
HETATM   29  O1  UNL     1       8.489  22.841  -7.911  1.00  0.00    -0.378 OA
ENDBRANCH  18  23
ENDBRANCH   1  16
TORSDOF 6
ENDMDL
MODEL 4
REMARK VINA RESULT: -7.790520939      2.899      6.627
REMARK  6 active torsions:
REMARK  status: ('A' for Active; 'I' for Inactive)
REMARK    1  A    between atoms: C2_2  and  N1_4 
REMARK    2  A    between atoms: N1_4  and  C4_6 
REMARK    3  A    between atoms: C8_10  and  N2_11 
REMARK    4  A    between atoms: N2_11  and  C9_14 
REMARK    5  A    between atoms: C9_14  and  C10_15 
REMARK    6  A    between atoms: C11_18  and  C12_19 
ROOT
HETATM    1  C9  UNL     1       9.306  17.937  -4.964  1.00  0.00     0.319 C 
ENDROOT
BRANCH   1   2
HETATM    2  N2  UNL     1      10.690  17.527  -4.850  1.00  0.00    -0.063 N 
ATOM      3  H22 UNL     1      10.779  16.711  -4.245  1.00  0.00     0.278 HD
ATOM      4  H21 UNL     1      11.226  18.200  -4.302  1.00  0.00     0.278 HD
BRANCH   2   5
HETATM    5  C8  UNL     1      11.308  17.294  -6.115  1.00  0.00     0.191 C 
HETATM    6  C7  UNL     1      11.256  15.918  -6.635  1.00  0.00     0.034 C 
HETATM    7  C6  UNL     1      12.196  14.956  -6.003  1.00  0.00     0.008 C 
HETATM    8  C5  UNL     1      13.508  15.581  -5.529  1.00  0.00     0.052 C 
HETATM    9  C4  UNL     1      13.804  16.830  -6.318  1.00  0.00    -0.016 C 
HETATM   10  C18 UNL     1      12.724  17.837  -6.086  1.00  0.00     0.085 C 
BRANCH   9  11
HETATM   11  N1  UNL     1      14.288  16.676  -7.631  1.00  0.00    -0.392 N 
ATOM     12  H1  UNL     1      13.719  16.178  -8.315  1.00  0.00     0.159 HD
BRANCH  11  13
HETATM   13  C2  UNL     1      15.544  17.193  -8.025  1.00  0.00     0.073 C 
HETATM   14  C1  UNL     1      16.551  16.253  -8.567  1.00  0.00     0.031 C 
HETATM   15  C3  UNL     1      15.254  18.175  -9.182  1.00  0.00     0.031 C 
ENDBRANCH  11  13
ENDBRANCH   9  11
ENDBRANCH   2   5
ENDBRANCH   1   2
BRANCH   1  16
HETATM   16  C10 UNL     1       9.192  19.406  -5.066  1.00  0.00     0.174 A 
HETATM   17  N3  UNL     1       9.967  20.242  -5.727  1.00  0.00    -0.323 N 
HETATM   18  C11 UNL     1       9.473  21.483  -5.532  1.00  0.00     0.133 A 
ATOM     19  H3  UNL     1      10.787  19.996  -6.282  1.00  0.00     0.169 HD
HETATM   20  N4  UNL     1       8.393  21.350  -4.748  1.00  0.00    -0.244 N 
HETATM   21  O2  UNL     1       8.225  20.119  -4.467  1.00  0.00    -0.221 OA
ATOM     22  H4  UNL     1       7.800  22.115  -4.426  1.00  0.00     0.196 HD
BRANCH  18  23
HETATM   23  C12 UNL     1       9.966  22.784  -6.112  1.00  0.00     0.190 C 
HETATM   24  C13 UNL     1       9.140  23.060  -7.306  1.00  0.00     0.040 C 
HETATM   25  C14 UNL     1       9.032  21.914  -8.252  1.00  0.00     0.003 C 
HETATM   26  C15 UNL     1      10.213  21.712  -9.122  1.00  0.00     0.002 C 
HETATM   27  C16 UNL     1      11.553  21.752  -8.481  1.00  0.00     0.026 C 
HETATM   28  C17 UNL     1      11.799  22.882  -7.532  1.00  0.00     0.168 C 
HETATM   29  O1  UNL     1      11.308  22.664  -6.261  1.00  0.00    -0.378 OA
ENDBRANCH  18  23
ENDBRANCH   1  16
TORSDOF 6
ENDMDL
MODEL 5
REMARK VINA RESULT: -7.778874577      2.299      3.355
REMARK  6 active torsions:
REMARK  status: ('A' for Active; 'I' for Inactive)
REMARK    1  A    between atoms: C2_2  and  N1_4 
REMARK    2  A    between atoms: N1_4  and  C4_6 
REMARK    3  A    between atoms: C8_10  and  N2_11 
REMARK    4  A    between atoms: N2_11  and  C9_14 
REMARK    5  A    between atoms: C9_14  and  C10_15 
REMARK    6  A    between atoms: C11_18  and  C12_19 
ROOT
HETATM    1  C9  UNL     1      11.007  21.726  -6.006  1.00  0.00     0.319 C 
ENDROOT
BRANCH   1   2
HETATM    2  N2  UNL     1      10.117  22.861  -6.137  1.00  0.00    -0.063 N 
ATOM      3  H22 UNL     1      10.181  23.469  -5.321  1.00  0.00     0.278 HD
ATOM      4  H21 UNL     1       9.142  22.572  -6.054  1.00  0.00     0.278 HD
BRANCH   2   5
HETATM    5  C8  UNL     1      10.328  23.599  -7.340  1.00  0.00     0.191 C 
HETATM    6  C7  UNL     1       9.128  23.987  -8.100  1.00  0.00     0.034 C 
HETATM    7  C6  UNL     1       8.484  22.901  -8.883  1.00  0.00     0.008 C 
HETATM    8  C5  UNL     1       9.458  21.848  -9.412  1.00  0.00     0.052 C 
HETATM    9  C4  UNL     1      10.838  22.437  -9.548  1.00  0.00    -0.016 C 
HETATM   10  C18 UNL     1      11.335  22.865  -8.205  1.00  0.00     0.085 C 
BRANCH   9  11
HETATM   11  N1  UNL     1      11.081  23.290 -10.641  1.00  0.00    -0.392 N 
ATOM     12  H1  UNL     1      10.514  24.130 -10.752  1.00  0.00     0.159 HD
BRANCH  11  13
HETATM   13  C2  UNL     1      12.091  23.011 -11.591  1.00  0.00     0.073 C 
HETATM   14  C1  UNL     1      12.592  21.621 -11.695  1.00  0.00     0.031 C 
HETATM   15  C3  UNL     1      11.470  23.313 -12.973  1.00  0.00     0.031 C 
ENDBRANCH  11  13
ENDBRANCH   9  11
ENDBRANCH   2   5
ENDBRANCH   1   2
BRANCH   1  16
HETATM   16  C10 UNL     1      10.438  20.705  -5.103  1.00  0.00     0.174 A 
HETATM   17  N3  UNL     1       9.980  19.508  -5.408  1.00  0.00    -0.323 N 
HETATM   18  C11 UNL     1       9.567  18.935  -4.257  1.00  0.00     0.133 A 
ATOM     19  H3  UNL     1       9.943  19.093  -6.339  1.00  0.00     0.169 HD
HETATM   20  N4  UNL     1       9.799  19.821  -3.279  1.00  0.00    -0.244 N 
HETATM   21  O2  UNL     1      10.314  20.874  -3.776  1.00  0.00    -0.221 OA
ATOM     22  H4  UNL     1       9.595  19.675  -2.290  1.00  0.00     0.196 HD
BRANCH  18  23
HETATM   23  C12 UNL     1       9.007  17.549  -4.055  1.00  0.00     0.190 C 
HETATM   24  C13 UNL     1       9.968  16.821  -3.200  1.00  0.00     0.040 C 
HETATM   25  C14 UNL     1      11.381  16.901  -3.663  1.00  0.00     0.003 C 
HETATM   26  C15 UNL     1      11.718  16.005  -4.794  1.00  0.00     0.002 C 
HETATM   27  C16 UNL     1      10.778  15.970  -5.944  1.00  0.00     0.026 C 
HETATM   28  C17 UNL     1       9.324  15.855  -5.610  1.00  0.00     0.168 C 
HETATM   29  O1  UNL     1       8.726  17.056  -5.286  1.00  0.00    -0.378 OA
ENDBRANCH  18  23
ENDBRANCH   1  16
TORSDOF 6
ENDMDL
