MODEL 1
REMARK VINA RESULT: -7.345793562      0.000      0.000
REMARK  6 active torsions:
REMARK  status: ('A' for Active; 'I' for Inactive)
REMARK    1  A    between atoms: C2_2  and  C3_3 
REMARK    2  A    between atoms: C4_4  and  O1_5 
REMARK    3  A    between atoms: O1_5  and  C5_6 
REMARK    4  A    between atoms: C5_6  and  C6_7 
REMARK    5  A    between atoms: C6_7  and  C7_8 
REMARK    6  A    between atoms: C14_20  and  C15_21 
ROOT
HETATM    1  C3  UNL     1       9.897  19.241  -6.368  1.00  0.00    -0.008 A 
HETATM    2  C4  UNL     1      10.351  20.455  -5.761  1.00  0.00     0.091 A 
HETATM    3  C12 UNL     1       9.639  20.945  -4.714  1.00  0.00     0.124 A 
HETATM    4  N2  UNL     1       8.537  20.353  -4.223  1.00  0.00    -0.372 N 
ATOM      5  H2  UNL     1       8.028  20.753  -3.434  1.00  0.00     0.164 HD
HETATM    6  C13 UNL     1       8.131  19.226  -4.804  1.00  0.00     0.104 A 
HETATM    7  C14 UNL     1       8.787  18.626  -5.892  1.00  0.00     0.041 A 
ENDROOT
BRANCH   2   8
HETATM    8  O1  UNL     1      11.474  21.039  -6.272  1.00  0.00    -0.349 OA
BRANCH   8   9
HETATM    9  C5  UNL     1      11.605  22.193  -7.016  1.00  0.00     0.176 C 
BRANCH   9  10
HETATM   10  C6  UNL     1      10.375  23.038  -7.179  1.00  0.00     0.031 C 
BRANCH  10  11
HETATM   11  C7  UNL     1      10.058  23.240  -8.626  1.00  0.00    -0.009 C 
HETATM   12  C8  UNL     1       8.954  24.206  -8.838  1.00  0.00     0.032 C 
HETATM   13  C9  UNL     1       7.613  23.656  -8.379  1.00  0.00     0.232 C 
HETATM   14  N1  UNL     1       7.368  22.406  -9.076  1.00  0.00    -0.075 N 
HETATM   15  C10 UNL     1       8.387  21.420  -8.841  1.00  0.00     0.232 C 
ATOM     16  H12 UNL     1       6.446  22.037  -8.846  1.00  0.00     0.277 HD
ATOM     17  H11 UNL     1       7.241  22.566 -10.075  1.00  0.00     0.277 HD
HETATM   18  C11 UNL     1       9.750  21.904  -9.307  1.00  0.00     0.032 C 
ENDBRANCH  10  11
ENDBRANCH   9  10
ENDBRANCH   8   9
ENDBRANCH   2   8
BRANCH   1  19
HETATM   19  C2  UNL     1      10.695  18.747  -7.494  1.00  0.00     0.038 C 
HETATM   20  C1  UNL     1      11.755  17.731  -7.073  1.00  0.00     0.010 C 
ENDBRANCH   1  19
BRANCH   7  21
HETATM   21  C15 UNL     1       8.224  17.420  -6.467  1.00  0.00     0.177 A 
HETATM   22  N3  UNL     1       7.644  17.203  -7.638  1.00  0.00    -0.276 N 
HETATM   23  N4  UNL     1       7.264  15.952  -7.772  1.00  0.00    -0.268 N 
ATOM     24  H3  UNL     1       7.507  17.921  -8.350  1.00  0.00     0.189 HD
HETATM   25  C16 UNL     1       7.617  15.342  -6.637  1.00  0.00     0.235 A 
ATOM     26  H4  UNL     1       6.797  15.533  -8.576  1.00  0.00     0.190 HD
HETATM   27  S1  UNL     1       7.347  13.739  -6.327  1.00  0.00    -0.031 SA
HETATM   28  O2  UNL     1       8.181  16.219  -5.879  1.00  0.00    -0.264 OA
ENDBRANCH   7  21
TORSDOF 6
ENDMDL
MODEL 2
REMARK VINA RESULT: -7.244247892      1.699      1.733
REMARK  6 active torsions:
REMARK  status: ('A' for Active; 'I' for Inactive)
REMARK    1  A    between atoms: C2_2  and  C3_3 
REMARK    2  A    between atoms: C4_4  and  O1_5 
REMARK    3  A    between atoms: O1_5  and  C5_6 
REMARK    4  A    between atoms: C5_6  and  C6_7 
REMARK    5  A    between atoms: C6_7  and  C7_8 
REMARK    6  A    between atoms: C14_20  and  C15_21 
ROOT
HETATM    1  C3  UNL     1      10.802  19.611  -5.408  1.00  0.00    -0.008 A 
HETATM    2  C4  UNL     1      10.580  21.025  -5.397  1.00  0.00     0.091 A 
HETATM    3  C12 UNL     1       9.373  21.474  -4.964  1.00  0.00     0.124 A 
HETATM    4  N2  UNL     1       8.385  20.663  -4.549  1.00  0.00    -0.372 N 
ATOM      5  H2  UNL     1       7.491  21.040  -4.231  1.00  0.00     0.164 HD
HETATM    6  C13 UNL     1       8.612  19.352  -4.569  1.00  0.00     0.104 A 
HETATM    7  C14 UNL     1       9.819  18.774  -4.995  1.00  0.00     0.041 A 
ENDROOT
BRANCH   2   8
HETATM    8  O1  UNL     1      11.598  21.831  -5.819  1.00  0.00    -0.349 OA
BRANCH   8   9
HETATM    9  C5  UNL     1      11.742  22.517  -7.007  1.00  0.00     0.176 C 
BRANCH   9  10
HETATM   10  C6  UNL     1      10.672  23.513  -7.349  1.00  0.00     0.031 C 
BRANCH  10  11
HETATM   11  C7  UNL     1      10.291  23.407  -8.791  1.00  0.00    -0.009 C 
HETATM   12  C8  UNL     1       9.081  24.196  -9.119  1.00  0.00     0.032 C 
HETATM   13  C9  UNL     1       7.824  23.607  -8.500  1.00  0.00     0.232 C 
HETATM   14  N1  UNL     1       7.697  22.230  -8.943  1.00  0.00    -0.075 N 
HETATM   15  C10 UNL     1       8.826  21.416  -8.584  1.00  0.00     0.232 C 
ATOM     16  H12 UNL     1       6.829  21.818  -8.604  1.00  0.00     0.277 HD
ATOM     17  H11 UNL     1       7.522  22.187  -9.947  1.00  0.00     0.277 HD
HETATM   18  C11 UNL     1      10.112  21.942  -9.199  1.00  0.00     0.032 C 
ENDBRANCH  10  11
ENDBRANCH   9  10
ENDBRANCH   8   9
ENDBRANCH   2   8
BRANCH   1  19
HETATM   19  C2  UNL     1      12.117  19.171  -5.881  1.00  0.00     0.038 C 
HETATM   20  C1  UNL     1      12.136  18.839  -7.371  1.00  0.00     0.010 C 
ENDBRANCH   1  19
BRANCH   7  21
HETATM   21  C15 UNL     1       9.932  17.328  -5.012  1.00  0.00     0.177 A 
HETATM   22  N3  UNL     1      10.700  16.507  -4.310  1.00  0.00    -0.276 N 
HETATM   23  N4  UNL     1      10.496  15.250  -4.633  1.00  0.00    -0.268 N 
ATOM     24  H3  UNL     1      11.370  16.814  -3.604  1.00  0.00     0.189 HD
HETATM   25  C16 UNL     1       9.557  15.267  -5.583  1.00  0.00     0.235 A 
ATOM     26  H4  UNL     1      10.959  14.430  -4.241  1.00  0.00     0.190 HD
HETATM   27  S1  UNL     1       8.958  13.909  -6.316  1.00  0.00    -0.031 SA
HETATM   28  O2  UNL     1       9.235  16.498  -5.795  1.00  0.00    -0.264 OA
ENDBRANCH   7  21
TORSDOF 6
ENDMDL
MODEL 3
REMARK VINA RESULT: -7.219724975      1.973      3.240
REMARK  6 active torsions:
REMARK  status: ('A' for Active; 'I' for Inactive)
REMARK    1  A    between atoms: C2_2  and  C3_3 
REMARK    2  A    between atoms: C4_4  and  O1_5 
REMARK    3  A    between atoms: O1_5  and  C5_6 
REMARK    4  A    between atoms: C5_6  and  C6_7 
REMARK    5  A    between atoms: C6_7  and  C7_8 
REMARK    6  A    between atoms: C14_20  and  C15_21 
ROOT
HETATM    1  C3  UNL     1      10.359  17.630  -7.704  1.00  0.00    -0.008 A 
HETATM    2  C4  UNL     1      11.724  18.063  -7.736  1.00  0.00     0.091 A 
HETATM    3  C12 UNL     1      12.637  17.238  -8.310  1.00  0.00     0.124 A 
HETATM    4  N2  UNL     1      12.327  16.045  -8.845  1.00  0.00    -0.372 N 
ATOM      5  H2  UNL     1      13.043  15.453  -9.267  1.00  0.00     0.164 HD
HETATM    6  C13 UNL     1      11.053  15.662  -8.803  1.00  0.00     0.104 A 
HETATM    7  C14 UNL     1      10.023  16.430  -8.236  1.00  0.00     0.041 A 
ENDROOT
BRANCH   2   8
HETATM    8  O1  UNL     1      12.017  19.279  -7.190  1.00  0.00    -0.349 OA
BRANCH   8   9
HETATM    9  C5  UNL     1      12.499  20.422  -7.794  1.00  0.00     0.176 C 
BRANCH   9  10
HETATM   10  C6  UNL     1      11.552  21.167  -8.689  1.00  0.00     0.031 C 
BRANCH  10  11
HETATM   11  C7  UNL     1      11.422  22.592  -8.253  1.00  0.00    -0.009 C 
HETATM   12  C8  UNL     1      11.063  22.720  -6.822  1.00  0.00     0.032 C 
HETATM   13  C9  UNL     1       9.642  22.258  -6.542  1.00  0.00     0.232 C 
HETATM   14  N1  UNL     1       8.739  23.019  -7.387  1.00  0.00    -0.075 N 
HETATM   15  C10 UNL     1       9.016  22.868  -8.789  1.00  0.00     0.232 C 
ATOM     16  H12 UNL     1       7.767  22.787  -7.182  1.00  0.00     0.277 HD
ATOM     17  H11 UNL     1       8.736  24.003  -7.121  1.00  0.00     0.277 HD
HETATM   18  C11 UNL     1      10.418  23.340  -9.135  1.00  0.00     0.032 C 
ENDBRANCH  10  11
ENDBRANCH   9  10
ENDBRANCH   8   9
ENDBRANCH   2   8
BRANCH   1  19
HETATM   19  C2  UNL     1       9.408  18.551  -7.077  1.00  0.00     0.038 C 
HETATM   20  C1  UNL     1       8.484  19.233  -8.084  1.00  0.00     0.010 C 
ENDBRANCH   1  19
BRANCH   7  21
HETATM   21  C15 UNL     1       8.679  15.886  -8.212  1.00  0.00     0.177 A 
HETATM   22  N3  UNL     1       7.934  15.366  -9.177  1.00  0.00    -0.276 N 
HETATM   23  N4  UNL     1       6.756  14.986  -8.733  1.00  0.00    -0.268 N 
ATOM     24  H3  UNL     1       8.236  15.273 -10.146  1.00  0.00     0.189 HD
HETATM   25  C16 UNL     1       6.749  15.275  -7.430  1.00  0.00     0.235 A 
ATOM     26  H4  UNL     1       6.003  14.559  -9.274  1.00  0.00     0.190 HD
HETATM   27  S1  UNL     1       5.467  14.978  -6.425  1.00  0.00    -0.031 SA
HETATM   28  O2  UNL     1       7.888  15.804  -7.137  1.00  0.00    -0.264 OA
ENDBRANCH   7  21
TORSDOF 6
ENDMDL
MODEL 4
REMARK VINA RESULT: -7.120222668      5.140      8.104
REMARK  6 active torsions:
REMARK  status: ('A' for Active; 'I' for Inactive)
REMARK    1  A    between atoms: C2_2  and  C3_3 
REMARK    2  A    between atoms: C4_4  and  O1_5 
REMARK    3  A    between atoms: O1_5  and  C5_6 
REMARK    4  A    between atoms: C5_6  and  C6_7 
REMARK    5  A    between atoms: C6_7  and  C7_8 
REMARK    6  A    between atoms: C14_20  and  C15_21 
ROOT
HETATM    1  C3  UNL     1      12.269  21.538 -10.239  1.00  0.00    -0.008 A 
HETATM    2  C4  UNL     1      12.118  21.584  -8.815  1.00  0.00     0.091 A 
HETATM    3  C12 UNL     1      11.425  22.625  -8.285  1.00  0.00     0.124 A 
HETATM    4  N2  UNL     1      10.880  23.607  -9.022  1.00  0.00    -0.372 N 
ATOM      5  H2  UNL     1      10.366  24.373  -8.586  1.00  0.00     0.164 HD
HETATM    6  C13 UNL     1      11.034  23.545 -10.343  1.00  0.00     0.104 A 
HETATM    7  C14 UNL     1      11.728  22.518 -11.003  1.00  0.00     0.041 A 
ENDROOT
BRANCH   2   8
HETATM    8  O1  UNL     1      12.677  20.576  -8.085  1.00  0.00    -0.349 OA
BRANCH   8   9
HETATM    9  C5  UNL     1      12.070  19.606  -7.315  1.00  0.00     0.176 C 
BRANCH   9  10
HETATM   10  C6  UNL     1      12.605  18.209  -7.438  1.00  0.00     0.031 C 
BRANCH  10  11
HETATM   11  C7  UNL     1      13.818  18.028  -6.582  1.00  0.00    -0.009 C 
HETATM   12  C8  UNL     1      15.040  17.761  -7.376  1.00  0.00     0.032 C 
HETATM   13  C9  UNL     1      15.010  16.391  -8.034  1.00  0.00     0.232 C 
HETATM   14  N1  UNL     1      14.818  15.390  -6.999  1.00  0.00    -0.075 N 
HETATM   15  C10 UNL     1      13.607  15.579  -6.249  1.00  0.00     0.232 C 
ATOM     16  H12 UNL     1      14.860  14.450  -7.391  1.00  0.00     0.277 HD
ATOM     17  H11 UNL     1      15.627  15.350  -6.379  1.00  0.00     0.277 HD
HETATM   18  C11 UNL     1      13.590  16.925  -5.545  1.00  0.00     0.032 C 
ENDBRANCH  10  11
ENDBRANCH   9  10
ENDBRANCH   8   9
ENDBRANCH   2   8
BRANCH   1  19
HETATM   19  C2  UNL     1      13.022  20.398 -10.769  1.00  0.00     0.038 C 
HETATM   20  C1  UNL     1      14.533  20.618 -10.747  1.00  0.00     0.010 C 
ENDBRANCH   1  19
BRANCH   7  21
HETATM   21  C15 UNL     1      11.865  22.584 -12.445  1.00  0.00     0.177 A 
HETATM   22  N3  UNL     1      11.491  21.737 -13.394  1.00  0.00    -0.276 N 
HETATM   23  N4  UNL     1      11.807  22.175 -14.592  1.00  0.00    -0.268 N 
ATOM     24  H3  UNL     1      11.015  20.853 -13.216  1.00  0.00     0.189 HD
HETATM   25  C16 UNL     1      12.410  23.352 -14.401  1.00  0.00     0.235 A 
ATOM     26  H4  UNL     1      11.630  21.712 -15.484  1.00  0.00     0.190 HD
HETATM   27  S1  UNL     1      12.996  24.299 -15.626  1.00  0.00    -0.031 SA
HETATM   28  O2  UNL     1      12.436  23.579 -13.132  1.00  0.00    -0.264 OA
ENDBRANCH   7  21
TORSDOF 6
ENDMDL
MODEL 5
REMARK VINA RESULT: -7.102775775      2.089      3.113
REMARK  6 active torsions:
REMARK  status: ('A' for Active; 'I' for Inactive)
REMARK    1  A    between atoms: C2_2  and  C3_3 
REMARK    2  A    between atoms: C4_4  and  O1_5 
REMARK    3  A    between atoms: O1_5  and  C5_6 
REMARK    4  A    between atoms: C5_6  and  C6_7 
REMARK    5  A    between atoms: C6_7  and  C7_8 
REMARK    6  A    between atoms: C14_20  and  C15_21 
ROOT
HETATM    1  C3  UNL     1      10.165  17.755  -7.773  1.00  0.00    -0.008 A 
HETATM    2  C4  UNL     1      11.522  18.209  -7.724  1.00  0.00     0.091 A 
HETATM    3  C12 UNL     1      12.496  17.332  -8.082  1.00  0.00     0.124 A 
HETATM    4  N2  UNL     1      12.253  16.071  -8.476  1.00  0.00    -0.372 N 
ATOM      5  H2  UNL     1      13.013  15.443  -8.738  1.00  0.00     0.164 HD
HETATM    6  C13 UNL     1      10.984  15.670  -8.514  1.00  0.00     0.104 A 
HETATM    7  C14 UNL     1       9.895  16.487  -8.167  1.00  0.00     0.041 A 
ENDROOT
BRANCH   2   8
HETATM    8  O1  UNL     1      11.748  19.493  -7.324  1.00  0.00    -0.349 OA
BRANCH   8   9
HETATM    9  C5  UNL     1      12.129  20.592  -8.066  1.00  0.00     0.176 C 
BRANCH   9  10
HETATM   10  C6  UNL     1      11.236  21.797  -8.001  1.00  0.00     0.031 C 
BRANCH  10  11
HETATM   11  C7  UNL     1      10.330  21.850  -9.190  1.00  0.00    -0.009 C 
HETATM   12  C8  UNL     1      10.749  22.871 -10.179  1.00  0.00     0.032 C 
HETATM   13  C9  UNL     1      10.547  24.287  -9.665  1.00  0.00     0.232 C 
HETATM   14  N1  UNL     1       9.151  24.445  -9.296  1.00  0.00    -0.075 N 
HETATM   15  C10 UNL     1       8.725  23.513  -8.288  1.00  0.00     0.232 C 
ATOM     16  H12 UNL     1       8.958  25.404  -9.009  1.00  0.00     0.277 HD
ATOM     17  H11 UNL     1       8.550  24.392 -10.118  1.00  0.00     0.277 HD
HETATM   18  C11 UNL     1       8.879  22.076  -8.757  1.00  0.00     0.032 C 
ENDBRANCH  10  11
ENDBRANCH   9  10
ENDBRANCH   8   9
ENDBRANCH   2   8
BRANCH   1  19
HETATM   19  C2  UNL     1       9.146  18.733  -7.380  1.00  0.00     0.038 C 
HETATM   20  C1  UNL     1       8.932  18.797  -5.870  1.00  0.00     0.010 C 
ENDBRANCH   1  19
BRANCH   7  21
HETATM   21  C15 UNL     1       8.559  15.922  -8.207  1.00  0.00     0.177 A 
HETATM   22  N3  UNL     1       7.880  15.364  -9.198  1.00  0.00    -0.276 N 
HETATM   23  N4  UNL     1       6.684  14.978  -8.814  1.00  0.00    -0.268 N 
ATOM     24  H3  UNL     1       8.241  15.247 -10.144  1.00  0.00     0.189 HD
HETATM   25  C16 UNL     1       6.594  15.304  -7.522  1.00  0.00     0.235 A 
ATOM     26  H4  UNL     1       5.970  14.524  -9.385  1.00  0.00     0.190 HD
HETATM   27  S1  UNL     1       5.259  15.017  -6.587  1.00  0.00    -0.031 SA
HETATM   28  O2  UNL     1       7.706  15.859  -7.179  1.00  0.00    -0.264 OA
ENDBRANCH   7  21
TORSDOF 6
ENDMDL
