MODEL 1
REMARK VINA RESULT: -7.107703397      0.000      0.000
REMARK  5 active torsions:
REMARK  status: ('A' for Active; 'I' for Inactive)
REMARK    1  A    between atoms: N1_2  and  C2_4 
REMARK    2  A    between atoms: C4_11  and  N4_12 
REMARK    3  A    between atoms: N7_19  and  C7_21 
REMARK    4  A    between atoms: C7_21  and  O2_23 
REMARK    5  A    between atoms: O2_23  and  N8_24 
ROOT
HETATM    1  N4  UNL     1      17.057   1.730  14.281  1.00  0.00    -0.126 N 
ATOM      2  H4  UNL     1      16.825   0.745  14.153  1.00  0.00     0.197 HD
HETATM    3  C5  UNL     1      17.270   2.214  15.574  1.00  0.00     0.196 C 
HETATM    4  N5  UNL     1      17.446   2.600  16.661  1.00  0.00    -0.171 NA
ENDROOT
BRANCH   1   5
HETATM    5  C4  UNL     1      17.145   2.489  13.245  1.00  0.00     0.697 C 
HETATM    6  N3  UNL     1      16.739   1.970  12.087  1.00  0.00    -0.140 N 
HETATM    7  C3  UNL     1      16.720   2.597  10.890  1.00  0.00     0.340 C 
ATOM      8  H3  UNL     1      16.410   1.004  12.106  1.00  0.00     0.189 HD
HETATM    9  N2  UNL     1      17.027   3.878  10.577  1.00  0.00    -0.291 N 
HETATM   10  O1  UNL     1      16.366   1.908   9.897  1.00  0.00    -0.246 OA
HETATM   11  C2  UNL     1      17.535   4.841  11.363  1.00  0.00     0.150 C 
ATOM     12  H2  UNL     1      16.848   4.149   9.611  1.00  0.00     0.172 HD
HETATM   13  C6  UNL     1      17.607   4.822  12.741  1.00  0.00     0.163 C 
HETATM   14  N6  UNL     1      17.642   3.710  13.493  1.00  0.00    -0.172 N 
HETATM   15  N7  UNL     1      17.643   5.949  13.291  1.00  0.00    -0.345 N 
ATOM     16  H6  UNL     1      18.118   3.808  14.389  1.00  0.00     0.186 HD
ATOM     17  H7  UNL     1      17.615   6.739  12.646  1.00  0.00     0.163 HD
BRANCH  11  18
HETATM   18  N1  UNL     1      18.000   5.883  10.753  1.00  0.00    -0.378 N 
HETATM   19  C1  UNL     1      18.994   5.796   9.713  1.00  0.00     0.148 C 
ATOM     20  H1  UNL     1      17.649   6.803  11.018  1.00  0.00     0.160 HD
ENDBRANCH  11  18
BRANCH  15  21
HETATM   21  C7  UNL     1      17.716   6.307  14.667  1.00  0.00     0.247 C 
HETATM   22  C8  UNL     1      17.938   7.824  14.726  1.00  0.00     0.065 C 
BRANCH  21  23
HETATM   23  O2  UNL     1      18.705   5.652  15.382  1.00  0.00    -0.262 OA
BRANCH  23  24
HETATM   24  N8  UNL     1      19.914   6.039  14.979  1.00  0.00    -0.309 N 
ATOM     25  H82 UNL     1      20.271   5.893  14.035  1.00  0.00     0.184 HD
ATOM     26  H81 UNL     1      20.418   6.496  15.738  1.00  0.00     0.184 HD
ENDBRANCH  23  24
ENDBRANCH  21  23
ENDBRANCH  15  21
ENDBRANCH   1   5
TORSDOF 5
ENDMDL
MODEL 2
REMARK VINA RESULT: -6.612144760      2.518      3.475
REMARK  5 active torsions:
REMARK  status: ('A' for Active; 'I' for Inactive)
REMARK    1  A    between atoms: N1_2  and  C2_4 
REMARK    2  A    between atoms: C4_11  and  N4_12 
REMARK    3  A    between atoms: N7_19  and  C7_21 
REMARK    4  A    between atoms: C7_21  and  O2_23 
REMARK    5  A    between atoms: O2_23  and  N8_24 
ROOT
HETATM    1  N4  UNL     1      17.511   0.741  11.202  1.00  0.00    -0.126 N 
ATOM      2  H4  UNL     1      16.517   0.719  10.973  1.00  0.00     0.197 HD
HETATM    3  C5  UNL     1      18.196  -0.466  11.361  1.00  0.00     0.196 C 
HETATM    4  N5  UNL     1      18.753  -1.484  11.489  1.00  0.00    -0.171 NA
ENDROOT
BRANCH   1   5
HETATM    5  C4  UNL     1      18.095   1.880  11.335  1.00  0.00     0.697 C 
HETATM    6  N3  UNL     1      18.815   2.307  10.299  1.00  0.00    -0.140 N 
HETATM    7  C3  UNL     1      19.486   3.478  10.217  1.00  0.00     0.340 C 
ATOM      8  H3  UNL     1      18.866   1.690   9.488  1.00  0.00     0.189 HD
HETATM    9  N2  UNL     1      19.543   4.508  11.094  1.00  0.00    -0.291 N 
HETATM   10  O1  UNL     1      20.169   3.665   9.176  1.00  0.00    -0.246 OA
HETATM   11  C2  UNL     1      19.029   4.593  12.332  1.00  0.00     0.150 C 
ATOM     12  H2  UNL     1      20.047   5.333  10.770  1.00  0.00     0.172 HD
HETATM   13  C6  UNL     1      18.091   3.750  12.890  1.00  0.00     0.163 C 
HETATM   14  N6  UNL     1      17.887   2.474  12.520  1.00  0.00    -0.172 N 
HETATM   15  N7  UNL     1      17.399   4.250  13.809  1.00  0.00    -0.345 N 
ATOM     16  H6  UNL     1      17.519   1.865  13.250  1.00  0.00     0.186 HD
ATOM     17  H7  UNL     1      17.621   5.222  14.028  1.00  0.00     0.163 HD
BRANCH  11  18
HETATM   18  N1  UNL     1      19.468   5.568  13.061  1.00  0.00    -0.378 N 
HETATM   19  C1  UNL     1      20.361   6.578  12.552  1.00  0.00     0.148 C 
ATOM     20  H1  UNL     1      19.170   5.624  14.035  1.00  0.00     0.160 HD
ENDBRANCH  11  18
BRANCH  15  21
HETATM   21  C7  UNL     1      16.357   3.686  14.597  1.00  0.00     0.247 C 
HETATM   22  C8  UNL     1      16.197   4.577  15.837  1.00  0.00     0.065 C 
BRANCH  21  23
HETATM   23  O2  UNL     1      16.568   2.371  14.978  1.00  0.00    -0.262 OA
BRANCH  23  24
HETATM   24  N8  UNL     1      17.321   2.313  16.074  1.00  0.00    -0.309 N 
ATOM     25  H82 UNL     1      17.473   3.103  16.701  1.00  0.00     0.184 HD
ATOM     26  H81 UNL     1      17.715   1.380  16.191  1.00  0.00     0.184 HD
ENDBRANCH  23  24
ENDBRANCH  21  23
ENDBRANCH  15  21
ENDBRANCH   1   5
TORSDOF 5
ENDMDL
MODEL 3
REMARK VINA RESULT: -6.603148886      2.305      4.198
REMARK  5 active torsions:
REMARK  status: ('A' for Active; 'I' for Inactive)
REMARK    1  A    between atoms: N1_2  and  C2_4 
REMARK    2  A    between atoms: C4_11  and  N4_12 
REMARK    3  A    between atoms: N7_19  and  C7_21 
REMARK    4  A    between atoms: C7_21  and  O2_23 
REMARK    5  A    between atoms: O2_23  and  N8_24 
ROOT
HETATM    1  N4  UNL     1      18.022   0.846  11.076  1.00  0.00    -0.126 N 
ATOM      2  H4  UNL     1      18.146   1.159  10.114  1.00  0.00     0.197 HD
HETATM    3  C5  UNL     1      18.238  -0.499  11.385  1.00  0.00     0.196 C 
HETATM    4  N5  UNL     1      18.424  -1.627  11.625  1.00  0.00    -0.171 NA
ENDROOT
BRANCH   1   5
HETATM    5  C4  UNL     1      17.671   1.703  11.970  1.00  0.00     0.697 C 
HETATM    6  N3  UNL     1      17.326   1.216  13.161  1.00  0.00    -0.140 N 
HETATM    7  C3  UNL     1      16.951   1.935  14.244  1.00  0.00     0.340 C 
ATOM      8  H3  UNL     1      17.346   0.202  13.268  1.00  0.00     0.189 HD
HETATM    9  N2  UNL     1      16.898   3.276  14.417  1.00  0.00    -0.291 N 
HETATM   10  O1  UNL     1      16.594   1.282  15.259  1.00  0.00    -0.246 OA
HETATM   11  C2  UNL     1      17.104   4.254  13.519  1.00  0.00     0.150 C 
ATOM     12  H2  UNL     1      16.669   3.589  15.360  1.00  0.00     0.172 HD
HETATM   13  C6  UNL     1      17.685   4.115  12.276  1.00  0.00     0.163 C 
HETATM   14  N6  UNL     1      17.705   2.979  11.559  1.00  0.00    -0.172 N 
HETATM   15  N7  UNL     1      18.223   5.152  11.816  1.00  0.00    -0.345 N 
ATOM     16  H6  UNL     1      17.752   3.106  10.548  1.00  0.00     0.186 HD
ATOM     17  H7  UNL     1      18.160   5.969  12.424  1.00  0.00     0.163 HD
BRANCH  11  18
HETATM   18  N1  UNL     1      16.713   5.436  13.870  1.00  0.00    -0.378 N 
HETATM   19  C1  UNL     1      15.472   5.671  14.563  1.00  0.00     0.148 C 
ATOM     20  H1  UNL     1      17.307   6.235  13.647  1.00  0.00     0.160 HD
ENDBRANCH  11  18
BRANCH  15  21
HETATM   21  C7  UNL     1      18.905   5.375  10.587  1.00  0.00     0.247 C 
HETATM   22  C8  UNL     1      19.498   6.789  10.653  1.00  0.00     0.065 C 
BRANCH  21  23
HETATM   23  O2  UNL     1      18.116   5.240   9.456  1.00  0.00    -0.262 OA
BRANCH  23  24
HETATM   24  N8  UNL     1      17.358   6.320   9.278  1.00  0.00    -0.309 N 
ATOM     25  H82 UNL     1      17.706   7.276   9.352  1.00  0.00     0.184 HD
ATOM     26  H81 UNL     1      16.398   6.055   9.060  1.00  0.00     0.184 HD
ENDBRANCH  23  24
ENDBRANCH  21  23
ENDBRANCH  15  21
ENDBRANCH   1   5
TORSDOF 5
ENDMDL
MODEL 4
REMARK VINA RESULT: -6.579485119      2.229      3.712
REMARK  5 active torsions:
REMARK  status: ('A' for Active; 'I' for Inactive)
REMARK    1  A    between atoms: N1_2  and  C2_4 
REMARK    2  A    between atoms: C4_11  and  N4_12 
REMARK    3  A    between atoms: N7_19  and  C7_21 
REMARK    4  A    between atoms: C7_21  and  O2_23 
REMARK    5  A    between atoms: O2_23  and  N8_24 
ROOT
HETATM    1  N4  UNL     1      17.037   0.871  12.294  1.00  0.00    -0.126 N 
ATOM      2  H4  UNL     1      16.113   0.517  12.542  1.00  0.00     0.197 HD
HETATM    3  C5  UNL     1      17.996  -0.022  11.808  1.00  0.00     0.196 C 
HETATM    4  N5  UNL     1      18.784  -0.782  11.402  1.00  0.00    -0.171 NA
ENDROOT
BRANCH   1   5
HETATM    5  C4  UNL     1      17.284   2.125  12.439  1.00  0.00     0.697 C 
HETATM    6  N3  UNL     1      17.678   2.786  11.352  1.00  0.00    -0.140 N 
HETATM    7  C3  UNL     1      17.963   4.106  11.274  1.00  0.00     0.340 C 
ATOM      8  H3  UNL     1      17.774   2.244  10.493  1.00  0.00     0.189 HD
HETATM    9  N2  UNL     1      17.862   5.071  12.218  1.00  0.00    -0.291 N 
HETATM   10  O1  UNL     1      18.389   4.527  10.167  1.00  0.00    -0.246 OA
HETATM   11  C2  UNL     1      17.549   4.952  13.519  1.00  0.00     0.150 C 
ATOM     12  H2  UNL     1      18.050   6.020  11.897  1.00  0.00     0.172 HD
HETATM   13  C6  UNL     1      16.992   3.848  14.130  1.00  0.00     0.163 C 
HETATM   14  N6  UNL     1      17.106   2.585  13.686  1.00  0.00    -0.172 N 
HETATM   15  N7  UNL     1      16.342   4.085  15.176  1.00  0.00    -0.345 N 
ATOM     16  H6  UNL     1      17.049   1.866  14.408  1.00  0.00     0.186 HD
ATOM     17  H7  UNL     1      16.308   5.070  15.442  1.00  0.00     0.163 HD
BRANCH  11  18
HETATM   18  N1  UNL     1      17.801   5.984  14.258  1.00  0.00    -0.378 N 
HETATM   19  C1  UNL     1      19.140   6.455  14.506  1.00  0.00     0.148 C 
ATOM     20  H1  UNL     1      17.020   6.485  14.682  1.00  0.00     0.160 HD
ENDBRANCH  11  18
BRANCH  15  21
HETATM   21  C7  UNL     1      15.643   3.208  16.053  1.00  0.00     0.247 C 
HETATM   22  C8  UNL     1      14.742   4.080  16.938  1.00  0.00     0.065 C 
BRANCH  21  23
HETATM   23  O2  UNL     1      16.457   2.409  16.839  1.00  0.00    -0.262 OA
BRANCH  23  24
HETATM   24  N8  UNL     1      15.740   1.762  17.755  1.00  0.00    -0.309 N 
ATOM     25  H82 UNL     1      14.798   2.036  18.036  1.00  0.00     0.184 HD
ATOM     26  H81 UNL     1      16.260   0.969  18.127  1.00  0.00     0.184 HD
ENDBRANCH  23  24
ENDBRANCH  21  23
ENDBRANCH  15  21
ENDBRANCH   1   5
TORSDOF 5
ENDMDL
MODEL 5
REMARK VINA RESULT: -6.534844105      1.145      1.272
REMARK  5 active torsions:
REMARK  status: ('A' for Active; 'I' for Inactive)
REMARK    1  A    between atoms: N1_2  and  C2_4 
REMARK    2  A    between atoms: C4_11  and  N4_12 
REMARK    3  A    between atoms: N7_19  and  C7_21 
REMARK    4  A    between atoms: C7_21  and  O2_23 
REMARK    5  A    between atoms: O2_23  and  N8_24 
ROOT
HETATM    1  N4  UNL     1      17.043   1.829  14.307  1.00  0.00    -0.126 N 
ATOM      2  H4  UNL     1      16.878   0.833  14.166  1.00  0.00     0.197 HD
HETATM    3  C5  UNL     1      17.263   2.303  15.603  1.00  0.00     0.196 C 
HETATM    4  N5  UNL     1      17.447   2.681  16.692  1.00  0.00    -0.171 NA
ENDROOT
BRANCH   1   5
HETATM    5  C4  UNL     1      17.041   2.612  13.286  1.00  0.00     0.697 C 
HETATM    6  N3  UNL     1      16.829   2.046  12.099  1.00  0.00    -0.140 N 
HETATM    7  C3  UNL     1      16.762   2.681  10.907  1.00  0.00     0.340 C 
ATOM      8  H3  UNL     1      16.706   1.033  12.087  1.00  0.00     0.189 HD
HETATM    9  N2  UNL     1      16.819   4.004  10.626  1.00  0.00    -0.291 N 
HETATM   10  O1  UNL     1      16.625   1.956   9.888  1.00  0.00    -0.246 OA
HETATM   11  C2  UNL     1      17.064   5.035  11.452  1.00  0.00     0.150 C 
ATOM     12  H2  UNL     1      16.653   4.254   9.651  1.00  0.00     0.172 HD
HETATM   13  C6  UNL     1      17.045   5.001  12.832  1.00  0.00     0.163 C 
HETATM   14  N6  UNL     1      17.258   3.904  13.577  1.00  0.00    -0.172 N 
HETATM   15  N7  UNL     1      16.811   6.099  13.391  1.00  0.00    -0.345 N 
ATOM     16  H6  UNL     1      17.643   4.079  14.505  1.00  0.00     0.186 HD
ATOM     17  H7  UNL     1      16.664   6.881  12.751  1.00  0.00     0.163 HD
BRANCH  11  18
HETATM   18  N1  UNL     1      17.344   6.163  10.884  1.00  0.00    -0.378 N 
HETATM   19  C1  UNL     1      18.145   6.253   9.689  1.00  0.00     0.148 C 
ATOM     20  H1  UNL     1      16.983   7.022  11.297  1.00  0.00     0.160 HD
ENDBRANCH  11  18
BRANCH  15  21
HETATM   21  C7  UNL     1      16.717   6.435  14.771  1.00  0.00     0.247 C 
HETATM   22  C8  UNL     1      15.226   6.615  15.089  1.00  0.00     0.065 C 
BRANCH  21  23
HETATM   23  O2  UNL     1      17.424   7.568  15.140  1.00  0.00    -0.262 OA
BRANCH  23  24
HETATM   24  N8  UNL     1      17.751   8.288  14.069  1.00  0.00    -0.309 N 
ATOM     25  H82 UNL     1      17.917   7.889  13.145  1.00  0.00     0.184 HD
ATOM     26  H81 UNL     1      17.808   9.279  14.305  1.00  0.00     0.184 HD
ENDBRANCH  23  24
ENDBRANCH  21  23
ENDBRANCH  15  21
ENDBRANCH   1   5
TORSDOF 5
ENDMDL
