MODEL 1
REMARK VINA RESULT: -7.552026999      0.000      0.000
REMARK  6 active torsions:
REMARK  status: ('A' for Active; 'I' for Inactive)
REMARK    1  A    between atoms: O1_2  and  N1_3 
REMARK    2  A    between atoms: N1_3  and  C2_5 
REMARK    3  A    between atoms: C3_8  and  N3_9 
REMARK    4  A    between atoms: C6_14  and  N4_15 
REMARK    5  A    between atoms: N4_15  and  N5_17 
REMARK       I    between atoms: N5_17  and  C7_19 
REMARK    6  A    between atoms: C7_19  and  C8_21 
ROOT
HETATM    1  C2  UNL     1      19.373   2.716  11.400  1.00  0.00     0.705 C 
HETATM    2  N2  UNL     1      19.351   1.415  11.051  1.00  0.00    -0.175 N 
ATOM      3  H2  UNL     1      20.070   1.097  10.400  1.00  0.00     0.186 HD
HETATM    4  C3  UNL     1      18.464   0.492  11.484  1.00  0.00     0.114 C 
HETATM    5  C4  UNL     1      17.328   0.641  12.285  1.00  0.00     0.052 C 
HETATM    6  C5  UNL     1      16.936   1.746  13.013  1.00  0.00     0.054 C 
HETATM    7  C6  UNL     1      17.627   2.936  13.088  1.00  0.00     0.135 C 
HETATM    8  N7  UNL     1      18.688   3.375  12.353  1.00  0.00    -0.174 N 
ATOM      9  H7  UNL     1      19.004   4.325  12.551  1.00  0.00     0.186 HD
ENDROOT
BRANCH   7  10
HETATM   10  N4  UNL     1      17.244   3.786  13.971  1.00  0.00    -0.282 N 
ATOM     11  H4  UNL     1      17.627   4.731  13.984  1.00  0.00     0.188 HD
BRANCH  10  12
HETATM   12  N5  UNL     1      16.297   3.391  14.909  1.00  0.00    -0.261 N 
HETATM   13  C7  UNL     1      16.713   3.024  16.215  1.00  0.00     0.325 C 
HETATM   14  O2  UNL     1      17.923   3.052  16.532  1.00  0.00    -0.261 OA
ATOM     15  H5  UNL     1      15.308   3.365  14.660  1.00  0.00     0.190 HD
BRANCH  13  16
HETATM   16  C8  UNL     1      15.708   2.616  17.175  1.00  0.00     0.324 C 
HETATM   17  N6  UNL     1      14.415   2.231  16.754  1.00  0.00    -0.053 NA
HETATM   18  O3  UNL     1      15.978   2.601  18.395  1.00  0.00    -0.266 OA
ENDBRANCH  13  16
ENDBRANCH  10  12
ENDBRANCH   7  10
BRANCH   1  19
HETATM   19  N1  UNL     1      20.190   3.436  10.698  1.00  0.00    -0.097 N 
ATOM     20  H1  UNL     1      21.008   3.828  11.164  1.00  0.00     0.213 HD
BRANCH  19  21
HETATM   21  O1  UNL     1      20.019   3.699   9.377  1.00  0.00    -0.272 OA
HETATM   22  C1  UNL     1      20.405   4.868   8.723  1.00  0.00     0.238 C 
ENDBRANCH  19  21
ENDBRANCH   1  19
BRANCH   4  23
HETATM   23  N3  UNL     1      18.733  -0.703  11.076  1.00  0.00    -0.385 N 
ATOM     24  H32 UNL     1      19.500  -1.185  11.545  1.00  0.00     0.157 HD
ATOM     25  H31 UNL     1      18.127  -1.015  10.318  1.00  0.00     0.157 HD
ENDBRANCH   4  23
TORSDOF 6
ENDMDL
MODEL 2
REMARK VINA RESULT: -7.494040091      2.455      3.657
REMARK  6 active torsions:
REMARK  status: ('A' for Active; 'I' for Inactive)
REMARK    1  A    between atoms: O1_2  and  N1_3 
REMARK    2  A    between atoms: N1_3  and  C2_5 
REMARK    3  A    between atoms: C3_8  and  N3_9 
REMARK    4  A    between atoms: C6_14  and  N4_15 
REMARK    5  A    between atoms: N4_15  and  N5_17 
REMARK       I    between atoms: N5_17  and  C7_19 
REMARK    6  A    between atoms: C7_19  and  C8_21 
ROOT
HETATM    1  C2  UNL     1      16.622   3.831  11.700  1.00  0.00     0.705 C 
HETATM    2  N2  UNL     1      16.727   4.754  10.724  1.00  0.00    -0.175 N 
ATOM      3  H2  UNL     1      16.333   4.515   9.814  1.00  0.00     0.186 HD
HETATM    4  C3  UNL     1      17.307   5.970  10.841  1.00  0.00     0.114 C 
HETATM    5  C4  UNL     1      18.006   6.534  11.912  1.00  0.00     0.052 C 
HETATM    6  C5  UNL     1      18.109   6.068  13.206  1.00  0.00     0.054 C 
HETATM    7  C6  UNL     1      17.506   4.926  13.691  1.00  0.00     0.135 C 
HETATM    8  N7  UNL     1      16.873   3.923  13.019  1.00  0.00    -0.174 N 
ATOM      9  H7  UNL     1      16.549   3.141  13.588  1.00  0.00     0.186 HD
ENDROOT
BRANCH   7  10
HETATM   10  N4  UNL     1      17.523   4.745  14.961  1.00  0.00    -0.282 N 
ATOM     11  H4  UNL     1      18.332   5.023  15.516  1.00  0.00     0.188 HD
BRANCH  10  12
HETATM   12  N5  UNL     1      16.415   4.162  15.565  1.00  0.00    -0.261 N 
HETATM   13  C7  UNL     1      16.591   3.050  16.429  1.00  0.00     0.325 C 
HETATM   14  O2  UNL     1      17.731   2.587  16.653  1.00  0.00    -0.261 OA
ATOM     15  H5  UNL     1      15.480   4.531  15.388  1.00  0.00     0.190 HD
BRANCH  13  16
HETATM   16  C8  UNL     1      15.421   2.459  17.047  1.00  0.00     0.324 C 
HETATM   17  N6  UNL     1      14.211   3.182  17.151  1.00  0.00    -0.053 NA
HETATM   18  O3  UNL     1      15.472   1.294  17.497  1.00  0.00    -0.266 OA
ENDBRANCH  13  16
ENDBRANCH  10  12
ENDBRANCH   7  10
BRANCH   1  19
HETATM   19  N1  UNL     1      16.209   2.674  11.287  1.00  0.00    -0.097 N 
ATOM     20  H1  UNL     1      15.451   2.223  11.799  1.00  0.00     0.213 HD
BRANCH  19  21
HETATM   21  O1  UNL     1      16.729   2.027  10.212  1.00  0.00    -0.272 OA
HETATM   22  C1  UNL     1      17.935   1.328  10.188  1.00  0.00     0.238 C 
ENDBRANCH  19  21
ENDBRANCH   1  19
BRANCH   4  23
HETATM   23  N3  UNL     1      17.177   6.699   9.783  1.00  0.00    -0.385 N 
ATOM     24  H32 UNL     1      16.255   7.099   9.613  1.00  0.00     0.157 HD
ATOM     25  H31 UNL     1      18.039   6.781   9.244  1.00  0.00     0.157 HD
ENDBRANCH   4  23
TORSDOF 6
ENDMDL
MODEL 3
REMARK VINA RESULT: -7.174153575      1.255      1.263
REMARK  6 active torsions:
REMARK  status: ('A' for Active; 'I' for Inactive)
REMARK    1  A    between atoms: O1_2  and  N1_3 
REMARK    2  A    between atoms: N1_3  and  C2_5 
REMARK    3  A    between atoms: C3_8  and  N3_9 
REMARK    4  A    between atoms: C6_14  and  N4_15 
REMARK    5  A    between atoms: N4_15  and  N5_17 
REMARK       I    between atoms: N5_17  and  C7_19 
REMARK    6  A    between atoms: C7_19  and  C8_21 
ROOT
HETATM    1  C2  UNL     1      19.352   3.960  11.466  1.00  0.00     0.705 C 
HETATM    2  N2  UNL     1      19.107   2.926  10.638  1.00  0.00    -0.175 N 
ATOM      3  H2  UNL     1      19.798   2.738   9.912  1.00  0.00     0.186 HD
HETATM    4  C3  UNL     1      18.028   2.113  10.684  1.00  0.00     0.114 C 
HETATM    5  C4  UNL     1      16.886   2.177  11.487  1.00  0.00     0.052 C 
HETATM    6  C5  UNL     1      16.660   2.976  12.589  1.00  0.00     0.054 C 
HETATM    7  C6  UNL     1      17.560   3.877  13.117  1.00  0.00     0.135 C 
HETATM    8  N7  UNL     1      18.738   4.333  12.604  1.00  0.00    -0.174 N 
ATOM      9  H7  UNL     1      19.215   5.048  13.153  1.00  0.00     0.186 HD
ENDROOT
BRANCH   7  10
HETATM   10  N4  UNL     1      17.283   4.385  14.262  1.00  0.00    -0.282 N 
ATOM     11  H4  UNL     1      17.757   5.229  14.586  1.00  0.00     0.188 HD
BRANCH  10  12
HETATM   12  N5  UNL     1      16.323   3.763  15.052  1.00  0.00    -0.261 N 
HETATM   13  C7  UNL     1      16.713   3.131  16.261  1.00  0.00     0.325 C 
HETATM   14  O2  UNL     1      17.910   3.127  16.625  1.00  0.00    -0.261 OA
ATOM     15  H5  UNL     1      15.344   3.760  14.765  1.00  0.00     0.190 HD
BRANCH  13  16
HETATM   16  C8  UNL     1      15.695   2.489  17.069  1.00  0.00     0.324 C 
HETATM   17  N6  UNL     1      14.352   2.428  16.631  1.00  0.00    -0.053 NA
HETATM   18  O3  UNL     1      15.998   1.978  18.169  1.00  0.00    -0.266 OA
ENDBRANCH  13  16
ENDBRANCH  10  12
ENDBRANCH   7  10
BRANCH   1  19
HETATM   19  N1  UNL     1      20.344   4.708  11.094  1.00  0.00    -0.097 N 
ATOM     20  H1  UNL     1      20.576   5.519  11.667  1.00  0.00     0.213 HD
BRANCH  19  21
HETATM   21  O1  UNL     1      21.092   4.472   9.985  1.00  0.00    -0.272 OA
HETATM   22  C1  UNL     1      22.171   5.241   9.553  1.00  0.00     0.238 C 
ENDBRANCH  19  21
ENDBRANCH   1  19
BRANCH   4  23
HETATM   23  N3  UNL     1      18.092   1.135   9.842  1.00  0.00    -0.385 N 
ATOM     24  H32 UNL     1      18.377   0.229  10.214  1.00  0.00     0.157 HD
ATOM     25  H31 UNL     1      17.842   1.407   8.892  1.00  0.00     0.157 HD
ENDBRANCH   4  23
TORSDOF 6
ENDMDL
MODEL 4
REMARK VINA RESULT: -7.023037624      2.742      4.092
REMARK  6 active torsions:
REMARK  status: ('A' for Active; 'I' for Inactive)
REMARK    1  A    between atoms: O1_2  and  N1_3 
REMARK    2  A    between atoms: N1_3  and  C2_5 
REMARK    3  A    between atoms: C3_8  and  N3_9 
REMARK    4  A    between atoms: C6_14  and  N4_15 
REMARK    5  A    between atoms: N4_15  and  N5_17 
REMARK       I    between atoms: N5_17  and  C7_19 
REMARK    6  A    between atoms: C7_19  and  C8_21 
ROOT
HETATM    1  C2  UNL     1      17.668   4.858  12.004  1.00  0.00     0.705 C 
HETATM    2  N2  UNL     1      17.219   5.950  11.354  1.00  0.00    -0.175 N 
ATOM      3  H2  UNL     1      17.079   5.865  10.348  1.00  0.00     0.186 HD
HETATM    4  C3  UNL     1      16.937   7.146  11.916  1.00  0.00     0.114 C 
HETATM    5  C4  UNL     1      17.118   7.590  13.229  1.00  0.00     0.052 C 
HETATM    6  C5  UNL     1      17.444   6.846  14.345  1.00  0.00     0.054 C 
HETATM    7  C6  UNL     1      17.646   5.482  14.361  1.00  0.00     0.135 C 
HETATM    8  N7  UNL     1      17.773   4.608  13.323  1.00  0.00    -0.174 N 
ATOM      9  H7  UNL     1      17.974   3.641  13.577  1.00  0.00     0.186 HD
ENDROOT
BRANCH   7  10
HETATM   10  N4  UNL     1      17.732   4.913  15.508  1.00  0.00    -0.282 N 
ATOM     11  H4  UNL     1      18.618   4.891  16.014  1.00  0.00     0.188 HD
BRANCH  10  12
HETATM   12  N5  UNL     1      16.593   4.326  16.047  1.00  0.00    -0.261 N 
HETATM   13  C7  UNL     1      16.653   2.994  16.533  1.00  0.00     0.325 C 
HETATM   14  O2  UNL     1      17.720   2.341  16.481  1.00  0.00    -0.261 OA
ATOM     15  H5  UNL     1      15.719   4.849  16.093  1.00  0.00     0.190 HD
BRANCH  13  16
HETATM   16  C8  UNL     1      15.454   2.403  17.090  1.00  0.00     0.324 C 
HETATM   17  N6  UNL     1      14.238   3.124  17.127  1.00  0.00    -0.053 NA
HETATM   18  O3  UNL     1      15.482   1.240  17.547  1.00  0.00    -0.266 OA
ENDBRANCH  13  16
ENDBRANCH  10  12
ENDBRANCH   7  10
BRANCH   1  19
HETATM   19  N1  UNL     1      18.056   3.901  11.220  1.00  0.00    -0.097 N 
ATOM     20  H1  UNL     1      19.055   3.700  11.166  1.00  0.00     0.213 HD
BRANCH  19  21
HETATM   21  O1  UNL     1      17.210   3.152  10.468  1.00  0.00    -0.272 OA
HETATM   22  C1  UNL     1      16.706   1.899  10.814  1.00  0.00     0.238 C 
ENDBRANCH  19  21
ENDBRANCH   1  19
BRANCH   4  23
HETATM   23  N3  UNL     1      16.422   7.990  11.084  1.00  0.00    -0.385 N 
ATOM     24  H32 UNL     1      16.911   8.877  10.970  1.00  0.00     0.157 HD
ATOM     25  H31 UNL     1      15.571   7.646  10.641  1.00  0.00     0.157 HD
ENDBRANCH   4  23
TORSDOF 6
ENDMDL
MODEL 5
REMARK VINA RESULT: -7.001451174      2.467      3.618
REMARK  6 active torsions:
REMARK  status: ('A' for Active; 'I' for Inactive)
REMARK    1  A    between atoms: O1_2  and  N1_3 
REMARK    2  A    between atoms: N1_3  and  C2_5 
REMARK    3  A    between atoms: C3_8  and  N3_9 
REMARK    4  A    between atoms: C6_14  and  N4_15 
REMARK    5  A    between atoms: N4_15  and  N5_17 
REMARK       I    between atoms: N5_17  and  C7_19 
REMARK    6  A    between atoms: C7_19  and  C8_21 
ROOT
HETATM    1  C2  UNL     1      17.240   4.074  11.714  1.00  0.00     0.705 C 
HETATM    2  N2  UNL     1      16.936   5.053  10.839  1.00  0.00    -0.175 N 
ATOM      3  H2  UNL     1      16.622   4.765   9.912  1.00  0.00     0.186 HD
HETATM    4  C3  UNL     1      17.009   6.381  11.078  1.00  0.00     0.114 C 
HETATM    5  C4  UNL     1      17.488   7.070  12.196  1.00  0.00     0.052 C 
HETATM    6  C5  UNL     1      17.822   6.561  13.434  1.00  0.00     0.054 C 
HETATM    7  C6  UNL     1      17.729   5.236  13.802  1.00  0.00     0.135 C 
HETATM    8  N7  UNL     1      17.500   4.133  13.034  1.00  0.00    -0.174 N 
ATOM      9  H7  UNL     1      17.528   3.237  13.521  1.00  0.00     0.186 HD
ENDROOT
BRANCH   7  10
HETATM   10  N4  UNL     1      17.874   4.957  15.046  1.00  0.00    -0.282 N 
ATOM     11  H4  UNL     1      18.784   5.054  15.499  1.00  0.00     0.188 HD
BRANCH  10  12
HETATM   12  N5  UNL     1      16.767   4.522  15.765  1.00  0.00    -0.261 N 
HETATM   13  C7  UNL     1      16.845   3.318  16.513  1.00  0.00     0.325 C 
HETATM   14  O2  UNL     1      17.899   2.644  16.533  1.00  0.00    -0.261 OA
ATOM     15  H5  UNL     1      15.903   5.064  15.755  1.00  0.00     0.190 HD
BRANCH  13  16
HETATM   16  C8  UNL     1      15.678   2.884  17.254  1.00  0.00     0.324 C 
HETATM   17  N6  UNL     1      15.363   1.511  17.373  1.00  0.00    -0.053 NA
HETATM   18  O3  UNL     1      14.934   3.727  17.800  1.00  0.00    -0.266 OA
ENDBRANCH  13  16
ENDBRANCH  10  12
ENDBRANCH   7  10
BRANCH   1  19
HETATM   19  N1  UNL     1      17.286   2.891  11.186  1.00  0.00    -0.097 N 
ATOM     20  H1  UNL     1      16.580   2.212  11.468  1.00  0.00     0.213 HD
BRANCH  19  21
HETATM   21  O1  UNL     1      18.220   2.506  10.279  1.00  0.00    -0.272 OA
HETATM   22  C1  UNL     1      19.596   2.690  10.400  1.00  0.00     0.238 C 
ENDBRANCH  19  21
ENDBRANCH   1  19
BRANCH   4  23
HETATM   23  N3  UNL     1      16.559   7.099  10.103  1.00  0.00    -0.385 N 
ATOM     24  H32 UNL     1      15.555   7.055   9.928  1.00  0.00     0.157 HD
ATOM     25  H31 UNL     1      17.287   7.627   9.625  1.00  0.00     0.157 HD
ENDBRANCH   4  23
TORSDOF 6
ENDMDL
