MODEL 1
REMARK VINA RESULT: -7.766918197      0.000      0.000
REMARK  10 active torsions:
REMARK  status: ('A' for Active; 'I' for Inactive)
REMARK    1  A    between atoms: N3_9  and  C4_10 
REMARK    2  A    between atoms: C5_11  and  O3_12 
REMARK    3  A    between atoms: C7_15  and  C8_16 
REMARK    4  A    between atoms: C7_15  and  C9_19 
REMARK    5  A    between atoms: C8_16  and  O4_17 
REMARK    6  A    between atoms: C9_19  and  N4_20 
REMARK    7  A    between atoms: C11_22  and  N5_23 
REMARK    8  A    between atoms: C12_28  and  N7_29 
REMARK    9  A    between atoms: N8_32  and  N9_33 
REMARK   10  A    between atoms: C13_36  and  O5_37 
ROOT
HETATM    1  C4  UNL     1      16.221   4.825  13.070  1.00  0.00     0.158 C 
HETATM    2  C5  UNL     1      16.771   4.032  11.934  1.00  0.00     0.145 C 
HETATM    3  C6  UNL     1      17.807   4.891  11.214  1.00  0.00     0.053 C 
HETATM    4  C7  UNL     1      17.371   6.304  11.626  1.00  0.00     0.045 C 
HETATM    5  C13 UNL     1      17.152   5.995  13.134  1.00  0.00     0.160 C 
ENDROOT
BRANCH   4   6
HETATM    6  C8  UNL     1      16.125   6.773  11.019  1.00  0.00     0.181 C 
BRANCH   6   7
HETATM    7  O4  UNL     1      16.064   6.344   9.684  1.00  0.00    -0.400 OA
ATOM      8  H4  UNL     1      15.688   7.031   9.147  1.00  0.00     0.209 HD
ENDBRANCH   6   7
ENDBRANCH   4   6
BRANCH   4   9
HETATM    9  C9  UNL     1      18.598   7.139  11.445  1.00  0.00     0.106 C 
BRANCH   9  10
HETATM   10  N4  UNL     1      19.704   6.608  10.764  1.00  0.00    -0.242 N 
HETATM   11  C10 UNL     1      19.640   6.279   9.469  1.00  0.00     0.166 A 
HETATM   12  C11 UNL     1      20.721   5.792   8.755  1.00  0.00     0.132 A 
HETATM   13  N6  UNL     1      21.887   5.646   9.400  1.00  0.00    -0.173 N 
HETATM   14  C12 UNL     1      21.939   5.982  10.707  1.00  0.00     0.714 A 
ATOM     15  H6  UNL     1      22.712   5.291   8.917  1.00  0.00     0.186 HD
HETATM   16  N8  UNL     1      20.878   6.455  11.383  1.00  0.00    -0.021 N 
BRANCH  12  17
HETATM   17  N5  UNL     1      20.674   5.470   7.507  1.00  0.00    -0.384 N 
ATOM     18  H52 UNL     1      19.837   5.716   6.980  1.00  0.00     0.157 HD
ATOM     19  H51 UNL     1      21.425   4.985   7.015  1.00  0.00     0.157 HD
ENDBRANCH  12  17
BRANCH  14  20
HETATM   20  N7  UNL     1      23.055   5.857  11.374  1.00  0.00    -0.231 N 
ATOM     21  H72 UNL     1      23.717   5.159  11.035  1.00  0.00     0.174 HD
ATOM     22  H71 UNL     1      23.231   6.439  12.192  1.00  0.00     0.174 HD
ENDBRANCH  14  20
BRANCH  16  23
HETATM   23  N9  UNL     1      21.065   6.818  12.747  1.00  0.00    -0.309 N 
ATOM     24  H92 UNL     1      20.279   6.695  13.386  1.00  0.00     0.179 HD
ATOM     25  H91 UNL     1      21.958   7.163  13.097  1.00  0.00     0.179 HD
ENDBRANCH  16  23
ENDBRANCH   9  10
ENDBRANCH   4   9
BRANCH   5  26
HETATM   26  O5  UNL     1      18.426   5.601  13.563  1.00  0.00    -0.392 OA
ATOM     27  H5  UNL     1      19.098   6.170  13.204  1.00  0.00     0.210 HD
ENDBRANCH   5  26
BRANCH   2  28
HETATM   28  O3  UNL     1      15.833   3.714  10.960  1.00  0.00    -0.393 OA
ATOM     29  H3  UNL     1      15.443   4.470  10.536  1.00  0.00     0.210 HD
ENDBRANCH   2  28
BRANCH   1  30
HETATM   30  N3  UNL     1      16.083   4.075  14.316  1.00  0.00    -0.241 N 
HETATM   31  C3  UNL     1      16.608   2.849  14.407  1.00  0.00     0.335 A 
HETATM   32  N2  UNL     1      16.497   2.122  15.548  1.00  0.00    -0.260 N 
HETATM   33  O2  UNL     1      17.235   2.248  13.492  1.00  0.00    -0.246 OA
HETATM   34  C2  UNL     1      15.853   2.639  16.591  1.00  0.00     0.334 A 
ATOM     35  H2  UNL     1      16.902   1.187  15.605  1.00  0.00     0.175 HD
HETATM   36  N1  UNL     1      15.321   3.864  16.512  1.00  0.00    -0.255 N 
HETATM   37  O1  UNL     1      15.756   1.947  17.655  1.00  0.00    -0.246 OA
HETATM   38  C1  UNL     1      14.626   4.400  17.664  1.00  0.00     0.166 C 
HETATM   39  C14 UNL     1      15.433   4.587  15.377  1.00  0.00     0.336 A 
HETATM   40  O6  UNL     1      14.896   5.748  15.373  1.00  0.00    -0.246 OA
ENDBRANCH   1  30
TORSDOF 10
ENDMDL
MODEL 2
REMARK VINA RESULT: -7.550134032      1.576      2.242
REMARK  10 active torsions:
REMARK  status: ('A' for Active; 'I' for Inactive)
REMARK    1  A    between atoms: N3_9  and  C4_10 
REMARK    2  A    between atoms: C5_11  and  O3_12 
REMARK    3  A    between atoms: C7_15  and  C8_16 
REMARK    4  A    between atoms: C7_15  and  C9_19 
REMARK    5  A    between atoms: C8_16  and  O4_17 
REMARK    6  A    between atoms: C9_19  and  N4_20 
REMARK    7  A    between atoms: C11_22  and  N5_23 
REMARK    8  A    between atoms: C12_28  and  N7_29 
REMARK    9  A    between atoms: N8_32  and  N9_33 
REMARK   10  A    between atoms: C13_36  and  O5_37 
ROOT
HETATM    1  C4  UNL     1      16.244   4.670  12.987  1.00  0.00     0.158 C 
HETATM    2  C5  UNL     1      16.385   3.748  11.825  1.00  0.00     0.145 C 
HETATM    3  C6  UNL     1      17.479   4.298  10.913  1.00  0.00     0.053 C 
HETATM    4  C7  UNL     1      17.491   5.780  11.311  1.00  0.00     0.045 C 
HETATM    5  C13 UNL     1      17.441   5.557  12.849  1.00  0.00     0.160 C 
ENDROOT
BRANCH   4   6
HETATM    6  C8  UNL     1      16.326   6.551  10.873  1.00  0.00     0.181 C 
BRANCH   6   7
HETATM    7  O4  UNL     1      16.016   6.219   9.546  1.00  0.00    -0.400 OA
ATOM      8  H4  UNL     1      16.796   6.297   9.010  1.00  0.00     0.209 HD
ENDBRANCH   6   7
ENDBRANCH   4   6
BRANCH   4   9
HETATM    9  C9  UNL     1      18.845   6.264  10.904  1.00  0.00     0.106 C 
BRANCH   9  10
HETATM   10  N4  UNL     1      19.170   7.621  11.052  1.00  0.00    -0.242 N 
HETATM   11  C10 UNL     1      18.584   8.568  10.312  1.00  0.00     0.166 A 
HETATM   12  C11 UNL     1      18.849   9.919  10.459  1.00  0.00     0.132 A 
HETATM   13  N6  UNL     1      19.738  10.288  11.392  1.00  0.00    -0.173 N 
HETATM   14  C12 UNL     1      20.322   9.322  12.134  1.00  0.00     0.714 A 
ATOM     15  H6  UNL     1      19.966  11.271  11.538  1.00  0.00     0.186 HD
HETATM   16  N8  UNL     1      20.051   8.016  11.977  1.00  0.00    -0.021 N 
BRANCH  12  17
HETATM   17  N5  UNL     1      18.293  10.844   9.752  1.00  0.00    -0.384 N 
ATOM     18  H52 UNL     1      17.652  10.560   9.012  1.00  0.00     0.157 HD
ATOM     19  H51 UNL     1      18.455  11.841   9.889  1.00  0.00     0.157 HD
ENDBRANCH  12  17
BRANCH  14  20
HETATM   20  N7  UNL     1      21.193   9.637  13.054  1.00  0.00    -0.231 N 
ATOM     21  H72 UNL     1      21.322   8.968  13.813  1.00  0.00     0.174 HD
ATOM     22  H71 UNL     1      21.705  10.517  12.996  1.00  0.00     0.174 HD
ENDBRANCH  14  20
BRANCH  16  23
HETATM   23  N9  UNL     1      20.695   7.092  12.847  1.00  0.00    -0.309 N 
ATOM     24  H92 UNL     1      20.536   7.189  13.850  1.00  0.00     0.179 HD
ATOM     25  H91 UNL     1      21.276   6.332  12.494  1.00  0.00     0.179 HD
ENDBRANCH  16  23
ENDBRANCH   9  10
ENDBRANCH   4   9
BRANCH   5  26
HETATM   26  O5  UNL     1      18.624   4.850  13.102  1.00  0.00    -0.392 OA
ATOM     27  H5  UNL     1      18.784   4.775  14.036  1.00  0.00     0.210 HD
ENDBRANCH   5  26
BRANCH   2  28
HETATM   28  O3  UNL     1      15.255   3.673  11.021  1.00  0.00    -0.393 OA
ATOM     29  H3  UNL     1      14.672   2.954  11.237  1.00  0.00     0.210 HD
ENDBRANCH   2  28
BRANCH   1  30
HETATM   30  N3  UNL     1      16.118   3.998  14.278  1.00  0.00    -0.241 N 
HETATM   31  C3  UNL     1      16.650   2.781  14.440  1.00  0.00     0.335 A 
HETATM   32  N2  UNL     1      16.550   2.125  15.624  1.00  0.00    -0.260 N 
HETATM   33  O2  UNL     1      17.274   2.129  13.559  1.00  0.00    -0.246 OA
HETATM   34  C2  UNL     1      15.910   2.702  16.638  1.00  0.00     0.334 A 
ATOM     35  H2  UNL     1      16.961   1.198  15.736  1.00  0.00     0.175 HD
HETATM   36  N1  UNL     1      15.372   3.917  16.488  1.00  0.00    -0.255 N 
HETATM   37  O1  UNL     1      15.824   2.077  17.744  1.00  0.00    -0.246 OA
HETATM   38  C1  UNL     1      14.681   4.521  17.609  1.00  0.00     0.166 C 
HETATM   39  C14 UNL     1      15.472   4.571  15.310  1.00  0.00     0.336 A 
HETATM   40  O6  UNL     1      14.929   5.726  15.238  1.00  0.00    -0.246 OA
ENDBRANCH   1  30
TORSDOF 10
ENDMDL
MODEL 3
REMARK VINA RESULT: -7.465523473      1.681      2.776
REMARK  10 active torsions:
REMARK  status: ('A' for Active; 'I' for Inactive)
REMARK    1  A    between atoms: N3_9  and  C4_10 
REMARK    2  A    between atoms: C5_11  and  O3_12 
REMARK    3  A    between atoms: C7_15  and  C8_16 
REMARK    4  A    between atoms: C7_15  and  C9_19 
REMARK    5  A    between atoms: C8_16  and  O4_17 
REMARK    6  A    between atoms: C9_19  and  N4_20 
REMARK    7  A    between atoms: C11_22  and  N5_23 
REMARK    8  A    between atoms: C12_28  and  N7_29 
REMARK    9  A    between atoms: N8_32  and  N9_33 
REMARK   10  A    between atoms: C13_36  and  O5_37 
ROOT
HETATM    1  C4  UNL     1      16.244   4.665  13.001  1.00  0.00     0.158 C 
HETATM    2  C5  UNL     1      16.394   3.754  11.831  1.00  0.00     0.145 C 
HETATM    3  C6  UNL     1      17.494   4.314  10.932  1.00  0.00     0.053 C 
HETATM    4  C7  UNL     1      17.502   5.792  11.344  1.00  0.00     0.045 C 
HETATM    5  C13 UNL     1      17.442   5.555  12.880  1.00  0.00     0.160 C 
ENDROOT
BRANCH   4   6
HETATM    6  C8  UNL     1      16.339   6.567  10.905  1.00  0.00     0.181 C 
BRANCH   6   7
HETATM    7  O4  UNL     1      16.095   6.316   9.547  1.00  0.00    -0.400 OA
ATOM      8  H4  UNL     1      16.778   6.717   9.023  1.00  0.00     0.209 HD
ENDBRANCH   6   7
ENDBRANCH   4   6
BRANCH   4   9
HETATM    9  C9  UNL     1      18.859   6.281  10.952  1.00  0.00     0.106 C 
BRANCH   9  10
HETATM   10  N4  UNL     1      19.157   7.649  11.045  1.00  0.00    -0.242 N 
HETATM   11  C10 UNL     1      19.550   8.206  12.195  1.00  0.00     0.166 A 
HETATM   12  C11 UNL     1      19.892   9.543  12.314  1.00  0.00     0.132 A 
HETATM   13  N6  UNL     1      19.822  10.310  11.218  1.00  0.00    -0.173 N 
HETATM   14  C12 UNL     1      19.424   9.736  10.062  1.00  0.00     0.714 A 
ATOM     15  H6  UNL     1      20.063  11.300  11.255  1.00  0.00     0.186 HD
HETATM   16  N8  UNL     1      19.098   8.436   9.966  1.00  0.00    -0.021 N 
BRANCH  12  17
HETATM   17  N5  UNL     1      20.272  10.093  13.417  1.00  0.00    -0.384 N 
ATOM     18  H52 UNL     1      21.269  10.258  13.551  1.00  0.00     0.157 HD
ATOM     19  H51 UNL     1      19.635  10.375  14.162  1.00  0.00     0.157 HD
ENDBRANCH  12  17
BRANCH  14  20
HETATM   20  N7  UNL     1      19.343  10.446   8.969  1.00  0.00    -0.231 N 
ATOM     21  H72 UNL     1      18.416  10.779   8.704  1.00  0.00     0.174 HD
ATOM     22  H71 UNL     1      20.180  10.644   8.423  1.00  0.00     0.174 HD
ENDBRANCH  14  20
BRANCH  16  23
HETATM   23  N9  UNL     1      18.735   7.932   8.684  1.00  0.00    -0.309 N 
ATOM     24  H92 UNL     1      17.908   8.322   8.234  1.00  0.00     0.179 HD
ATOM     25  H91 UNL     1      19.292   7.225   8.205  1.00  0.00     0.179 HD
ENDBRANCH  16  23
ENDBRANCH   9  10
ENDBRANCH   4   9
BRANCH   5  26
HETATM   26  O5  UNL     1      18.623   4.846  13.134  1.00  0.00    -0.392 OA
ATOM     27  H5  UNL     1      18.517   3.923  12.934  1.00  0.00     0.210 HD
ENDBRANCH   5  26
BRANCH   2  28
HETATM   28  O3  UNL     1      15.270   3.687  11.018  1.00  0.00    -0.393 OA
ATOM     29  H3  UNL     1      14.859   2.830  10.996  1.00  0.00     0.210 HD
ENDBRANCH   2  28
BRANCH   1  30
HETATM   30  N3  UNL     1      16.109   3.981  14.284  1.00  0.00    -0.241 N 
HETATM   31  C3  UNL     1      16.640   2.763  14.438  1.00  0.00     0.335 A 
HETATM   32  N2  UNL     1      16.531   2.095  15.615  1.00  0.00    -0.260 N 
HETATM   33  O2  UNL     1      17.269   2.118  13.555  1.00  0.00    -0.246 OA
HETATM   34  C2  UNL     1      15.885   2.663  16.630  1.00  0.00     0.334 A 
ATOM     35  H2  UNL     1      16.941   1.167  15.720  1.00  0.00     0.175 HD
HETATM   36  N1  UNL     1      15.349   3.880  16.489  1.00  0.00    -0.255 N 
HETATM   37  O1  UNL     1      15.792   2.027  17.729  1.00  0.00    -0.246 OA
HETATM   38  C1  UNL     1      14.652   4.473  17.611  1.00  0.00     0.166 C 
HETATM   39  C14 UNL     1      15.457   4.545  15.317  1.00  0.00     0.336 A 
HETATM   40  O6  UNL     1      14.915   5.701  15.253  1.00  0.00    -0.246 OA
ENDBRANCH   1  30
TORSDOF 10
ENDMDL
MODEL 4
REMARK VINA RESULT: -7.349846734      1.325      1.869
REMARK  10 active torsions:
REMARK  status: ('A' for Active; 'I' for Inactive)
REMARK    1  A    between atoms: N3_9  and  C4_10 
REMARK    2  A    between atoms: C5_11  and  O3_12 
REMARK    3  A    between atoms: C7_15  and  C8_16 
REMARK    4  A    between atoms: C7_15  and  C9_19 
REMARK    5  A    between atoms: C8_16  and  O4_17 
REMARK    6  A    between atoms: C9_19  and  N4_20 
REMARK    7  A    between atoms: C11_22  and  N5_23 
REMARK    8  A    between atoms: C12_28  and  N7_29 
REMARK    9  A    between atoms: N8_32  and  N9_33 
REMARK   10  A    between atoms: C13_36  and  O5_37 
ROOT
HETATM    1  C4  UNL     1      16.218   4.738  13.007  1.00  0.00     0.158 C 
HETATM    2  C5  UNL     1      16.425   3.845  11.833  1.00  0.00     0.145 C 
HETATM    3  C6  UNL     1      17.517   4.457  10.959  1.00  0.00     0.053 C 
HETATM    4  C7  UNL     1      17.457   5.930  11.383  1.00  0.00     0.045 C 
HETATM    5  C13 UNL     1      17.380   5.677  12.915  1.00  0.00     0.160 C 
ENDROOT
BRANCH   4   6
HETATM    6  C8  UNL     1      16.272   6.661  10.930  1.00  0.00     0.181 C 
BRANCH   6   7
HETATM    7  O4  UNL     1      15.855   6.154   9.690  1.00  0.00    -0.400 OA
ATOM      8  H4  UNL     1      16.605   6.068   9.114  1.00  0.00     0.209 HD
ENDBRANCH   6   7
ENDBRANCH   4   6
BRANCH   4   9
HETATM    9  C9  UNL     1      18.800   6.477  11.019  1.00  0.00     0.106 C 
BRANCH   9  10
HETATM   10  N4  UNL     1      19.111   6.710   9.670  1.00  0.00    -0.242 N 
HETATM   11  C10 UNL     1      18.608   7.755   9.004  1.00  0.00     0.166 A 
HETATM   12  C11 UNL     1      18.925   8.039   7.686  1.00  0.00     0.132 A 
HETATM   13  N6  UNL     1      19.779   7.222   7.054  1.00  0.00    -0.173 N 
HETATM   14  C12 UNL     1      20.281   6.171   7.739  1.00  0.00     0.714 A 
ATOM     15  H6  UNL     1      20.044   7.390   6.084  1.00  0.00     0.186 HD
HETATM   16  N8  UNL     1      19.962   5.912   9.018  1.00  0.00    -0.021 N 
BRANCH  12  17
HETATM   17  N5  UNL     1      18.447   9.041   7.030  1.00  0.00    -0.384 N 
ATOM     18  H52 UNL     1      17.712   9.594   7.469  1.00  0.00     0.157 HD
ATOM     19  H51 UNL     1      18.762   9.315   6.099  1.00  0.00     0.157 HD
ENDBRANCH  12  17
BRANCH  14  20
HETATM   20  N7  UNL     1      21.117   5.350   7.162  1.00  0.00    -0.231 N 
ATOM     21  H72 UNL     1      21.704   5.736   6.423  1.00  0.00     0.174 HD
ATOM     22  H71 UNL     1      21.162   4.375   7.454  1.00  0.00     0.174 HD
ENDBRANCH  14  20
BRANCH  16  23
HETATM   23  N9  UNL     1      20.588   4.801   9.650  1.00  0.00    -0.309 N 
ATOM     24  H92 UNL     1      20.580   3.906   9.161  1.00  0.00     0.179 HD
ATOM     25  H91 UNL     1      21.062   4.887  10.549  1.00  0.00     0.179 HD
ENDBRANCH  16  23
ENDBRANCH   9  10
ENDBRANCH   4   9
BRANCH   5  26
HETATM   26  O5  UNL     1      18.584   5.014  13.184  1.00  0.00    -0.392 OA
ATOM     27  H5  UNL     1      19.118   4.945  12.401  1.00  0.00     0.210 HD
ENDBRANCH   5  26
BRANCH   2  28
HETATM   28  O3  UNL     1      15.318   3.740  10.999  1.00  0.00    -0.393 OA
ATOM     29  H3  UNL     1      15.111   4.538  10.528  1.00  0.00     0.210 HD
ENDBRANCH   2  28
BRANCH   1  30
HETATM   30  N3  UNL     1      16.088   4.037  14.282  1.00  0.00    -0.241 N 
HETATM   31  C3  UNL     1      16.640   2.828  14.425  1.00  0.00     0.335 A 
HETATM   32  N2  UNL     1      16.538   2.145  15.594  1.00  0.00    -0.260 N 
HETATM   33  O2  UNL     1      17.286   2.205  13.539  1.00  0.00    -0.246 OA
HETATM   34  C2  UNL     1      15.876   2.689  16.612  1.00  0.00     0.334 A 
ATOM     35  H2  UNL     1      16.964   1.223  15.692  1.00  0.00     0.175 HD
HETATM   36  N1  UNL     1      15.318   3.898  16.481  1.00  0.00    -0.255 N 
HETATM   37  O1  UNL     1      15.788   2.040  17.703  1.00  0.00    -0.246 OA
HETATM   38  C1  UNL     1      14.603   4.465  17.606  1.00  0.00     0.166 C 
HETATM   39  C14 UNL     1      15.420   4.577  15.318  1.00  0.00     0.336 A 
HETATM   40  O6  UNL     1      14.857   5.724  15.264  1.00  0.00    -0.246 OA
ENDBRANCH   1  30
TORSDOF 10
ENDMDL
MODEL 5
REMARK VINA RESULT: -7.337392154      1.639      2.495
REMARK  10 active torsions:
REMARK  status: ('A' for Active; 'I' for Inactive)
REMARK    1  A    between atoms: N3_9  and  C4_10 
REMARK    2  A    between atoms: C5_11  and  O3_12 
REMARK    3  A    between atoms: C7_15  and  C8_16 
REMARK    4  A    between atoms: C7_15  and  C9_19 
REMARK    5  A    between atoms: C8_16  and  O4_17 
REMARK    6  A    between atoms: C9_19  and  N4_20 
REMARK    7  A    between atoms: C11_22  and  N5_23 
REMARK    8  A    between atoms: C12_28  and  N7_29 
REMARK    9  A    between atoms: N8_32  and  N9_33 
REMARK   10  A    between atoms: C13_36  and  O5_37 
ROOT
HETATM    1  C4  UNL     1      16.664   5.399  12.327  1.00  0.00     0.158 C 
HETATM    2  C5  UNL     1      16.804   4.177  11.486  1.00  0.00     0.145 C 
HETATM    3  C6  UNL     1      18.178   4.214  10.821  1.00  0.00     0.053 C 
HETATM    4  C7  UNL     1      18.499   5.714  10.868  1.00  0.00     0.045 C 
HETATM    5  C13 UNL     1      18.056   5.950  12.339  1.00  0.00     0.160 C 
ENDROOT
BRANCH   4   6
HETATM    6  C8  UNL     1      17.710   6.549   9.961  1.00  0.00     0.181 C 
BRANCH   6   7
HETATM    7  O4  UNL     1      17.424   5.829   8.791  1.00  0.00    -0.400 OA
ATOM      8  H4  UNL     1      17.734   4.936   8.884  1.00  0.00     0.209 HD
ENDBRANCH   6   7
ENDBRANCH   4   6
BRANCH   4   9
HETATM    9  C9  UNL     1      19.989   5.778  10.763  1.00  0.00     0.106 C 
BRANCH   9  10
HETATM   10  N4  UNL     1      20.581   6.240   9.577  1.00  0.00    -0.242 N 
HETATM   11  C10 UNL     1      20.784   5.430   8.532  1.00  0.00     0.166 A 
HETATM   12  C11 UNL     1      21.327   5.860   7.332  1.00  0.00     0.132 A 
HETATM   13  N6  UNL     1      21.663   7.152   7.221  1.00  0.00    -0.173 N 
HETATM   14  C12 UNL     1      21.452   7.960   8.284  1.00  0.00     0.714 A 
ATOM     15  H6  UNL     1      22.066   7.517   6.358  1.00  0.00     0.186 HD
HETATM   16  N8  UNL     1      20.923   7.524   9.439  1.00  0.00    -0.021 N 
BRANCH  12  17
HETATM   17  N5  UNL     1      21.529   5.091   6.317  1.00  0.00    -0.384 N 
ATOM     18  H52 UNL     1      20.793   4.435   6.059  1.00  0.00     0.157 HD
ATOM     19  H51 UNL     1      22.380   5.101   5.756  1.00  0.00     0.157 HD
ENDBRANCH  12  17
BRANCH  14  20
HETATM   20  N7  UNL     1      21.764   9.226   8.218  1.00  0.00    -0.231 N 
ATOM     21  H72 UNL     1      22.755   9.453   8.140  1.00  0.00     0.174 HD
ATOM     22  H71 UNL     1      21.033   9.936   8.247  1.00  0.00     0.174 HD
ENDBRANCH  14  20
BRANCH  16  23
HETATM   23  N9  UNL     1      20.706   8.477  10.474  1.00  0.00    -0.309 N 
ATOM     24  H92 UNL     1      19.756   8.593  10.826  1.00  0.00     0.179 HD
ATOM     25  H91 UNL     1      21.471   9.013  10.884  1.00  0.00     0.179 HD
ENDBRANCH  16  23
ENDBRANCH   9  10
ENDBRANCH   4   9
BRANCH   5  26
HETATM   26  O5  UNL     1      18.920   5.118  13.064  1.00  0.00    -0.392 OA
ATOM     27  H5  UNL     1      19.457   5.624  13.664  1.00  0.00     0.210 HD
ENDBRANCH   5  26
BRANCH   2  28
HETATM   28  O3  UNL     1      15.900   4.109  10.433  1.00  0.00    -0.393 OA
ATOM     29  H3  UNL     1      15.032   3.816  10.686  1.00  0.00     0.210 HD
ENDBRANCH   2  28
BRANCH   1  30
HETATM   30  N3  UNL     1      16.083   5.159  13.646  1.00  0.00    -0.241 N 
HETATM   31  C3  UNL     1      15.322   6.104  14.210  1.00  0.00     0.335 A 
HETATM   32  N2  UNL     1      14.768   5.917  15.435  1.00  0.00    -0.260 N 
HETATM   33  O2  UNL     1      15.044   7.224  13.702  1.00  0.00    -0.246 OA
HETATM   34  C2  UNL     1      14.987   4.777  16.084  1.00  0.00     0.334 A 
ATOM     35  H2  UNL     1      14.189   6.645  15.854  1.00  0.00     0.175 HD
HETATM   36  N1  UNL     1      15.747   3.825  15.531  1.00  0.00    -0.255 N 
HETATM   37  O1  UNL     1      14.461   4.614  17.231  1.00  0.00    -0.246 OA
HETATM   38  C1  UNL     1      15.969   2.593  16.261  1.00  0.00     0.166 C 
HETATM   39  C14 UNL     1      16.299   4.010  14.312  1.00  0.00     0.336 A 
HETATM   40  O6  UNL     1      17.018   3.060  13.849  1.00  0.00    -0.246 OA
ENDBRANCH   1  30
TORSDOF 10
ENDMDL
