MODEL 1
REMARK VINA RESULT: -8.996488244      0.000      0.000
REMARK  8 active torsions:
REMARK  status: ('A' for Active; 'I' for Inactive)
REMARK    1  A    between atoms: C3_3  and  O1_4 
REMARK    2  A    between atoms: O1_4  and  C4_5 
REMARK    3  A    between atoms: C4_5  and  C5_7 
REMARK    4  A    between atoms: C13_15  and  O3_16 
REMARK    5  A    between atoms: O3_16  and  C14_17 
REMARK    6  A    between atoms: C14_17  and  C15_19 
REMARK    7  A    between atoms: C26_31  and  C27_32 
REMARK    8  A    between atoms: C28_34  and  O7_35 
ROOT
HETATM    1  C1  UNL     1     -26.784  -5.817  33.266  1.00  0.00     0.017 C 
HETATM    2  C2  UNL     1     -26.123  -6.400  32.316  1.00  0.00    -0.053 C 
HETATM    3  C3  UNL     1     -25.495  -7.750  32.662  1.00  0.00     0.161 C 
HETATM    4  C8  UNL     1     -26.003  -8.803  31.730  1.00  0.00     0.038 C 
HETATM    5  C9  UNL     1     -25.799  -8.326  30.298  1.00  0.00     0.013 C 
HETATM    6  C10 UNL     1     -26.569  -7.036  30.093  1.00  0.00    -0.032 C 
HETATM    7  C11 UNL     1     -27.985  -7.347  30.522  1.00  0.00     0.016 C 
HETATM    8  C12 UNL     1     -26.683  -6.645  28.651  1.00  0.00     0.043 C 
HETATM    9  C13 UNL     1     -25.347  -6.339  27.965  1.00  0.00     0.142 C 
HETATM   10  C19 UNL     1     -24.728  -5.063  28.308  1.00  0.00    -0.001 C 
HETATM   11  C20 UNL     1     -23.288  -5.246  28.764  1.00  0.00     0.019 C 
HETATM   12  C21 UNL     1     -25.521  -4.171  29.230  1.00  0.00     0.021 C 
HETATM   13  C22 UNL     1     -26.451  -3.370  28.345  1.00  0.00     0.008 C 
HETATM   14  C23 UNL     1     -26.012  -3.677  26.889  1.00  0.00     0.015 C 
HETATM   15  C24 UNL     1     -24.583  -4.040  27.160  1.00  0.00    -0.012 C 
HETATM   16  C25 UNL     1     -23.758  -4.526  26.070  1.00  0.00    -0.004 C 
HETATM   17  C26 UNL     1     -23.388  -3.692  25.121  1.00  0.00     0.005 C 
HETATM   18  C28 UNL     1     -23.717  -2.259  25.065  1.00  0.00     0.154 C 
HETATM   19  C29 UNL     1     -23.908  -1.745  26.417  1.00  0.00     0.037 C 
HETATM   20  C30 UNL     1     -23.940  -2.740  27.566  1.00  0.00     0.017 C 
HETATM   21  C31 UNL     1     -26.061  -4.623  30.511  1.00  0.00     0.046 C 
HETATM   22  C32 UNL     1     -25.552  -3.691  31.640  1.00  0.00     0.034 C 
HETATM   23 CL1  UNL     1     -27.844  -4.328  30.486  1.00  0.00    -0.118 Cl
HETATM   24  C33 UNL     1     -25.862  -6.011  30.936  1.00  0.00     0.048 C 
ENDROOT
BRANCH   9  25
HETATM   25  O3  UNL     1     -25.453  -6.738  26.624  1.00  0.00    -0.311 OA
BRANCH  25  26
HETATM   26  C14 UNL     1     -25.395  -8.034  26.185  1.00  0.00     0.295 C 
HETATM   27  O4  UNL     1     -26.448  -8.457  25.678  1.00  0.00    -0.259 OA
BRANCH  26  28
HETATM   28  C15 UNL     1     -24.183  -8.853  26.308  1.00  0.00     0.063 A 
HETATM   29  C16 UNL     1     -23.669  -9.450  27.418  1.00  0.00     0.044 A 
HETATM   30  C17 UNL     1     -22.507 -10.117  27.035  1.00  0.00     0.142 A 
HETATM   31  O5  UNL     1     -22.354  -9.908  25.732  1.00  0.00    -0.334 OA
HETATM   32  C18 UNL     1     -23.330  -9.163  25.270  1.00  0.00     0.159 A 
ENDBRANCH  26  28
ENDBRANCH  25  26
ENDBRANCH   9  25
BRANCH  17  33
HETATM   33  C27 UNL     1     -22.552  -4.279  24.049  1.00  0.00     0.268 C 
HETATM   34  O6  UNL     1     -22.895  -4.040  22.867  1.00  0.00    -0.302 OA
ENDBRANCH  17  33
BRANCH  18  35
HETATM   35  O7  UNL     1     -24.657  -1.931  24.107  1.00  0.00    -0.391 OA
ATOM     36  H7  UNL     1     -25.242  -1.228  24.361  1.00  0.00     0.210 HD
ENDBRANCH  18  35
BRANCH   3  37
HETATM   37  O1  UNL     1     -25.583  -8.038  34.003  1.00  0.00    -0.308 OA
BRANCH  37  38
HETATM   38  C4  UNL     1     -25.018  -9.145  34.623  1.00  0.00     0.283 C 
HETATM   39  O2  UNL     1     -23.829  -9.371  34.365  1.00  0.00    -0.260 OA
BRANCH  38  40
HETATM   40  C5  UNL     1     -25.848  -9.933  35.503  1.00  0.00     0.078 C 
HETATM   41  C6  UNL     1     -25.682  -9.966  36.811  1.00  0.00    -0.025 C 
HETATM   42  C7  UNL     1     -26.531 -10.772  37.715  1.00  0.00     0.036 C 
ENDBRANCH  38  40
ENDBRANCH  37  38
ENDBRANCH   3  37
TORSDOF 8
ENDMDL
MODEL 2
REMARK VINA RESULT: -8.954219640      1.866      2.664
REMARK  8 active torsions:
REMARK  status: ('A' for Active; 'I' for Inactive)
REMARK    1  A    between atoms: C3_3  and  O1_4 
REMARK    2  A    between atoms: O1_4  and  C4_5 
REMARK    3  A    between atoms: C4_5  and  C5_7 
REMARK    4  A    between atoms: C13_15  and  O3_16 
REMARK    5  A    between atoms: O3_16  and  C14_17 
REMARK    6  A    between atoms: C14_17  and  C15_19 
REMARK    7  A    between atoms: C26_31  and  C27_32 
REMARK    8  A    between atoms: C28_34  and  O7_35 
ROOT
HETATM    1  C1  UNL     1     -26.047  -7.346  33.633  1.00  0.00     0.017 C 
HETATM    2  C2  UNL     1     -25.683  -7.272  32.391  1.00  0.00    -0.053 C 
HETATM    3  C3  UNL     1     -24.794  -8.406  31.881  1.00  0.00     0.161 C 
HETATM    4  C8  UNL     1     -25.443  -9.078  30.714  1.00  0.00     0.038 C 
HETATM    5  C9  UNL     1     -25.816  -8.016  29.687  1.00  0.00     0.013 C 
HETATM    6  C10 UNL     1     -26.779  -7.032  30.322  1.00  0.00    -0.032 C 
HETATM    7  C11 UNL     1     -27.902  -7.879  30.878  1.00  0.00     0.016 C 
HETATM    8  C12 UNL     1     -27.438  -6.132  29.322  1.00  0.00     0.043 C 
HETATM    9  C13 UNL     1     -26.479  -5.206  28.566  1.00  0.00     0.142 C 
HETATM   10  C19 UNL     1     -25.961  -4.068  29.318  1.00  0.00    -0.001 C 
HETATM   11  C20 UNL     1     -24.442  -4.007  29.263  1.00  0.00     0.019 C 
HETATM   12  C21 UNL     1     -26.500  -3.899  30.716  1.00  0.00     0.021 C 
HETATM   13  C22 UNL     1     -27.780  -3.104  30.581  1.00  0.00     0.008 C 
HETATM   14  C23 UNL     1     -27.835  -2.645  29.101  1.00  0.00     0.015 C 
HETATM   15  C24 UNL     1     -26.365  -2.667  28.807  1.00  0.00    -0.012 C 
HETATM   16  C25 UNL     1     -25.911  -2.405  27.454  1.00  0.00    -0.004 C 
HETATM   17  C26 UNL     1     -26.011  -1.187  26.965  1.00  0.00     0.005 C 
HETATM   18  C28 UNL     1     -26.533  -0.015  27.687  1.00  0.00     0.154 C 
HETATM   19  C29 UNL     1     -26.313  -0.182  29.119  1.00  0.00     0.037 C 
HETATM   20  C30 UNL     1     -25.807  -1.527  29.617  1.00  0.00     0.017 C 
HETATM   21  C31 UNL     1     -26.495  -4.972  31.710  1.00  0.00     0.046 C 
HETATM   22  C32 UNL     1     -25.760  -4.486  32.985  1.00  0.00     0.034 C 
HETATM   23 CL1  UNL     1     -28.199  -5.210  32.264  1.00  0.00    -0.118 Cl
HETATM   24  C33 UNL     1     -25.973  -6.293  31.352  1.00  0.00     0.048 C 
ENDROOT
BRANCH   9  25
HETATM   25  O3  UNL     1     -26.987  -5.029  27.270  1.00  0.00    -0.311 OA
BRANCH  25  26
HETATM   26  C14 UNL     1     -26.423  -5.537  26.131  1.00  0.00     0.295 C 
HETATM   27  O4  UNL     1     -26.688  -4.905  25.095  1.00  0.00    -0.259 OA
BRANCH  26  28
HETATM   28  C15 UNL     1     -25.573  -6.734  26.140  1.00  0.00     0.063 A 
HETATM   29  C16 UNL     1     -24.219  -6.814  26.257  1.00  0.00     0.044 A 
HETATM   30  C17 UNL     1     -23.873  -8.162  26.211  1.00  0.00     0.142 A 
HETATM   31  O5  UNL     1     -25.003  -8.846  26.070  1.00  0.00    -0.334 OA
HETATM   32  C18 UNL     1     -26.029  -8.029  26.024  1.00  0.00     0.159 A 
ENDBRANCH  26  28
ENDBRANCH  25  26
ENDBRANCH   9  25
BRANCH  17  33
HETATM   33  C27 UNL     1     -25.526  -1.017  25.576  1.00  0.00     0.268 C 
HETATM   34  O6  UNL     1     -26.227  -0.311  24.813  1.00  0.00    -0.302 OA
ENDBRANCH  17  33
BRANCH  18  35
HETATM   35  O7  UNL     1     -27.782   0.398  27.266  1.00  0.00    -0.391 OA
ATOM     36  H7  UNL     1     -28.503  -0.083  27.656  1.00  0.00     0.210 HD
ENDBRANCH  18  35
BRANCH   3  37
HETATM   37  O1  UNL     1     -24.371  -9.234  32.895  1.00  0.00    -0.308 OA
BRANCH  37  38
HETATM   38  C4  UNL     1     -24.776 -10.551  33.075  1.00  0.00     0.283 C 
HETATM   39  O2  UNL     1     -24.297 -11.383  32.294  1.00  0.00    -0.260 OA
BRANCH  38  40
HETATM   40  C5  UNL     1     -25.707 -10.840  34.139  1.00  0.00     0.078 C 
HETATM   41  C6  UNL     1     -25.475 -10.536  35.401  1.00  0.00    -0.025 C 
HETATM   42  C7  UNL     1     -26.428 -10.831  36.493  1.00  0.00     0.036 C 
ENDBRANCH  38  40
ENDBRANCH  37  38
ENDBRANCH   3  37
TORSDOF 8
ENDMDL
MODEL 3
REMARK VINA RESULT: -8.924140112      1.176      1.360
REMARK  8 active torsions:
REMARK  status: ('A' for Active; 'I' for Inactive)
REMARK    1  A    between atoms: C3_3  and  O1_4 
REMARK    2  A    between atoms: O1_4  and  C4_5 
REMARK    3  A    between atoms: C4_5  and  C5_7 
REMARK    4  A    between atoms: C13_15  and  O3_16 
REMARK    5  A    between atoms: O3_16  and  C14_17 
REMARK    6  A    between atoms: C14_17  and  C15_19 
REMARK    7  A    between atoms: C26_31  and  C27_32 
REMARK    8  A    between atoms: C28_34  and  O7_35 
ROOT
HETATM    1  C1  UNL     1     -26.695  -6.433  33.751  1.00  0.00     0.017 C 
HETATM    2  C2  UNL     1     -26.059  -6.765  32.672  1.00  0.00    -0.053 C 
HETATM    3  C3  UNL     1     -25.129  -7.973  32.782  1.00  0.00     0.161 C 
HETATM    4  C8  UNL     1     -25.528  -9.017  31.790  1.00  0.00     0.038 C 
HETATM    5  C9  UNL     1     -25.616  -8.373  30.413  1.00  0.00     0.013 C 
HETATM    6  C10 UNL     1     -26.653  -7.268  30.450  1.00  0.00    -0.032 C 
HETATM    7  C11 UNL     1     -27.907  -7.919  30.988  1.00  0.00     0.016 C 
HETATM    8  C12 UNL     1     -27.033  -6.776  29.087  1.00  0.00     0.043 C 
HETATM    9  C13 UNL     1     -25.889  -6.122  28.302  1.00  0.00     0.142 C 
HETATM   10  C19 UNL     1     -25.504  -4.781  28.729  1.00  0.00    -0.001 C 
HETATM   11  C20 UNL     1     -24.010  -4.689  29.001  1.00  0.00     0.019 C 
HETATM   12  C21 UNL     1     -26.334  -4.175  29.832  1.00  0.00     0.021 C 
HETATM   13  C22 UNL     1     -27.516  -3.515  29.156  1.00  0.00     0.008 C 
HETATM   14  C23 UNL     1     -27.219  -3.579  27.635  1.00  0.00     0.015 C 
HETATM   15  C24 UNL     1     -25.723  -3.646  27.704  1.00  0.00    -0.012 C 
HETATM   16  C25 UNL     1     -24.967  -3.835  26.480  1.00  0.00    -0.004 C 
HETATM   17  C26 UNL     1     -24.902  -2.854  25.605  1.00  0.00     0.005 C 
HETATM   18  C28 UNL     1     -25.521  -1.528  25.758  1.00  0.00     0.154 C 
HETATM   19  C29 UNL     1     -25.634  -1.200  27.176  1.00  0.00     0.037 C 
HETATM   20  C30 UNL     1     -25.311  -2.283  28.192  1.00  0.00     0.017 C 
HETATM   21  C31 UNL     1     -26.598  -4.854  31.100  1.00  0.00     0.046 C 
HETATM   22  C32 UNL     1     -26.147  -3.945  32.271  1.00  0.00     0.034 C 
HETATM   23 CL1  UNL     1     -28.392  -4.953  31.303  1.00  0.00    -0.118 Cl
HETATM   24  C33 UNL     1     -26.066  -6.200  31.329  1.00  0.00     0.048 C 
ENDROOT
BRANCH   9  25
HETATM   25  O3  UNL     1     -26.087  -6.406  26.942  1.00  0.00    -0.311 OA
BRANCH  25  26
HETATM   26  C14 UNL     1     -25.645  -7.534  26.305  1.00  0.00     0.295 C 
HETATM   27  O4  UNL     1     -26.475  -8.058  25.543  1.00  0.00    -0.259 OA
BRANCH  26  28
HETATM   28  C15 UNL     1     -24.295  -8.076  26.508  1.00  0.00     0.063 A 
HETATM   29  C16 UNL     1     -23.925  -9.214  27.156  1.00  0.00     0.044 A 
HETATM   30  C17 UNL     1     -22.537  -9.304  27.086  1.00  0.00     0.142 A 
HETATM   31  O5  UNL     1     -22.115  -8.240  26.412  1.00  0.00    -0.334 OA
HETATM   32  C18 UNL     1     -23.132  -7.492  26.056  1.00  0.00     0.159 A 
ENDBRANCH  26  28
ENDBRANCH  25  26
ENDBRANCH   9  25
BRANCH  17  33
HETATM   33  C27 UNL     1     -24.112  -3.141  24.386  1.00  0.00     0.268 C 
HETATM   34  O6  UNL     1     -24.693  -2.992  23.285  1.00  0.00    -0.302 OA
ENDBRANCH  17  33
BRANCH  18  35
HETATM   35  O7  UNL     1     -26.626  -1.323  24.954  1.00  0.00    -0.391 OA
ATOM     36  H7  UNL     1     -26.705  -0.437  24.621  1.00  0.00     0.210 HD
ENDBRANCH  18  35
BRANCH   3  37
HETATM   37  O1  UNL     1     -24.979  -8.400  34.081  1.00  0.00    -0.308 OA
BRANCH  37  38
HETATM   38  C4  UNL     1     -24.610  -9.683  34.464  1.00  0.00     0.283 C 
HETATM   39  O2  UNL     1     -23.412  -9.969  34.341  1.00  0.00    -0.260 OA
BRANCH  38  40
HETATM   40  C5  UNL     1     -25.634 -10.567  34.966  1.00  0.00     0.078 C 
HETATM   41  C6  UNL     1     -25.951 -11.706  34.384  1.00  0.00    -0.025 C 
HETATM   42  C7  UNL     1     -27.000 -12.615  34.896  1.00  0.00     0.036 C 
ENDBRANCH  38  40
ENDBRANCH  37  38
ENDBRANCH   3  37
TORSDOF 8
ENDMDL
MODEL 4
REMARK VINA RESULT: -8.818237371      2.889      8.146
REMARK  8 active torsions:
REMARK  status: ('A' for Active; 'I' for Inactive)
REMARK    1  A    between atoms: C3_3  and  O1_4 
REMARK    2  A    between atoms: O1_4  and  C4_5 
REMARK    3  A    between atoms: C4_5  and  C5_7 
REMARK    4  A    between atoms: C13_15  and  O3_16 
REMARK    5  A    between atoms: O3_16  and  C14_17 
REMARK    6  A    between atoms: C14_17  and  C15_19 
REMARK    7  A    between atoms: C26_31  and  C27_32 
REMARK    8  A    between atoms: C28_34  and  O7_35 
ROOT
HETATM    1  C1  UNL     1     -20.894  -7.313  24.862  1.00  0.00     0.017 C 
HETATM    2  C2  UNL     1     -21.817  -7.843  25.601  1.00  0.00    -0.053 C 
HETATM    3  C3  UNL     1     -22.420  -9.152  25.092  1.00  0.00     0.161 C 
HETATM    4  C8  UNL     1     -22.244 -10.228  26.114  1.00  0.00     0.038 C 
HETATM    5  C9  UNL     1     -22.782  -9.726  27.447  1.00  0.00     0.013 C 
HETATM    6  C10 UNL     1     -22.010  -8.488  27.857  1.00  0.00    -0.032 C 
HETATM    7  C11 UNL     1     -20.554  -8.895  27.810  1.00  0.00     0.016 C 
HETATM    8  C12 UNL     1     -22.250  -8.093  29.282  1.00  0.00     0.043 C 
HETATM    9  C13 UNL     1     -23.696  -7.693  29.599  1.00  0.00     0.142 C 
HETATM   10  C19 UNL     1     -24.118  -6.382  29.117  1.00  0.00    -0.001 C 
HETATM   11  C20 UNL     1     -25.398  -6.474  28.300  1.00  0.00     0.019 C 
HETATM   12  C21 UNL     1     -23.056  -5.553  28.442  1.00  0.00     0.021 C 
HETATM   13  C22 UNL     1     -22.338  -4.807  29.546  1.00  0.00     0.008 C 
HETATM   14  C23 UNL     1     -23.161  -5.072  30.834  1.00  0.00     0.015 C 
HETATM   15  C24 UNL     1     -24.491  -5.342  30.197  1.00  0.00    -0.012 C 
HETATM   16  C25 UNL     1     -25.601  -5.763  31.030  1.00  0.00    -0.004 C 
HETATM   17  C26 UNL     1     -26.151  -4.899  31.857  1.00  0.00     0.005 C 
HETATM   18  C28 UNL     1     -25.754  -3.490  32.009  1.00  0.00     0.154 C 
HETATM   19  C29 UNL     1     -25.183  -3.002  30.758  1.00  0.00     0.037 C 
HETATM   20  C30 UNL     1     -24.918  -4.007  29.649  1.00  0.00     0.017 C 
HETATM   21  C31 UNL     1     -22.231  -6.050  27.342  1.00  0.00     0.046 C 
HETATM   22  C32 UNL     1     -22.365  -5.097  26.129  1.00  0.00     0.034 C 
HETATM   23 CL1  UNL     1     -20.500  -5.874  27.835  1.00  0.00    -0.118 Cl
HETATM   24  C33 UNL     1     -22.402  -7.426  26.869  1.00  0.00     0.048 C 
ENDROOT
BRANCH   9  25
HETATM   25  O3  UNL     1     -23.969  -8.087  30.918  1.00  0.00    -0.311 OA
BRANCH  25  26
HETATM   26  C14 UNL     1     -24.615  -9.241  31.273  1.00  0.00     0.295 C 
HETATM   27  O4  UNL     1     -24.815 -10.033  30.336  1.00  0.00    -0.259 OA
BRANCH  26  28
HETATM   28  C15 UNL     1     -25.034  -9.517  32.653  1.00  0.00     0.063 A 
HETATM   29  C16 UNL     1     -25.331  -8.632  33.644  1.00  0.00     0.044 A 
HETATM   30  C17 UNL     1     -25.676  -9.368  34.774  1.00  0.00     0.142 A 
HETATM   31  O5  UNL     1     -25.580 -10.652  34.442  1.00  0.00    -0.334 OA
HETATM   32  C18 UNL     1     -25.201 -10.773  33.192  1.00  0.00     0.159 A 
ENDBRANCH  26  28
ENDBRANCH  25  26
ENDBRANCH   9  25
BRANCH  17  33
HETATM   33  C27 UNL     1     -27.274  -5.420  32.668  1.00  0.00     0.268 C 
HETATM   34  O6  UNL     1     -27.730  -4.664  33.559  1.00  0.00    -0.302 OA
ENDBRANCH  17  33
BRANCH  18  35
HETATM   35  O7  UNL     1     -25.077  -3.216  33.182  1.00  0.00    -0.391 OA
ATOM     36  H7  UNL     1     -24.286  -3.727  33.302  1.00  0.00     0.210 HD
ENDBRANCH  18  35
BRANCH   3  37
HETATM   37  O1  UNL     1     -22.004  -9.457  23.817  1.00  0.00    -0.308 OA
BRANCH  37  38
HETATM   38  C4  UNL     1     -22.829  -9.894  22.789  1.00  0.00     0.283 C 
HETATM   39  O2  UNL     1     -23.361 -11.001  22.945  1.00  0.00    -0.260 OA
BRANCH  38  40
HETATM   40  C5  UNL     1     -22.999  -9.040  21.638  1.00  0.00     0.078 C 
HETATM   41  C6  UNL     1     -22.439  -7.851  21.535  1.00  0.00    -0.025 C 
HETATM   42  C7  UNL     1     -22.611  -6.973  20.357  1.00  0.00     0.036 C 
ENDBRANCH  38  40
ENDBRANCH  37  38
ENDBRANCH   3  37
TORSDOF 8
ENDMDL
MODEL 5
REMARK VINA RESULT: -8.769416892      2.141      7.875
REMARK  8 active torsions:
REMARK  status: ('A' for Active; 'I' for Inactive)
REMARK    1  A    between atoms: C3_3  and  O1_4 
REMARK    2  A    between atoms: O1_4  and  C4_5 
REMARK    3  A    between atoms: C4_5  and  C5_7 
REMARK    4  A    between atoms: C13_15  and  O3_16 
REMARK    5  A    between atoms: O3_16  and  C14_17 
REMARK    6  A    between atoms: C14_17  and  C15_19 
REMARK    7  A    between atoms: C26_31  and  C27_32 
REMARK    8  A    between atoms: C28_34  and  O7_35 
ROOT
HETATM    1  C1  UNL     1     -26.585  -2.840  27.890  1.00  0.00     0.017 C 
HETATM    2  C2  UNL     1     -26.469  -4.121  27.737  1.00  0.00    -0.053 C 
HETATM    3  C3  UNL     1     -26.887  -4.679  26.377  1.00  0.00     0.161 C 
HETATM    4  C8  UNL     1     -25.743  -5.409  25.751  1.00  0.00     0.038 C 
HETATM    5  C9  UNL     1     -25.212  -6.429  26.749  1.00  0.00     0.013 C 
HETATM    6  C10 UNL     1     -24.746  -5.704  27.996  1.00  0.00    -0.032 C 
HETATM    7  C11 UNL     1     -23.777  -4.652  27.504  1.00  0.00     0.016 C 
HETATM    8  C12 UNL     1     -23.935  -6.572  28.909  1.00  0.00     0.043 C 
HETATM    9  C13 UNL     1     -24.694  -7.768  29.495  1.00  0.00     0.142 C 
HETATM   10  C19 UNL     1     -25.648  -7.464  30.556  1.00  0.00    -0.001 C 
HETATM   11  C20 UNL     1     -27.023  -8.040  30.252  1.00  0.00     0.019 C 
HETATM   12  C21 UNL     1     -25.706  -6.025  31.000  1.00  0.00     0.021 C 
HETATM   13  C22 UNL     1     -24.632  -5.865  32.054  1.00  0.00     0.008 C 
HETATM   14  C23 UNL     1     -24.114  -7.298  32.345  1.00  0.00     0.015 C 
HETATM   15  C24 UNL     1     -25.341  -8.062  31.947  1.00  0.00    -0.012 C 
HETATM   16  C25 UNL     1     -25.300  -9.512  31.943  1.00  0.00    -0.004 C 
HETATM   17  C26 UNL     1     -25.244 -10.159  33.088  1.00  0.00     0.005 C 
HETATM   18  C28 UNL     1     -25.246  -9.537  34.422  1.00  0.00     0.154 C 
HETATM   19  C29 UNL     1     -25.948  -8.259  34.368  1.00  0.00     0.037 C 
HETATM   20  C30 UNL     1     -26.353  -7.719  33.006  1.00  0.00     0.017 C 
HETATM   21  C31 UNL     1     -25.887  -4.908  30.074  1.00  0.00     0.046 C 
HETATM   22  C32 UNL     1     -27.116  -4.073  30.512  1.00  0.00     0.034 C 
HETATM   23 CL1  UNL     1     -24.497  -3.776  30.305  1.00  0.00    -0.118 Cl
HETATM   24  C33 UNL     1     -25.994  -5.166  28.635  1.00  0.00     0.048 C 
ENDROOT
BRANCH   9  25
HETATM   25  O3  UNL     1     -23.782  -8.824  29.641  1.00  0.00    -0.311 OA
BRANCH  25  26
HETATM   26  C14 UNL     1     -23.602  -9.835  28.735  1.00  0.00     0.295 C 
HETATM   27  O4  UNL     1     -24.166 -10.902  29.030  1.00  0.00    -0.259 OA
BRANCH  26  28
HETATM   28  C15 UNL     1     -22.804  -9.665  27.514  1.00  0.00     0.063 A 
HETATM   29  C16 UNL     1     -23.234  -9.496  26.234  1.00  0.00     0.044 A 
HETATM   30  C17 UNL     1     -22.107  -9.380  25.425  1.00  0.00     0.142 A 
HETATM   31  O5  UNL     1     -21.048  -9.482  26.221  1.00  0.00    -0.334 OA
HETATM   32  C18 UNL     1     -21.427  -9.652  27.465  1.00  0.00     0.159 A 
ENDBRANCH  26  28
ENDBRANCH  25  26
ENDBRANCH   9  25
BRANCH  17  33
HETATM   33  C27 UNL     1     -25.202 -11.635  32.984  1.00  0.00     0.268 C 
HETATM   34  O6  UNL     1     -24.303 -12.127  32.261  1.00  0.00    -0.302 OA
ENDBRANCH  17  33
BRANCH  18  35
HETATM   35  O7  UNL     1     -24.025  -9.581  35.067  1.00  0.00    -0.391 OA
ATOM     36  H7  UNL     1     -24.086  -9.610  36.015  1.00  0.00     0.210 HD
ENDBRANCH  18  35
BRANCH   3  37
HETATM   37  O1  UNL     1     -27.501  -3.732  25.591  1.00  0.00    -0.308 OA
BRANCH  37  38
HETATM   38  C4  UNL     1     -27.142  -3.420  24.286  1.00  0.00     0.283 C 
HETATM   39  O2  UNL     1     -27.806  -3.959  23.391  1.00  0.00    -0.260 OA
BRANCH  38  40
HETATM   40  C5  UNL     1     -26.043  -2.509  24.078  1.00  0.00     0.078 C 
HETATM   41  C6  UNL     1     -26.025  -1.280  24.556  1.00  0.00    -0.025 C 
HETATM   42  C7  UNL     1     -24.899  -0.344  24.344  1.00  0.00     0.036 C 
ENDBRANCH  38  40
ENDBRANCH  37  38
ENDBRANCH   3  37
TORSDOF 8
ENDMDL
