MODEL 1
REMARK VINA RESULT: -8.765030291      0.000      0.000
REMARK  6 active torsions:
REMARK  status: ('A' for Active; 'I' for Inactive)
REMARK       I    between atoms: N1_2  and  C2_4 
REMARK       I    between atoms: C2_4  and  N2_5 
REMARK    1  A    between atoms: N2_5  and  N3_7 
REMARK    2  A    between atoms: N3_7  and  N4_8 
REMARK    3  A    between atoms: N5_11  and  C3_13 
REMARK    4  A    between atoms: C6_17  and  C7_18 
REMARK    5  A    between atoms: C7_18  and  C8_20 
REMARK    6  A    between atoms: C9_21  and  C10_22 
ROOT
HETATM    1  C3  UNL     1      35.483  37.940  23.324  1.00  0.00     0.090 A 
HETATM    2  C4  UNL     1      35.399  38.891  22.342  1.00  0.00     0.075 A 
HETATM    3  N6  UNL     1      35.580  40.300  22.617  1.00  0.00    -0.100 NA
HETATM    4  C5  UNL     1      35.157  38.481  21.035  1.00  0.00     0.044 A 
HETATM    5  C6  UNL     1      34.996  37.179  20.650  1.00  0.00     0.017 A 
HETATM    6  C15 UNL     1      35.089  36.238  21.675  1.00  0.00     0.037 A 
HETATM    7  C16 UNL     1      35.325  36.588  22.977  1.00  0.00     0.041 A 
HETATM    8 BR1  UNL     1      35.430  35.205  24.284  1.00  0.00    -0.049 Br
ENDROOT
BRANCH   1   9
HETATM    9  N5  UNL     1      35.689  38.236  24.665  1.00  0.00    -0.187 N 
HETATM   10  C2  UNL     1      34.876  38.305  25.625  1.00  0.00     0.704 C 
HETATM   11  N1  UNL     1      33.490  38.071  25.511  1.00  0.00    -0.228 N 
HETATM   12  N2  UNL     1      35.331  38.639  26.955  1.00  0.00    -0.046 N 
HETATM   13  C1  UNL     1      32.504  38.727  26.381  1.00  0.00     0.165 C 
ATOM     14  H1  UNL     1      33.160  37.422  24.797  1.00  0.00     0.177 HD
ATOM     15  H2  UNL     1      35.534  37.898  27.626  1.00  0.00     0.223 HD
ATOM     16  H5  UNL     1      36.659  38.430  24.914  1.00  0.00     0.184 HD
BRANCH  12  17
HETATM   17  N3  UNL     1      35.475  39.831  27.282  1.00  0.00    -0.229 NA
BRANCH  17  18
HETATM   18  N4  UNL     1      35.901  40.995  27.349  1.00  0.00    -0.260 N 
ATOM     19  H42 UNL     1      36.432  40.851  28.208  1.00  0.00     0.193 HD
ATOM     20  H41 UNL     1      36.082  41.976  27.139  1.00  0.00     0.193 HD
ENDBRANCH  17  18
ENDBRANCH  12  17
ENDBRANCH   1   9
BRANCH   5  21
HETATM   21  C7  UNL     1      34.737  36.752  19.252  1.00  0.00     0.182 C 
HETATM   22  O1  UNL     1      34.101  37.575  18.576  1.00  0.00    -0.288 OA
BRANCH  21  23
HETATM   23  C8  UNL     1      35.190  35.505  18.770  1.00  0.00     0.058 C 
HETATM   24  C9  UNL     1      36.095  35.231  17.884  1.00  0.00     0.035 C 
BRANCH  24  25
HETATM   25  C10 UNL     1      36.932  36.114  17.101  1.00  0.00     0.055 A 
HETATM   26  N7  UNL     1      36.944  36.445  15.811  1.00  0.00    -0.299 N 
HETATM   27  N8  UNL     1      37.869  37.293  15.458  1.00  0.00    -0.307 N 
ATOM     28  H7  UNL     1      36.273  36.062  15.145  1.00  0.00     0.187 HD
HETATM   29  C11 UNL     1      38.157  37.858  14.142  1.00  0.00     0.177 C 
HETATM   30  C12 UNL     1      38.544  37.564  16.585  1.00  0.00     0.118 A 
HETATM   31  C13 UNL     1      38.012  36.865  17.637  1.00  0.00    -0.017 A 
HETATM   32  C14 UNL     1      38.452  36.872  19.048  1.00  0.00     0.052 C 
ENDBRANCH  24  25
ENDBRANCH  21  23
ENDBRANCH   5  21
TORSDOF 6
ENDMDL
MODEL 2
REMARK VINA RESULT: -8.670550625      3.079      4.255
REMARK  6 active torsions:
REMARK  status: ('A' for Active; 'I' for Inactive)
REMARK       I    between atoms: N1_2  and  C2_4 
REMARK       I    between atoms: C2_4  and  N2_5 
REMARK    1  A    between atoms: N2_5  and  N3_7 
REMARK    2  A    between atoms: N3_7  and  N4_8 
REMARK    3  A    between atoms: N5_11  and  C3_13 
REMARK    4  A    between atoms: C6_17  and  C7_18 
REMARK    5  A    between atoms: C7_18  and  C8_20 
REMARK    6  A    between atoms: C9_21  and  C10_22 
ROOT
HETATM    1  C3  UNL     1      32.981  36.128  23.010  1.00  0.00     0.090 A 
HETATM    2  C4  UNL     1      33.626  35.294  22.136  1.00  0.00     0.075 A 
HETATM    3  N6  UNL     1      33.374  33.870  22.105  1.00  0.00    -0.100 NA
HETATM    4  C5  UNL     1      34.530  35.843  21.234  1.00  0.00     0.044 A 
HETATM    5  C6  UNL     1      34.829  37.175  21.150  1.00  0.00     0.017 A 
HETATM    6  C15 UNL     1      34.154  37.995  22.054  1.00  0.00     0.037 A 
HETATM    7  C16 UNL     1      33.255  37.505  22.963  1.00  0.00     0.041 A 
HETATM    8 BR1  UNL     1      32.399  38.732  24.143  1.00  0.00    -0.049 Br
ENDROOT
BRANCH   1   9
HETATM    9  N5  UNL     1      32.084  35.687  23.973  1.00  0.00    -0.187 N 
HETATM   10  C2  UNL     1      32.281  35.209  25.122  1.00  0.00     0.704 C 
HETATM   11  N1  UNL     1      33.555  35.020  25.696  1.00  0.00    -0.228 N 
HETATM   12  N2  UNL     1      31.170  34.812  25.957  1.00  0.00    -0.046 N 
HETATM   13  C1  UNL     1      33.833  33.955  26.670  1.00  0.00     0.165 C 
ATOM     14  H1  UNL     1      34.313  35.648  25.426  1.00  0.00     0.177 HD
ATOM     15  H2  UNL     1      30.805  35.454  26.660  1.00  0.00     0.223 HD
ATOM     16  H5  UNL     1      31.102  35.763  23.707  1.00  0.00     0.184 HD
BRANCH  12  17
HETATM   17  N3  UNL     1      30.661  33.685  25.819  1.00  0.00    -0.229 NA
BRANCH  17  18
HETATM   18  N4  UNL     1      30.251  32.628  25.315  1.00  0.00    -0.260 N 
ATOM     19  H42 UNL     1      29.350  32.639  25.793  1.00  0.00     0.193 HD
ATOM     20  H41 UNL     1      30.198  31.772  24.763  1.00  0.00     0.193 HD
ENDBRANCH  17  18
ENDBRANCH  12  17
ENDBRANCH   1   9
BRANCH   5  21
HETATM   21  C7  UNL     1      35.797  37.751  20.184  1.00  0.00     0.182 C 
HETATM   22  O1  UNL     1      35.428  38.814  19.663  1.00  0.00    -0.288 OA
BRANCH  21  23
HETATM   23  C8  UNL     1      37.025  37.112  19.907  1.00  0.00     0.058 C 
HETATM   24  C9  UNL     1      37.396  36.429  18.871  1.00  0.00     0.035 C 
BRANCH  24  25
HETATM   25  C10 UNL     1      36.671  36.096  17.664  1.00  0.00     0.055 A 
HETATM   26  N7  UNL     1      35.542  35.426  17.439  1.00  0.00    -0.299 N 
HETATM   27  N8  UNL     1      35.189  35.325  16.188  1.00  0.00    -0.307 N 
ATOM     28  H7  UNL     1      34.992  35.018  18.194  1.00  0.00     0.187 HD
HETATM   29  C11 UNL     1      34.024  34.666  15.603  1.00  0.00     0.177 C 
HETATM   30  C12 UNL     1      36.142  35.972  15.502  1.00  0.00     0.118 A 
HETATM   31  C13 UNL     1      37.088  36.473  16.359  1.00  0.00    -0.017 A 
HETATM   32  C14 UNL     1      38.301  37.247  16.023  1.00  0.00     0.052 C 
ENDBRANCH  24  25
ENDBRANCH  21  23
ENDBRANCH   5  21
TORSDOF 6
ENDMDL
MODEL 3
REMARK VINA RESULT: -8.528576592      2.976      4.137
REMARK  6 active torsions:
REMARK  status: ('A' for Active; 'I' for Inactive)
REMARK       I    between atoms: N1_2  and  C2_4 
REMARK       I    between atoms: C2_4  and  N2_5 
REMARK    1  A    between atoms: N2_5  and  N3_7 
REMARK    2  A    between atoms: N3_7  and  N4_8 
REMARK    3  A    between atoms: N5_11  and  C3_13 
REMARK    4  A    between atoms: C6_17  and  C7_18 
REMARK    5  A    between atoms: C7_18  and  C8_20 
REMARK    6  A    between atoms: C9_21  and  C10_22 
ROOT
HETATM    1  C3  UNL     1      32.639  36.184  23.087  1.00  0.00     0.090 A 
HETATM    2  C4  UNL     1      32.913  37.526  23.086  1.00  0.00     0.075 A 
HETATM    3  N6  UNL     1      32.285  38.440  24.014  1.00  0.00    -0.100 NA
HETATM    4  C5  UNL     1      33.847  38.015  22.179  1.00  0.00     0.044 A 
HETATM    5  C6  UNL     1      34.524  37.246  21.274  1.00  0.00     0.017 A 
HETATM    6  C15 UNL     1      34.221  35.885  21.303  1.00  0.00     0.037 A 
HETATM    7  C16 UNL     1      33.309  35.352  22.176  1.00  0.00     0.041 A 
HETATM    8 BR1  UNL     1      32.986  33.475  22.115  1.00  0.00    -0.049 Br
ENDROOT
BRANCH   1   9
HETATM    9  N5  UNL     1      31.704  35.592  23.925  1.00  0.00    -0.187 N 
HETATM   10  C2  UNL     1      31.824  35.120  25.087  1.00  0.00     0.704 C 
HETATM   11  N1  UNL     1      33.030  35.108  25.819  1.00  0.00    -0.228 N 
HETATM   12  N2  UNL     1      30.690  34.542  25.771  1.00  0.00    -0.046 N 
HETATM   13  C1  UNL     1      33.340  34.072  26.814  1.00  0.00     0.165 C 
ATOM     14  H1  UNL     1      33.713  35.846  25.650  1.00  0.00     0.177 HD
ATOM     15  H2  UNL     1      30.146  35.106  26.424  1.00  0.00     0.223 HD
ATOM     16  H5  UNL     1      30.763  35.528  23.536  1.00  0.00     0.184 HD
BRANCH  12  17
HETATM   17  N3  UNL     1      30.376  33.356  25.562  1.00  0.00    -0.229 NA
BRANCH  17  18
HETATM   18  N4  UNL     1      30.135  32.281  24.992  1.00  0.00    -0.260 N 
ATOM     19  H42 UNL     1      31.047  32.205  24.545  1.00  0.00     0.193 HD
ATOM     20  H41 UNL     1      29.659  31.439  24.670  1.00  0.00     0.193 HD
ENDBRANCH  17  18
ENDBRANCH  12  17
ENDBRANCH   1   9
BRANCH   5  21
HETATM   21  C7  UNL     1      35.518  37.778  20.309  1.00  0.00     0.182 C 
HETATM   22  O1  UNL     1      35.154  38.806  19.716  1.00  0.00    -0.288 OA
BRANCH  21  23
HETATM   23  C8  UNL     1      36.760  37.140  20.108  1.00  0.00     0.058 C 
HETATM   24  C9  UNL     1      37.197  36.460  19.095  1.00  0.00     0.035 C 
BRANCH  24  25
HETATM   25  C10 UNL     1      36.551  36.133  17.843  1.00  0.00     0.055 A 
HETATM   26  N7  UNL     1      35.403  35.525  17.545  1.00  0.00    -0.299 N 
HETATM   27  N8  UNL     1      35.145  35.405  16.273  1.00  0.00    -0.307 N 
ATOM     28  H7  UNL     1      34.770  35.177  18.265  1.00  0.00     0.187 HD
HETATM   29  C11 UNL     1      33.992  34.800  15.614  1.00  0.00     0.177 C 
HETATM   30  C12 UNL     1      36.189  35.970  15.650  1.00  0.00     0.118 A 
HETATM   31  C13 UNL     1      37.093  36.440  16.567  1.00  0.00    -0.017 A 
HETATM   32  C14 UNL     1      38.376  37.127  16.309  1.00  0.00     0.052 C 
ENDBRANCH  24  25
ENDBRANCH  21  23
ENDBRANCH   5  21
TORSDOF 6
ENDMDL
MODEL 4
REMARK VINA RESULT: -8.523309323      2.254      3.192
REMARK  6 active torsions:
REMARK  status: ('A' for Active; 'I' for Inactive)
REMARK       I    between atoms: N1_2  and  C2_4 
REMARK       I    between atoms: C2_4  and  N2_5 
REMARK    1  A    between atoms: N2_5  and  N3_7 
REMARK    2  A    between atoms: N3_7  and  N4_8 
REMARK    3  A    between atoms: N5_11  and  C3_13 
REMARK    4  A    between atoms: C6_17  and  C7_18 
REMARK    5  A    between atoms: C7_18  and  C8_20 
REMARK    6  A    between atoms: C9_21  and  C10_22 
ROOT
HETATM    1  C3  UNL     1      33.948  37.203  22.672  1.00  0.00     0.090 A 
HETATM    2  C4  UNL     1      34.941  37.770  21.919  1.00  0.00     0.075 A 
HETATM    3  N6  UNL     1      35.370  39.138  22.115  1.00  0.00    -0.100 NA
HETATM    4  C5  UNL     1      35.570  36.994  20.952  1.00  0.00     0.044 A 
HETATM    5  C6  UNL     1      35.270  35.685  20.694  1.00  0.00     0.017 A 
HETATM    6  C15 UNL     1      34.256  35.139  21.481  1.00  0.00     0.037 A 
HETATM    7  C16 UNL     1      33.603  35.861  22.445  1.00  0.00     0.041 A 
HETATM    8 BR1  UNL     1      32.235  34.999  23.452  1.00  0.00    -0.049 Br
ENDROOT
BRANCH   1   9
HETATM    9  N5  UNL     1      33.230  37.892  23.641  1.00  0.00    -0.187 N 
HETATM   10  C2  UNL     1      33.603  38.402  24.732  1.00  0.00     0.704 C 
HETATM   11  N1  UNL     1      34.928  38.371  25.212  1.00  0.00    -0.228 N 
HETATM   12  N2  UNL     1      32.658  39.079  25.591  1.00  0.00    -0.046 N 
HETATM   13  C1  UNL     1      35.249  38.370  26.646  1.00  0.00     0.165 C 
ATOM     14  H1  UNL     1      35.693  38.349  24.538  1.00  0.00     0.177 HD
ATOM     15  H2  UNL     1      32.560  40.093  25.542  1.00  0.00     0.223 HD
ATOM     16  H5  UNL     1      32.237  38.004  23.436  1.00  0.00     0.184 HD
BRANCH  12  17
HETATM   17  N3  UNL     1      31.964  38.425  26.390  1.00  0.00    -0.229 NA
BRANCH  17  18
HETATM   18  N4  UNL     1      31.564  37.861  27.420  1.00  0.00    -0.260 N 
ATOM     19  H42 UNL     1      30.824  38.536  27.615  1.00  0.00     0.193 HD
ATOM     20  H41 UNL     1      31.468  37.200  28.190  1.00  0.00     0.193 HD
ENDBRANCH  17  18
ENDBRANCH  12  17
ENDBRANCH   1   9
BRANCH   5  21
HETATM   21  C7  UNL     1      35.948  34.864  19.660  1.00  0.00     0.182 C 
HETATM   22  O1  UNL     1      35.686  33.653  19.716  1.00  0.00    -0.288 OA
BRANCH  21  23
HETATM   23  C8  UNL     1      36.811  35.449  18.709  1.00  0.00     0.058 C 
HETATM   24  C9  UNL     1      36.623  35.700  17.452  1.00  0.00     0.035 C 
BRANCH  24  25
HETATM   25  C10 UNL     1      35.468  35.460  16.615  1.00  0.00     0.055 A 
HETATM   26  N7  UNL     1      35.233  34.612  15.615  1.00  0.00    -0.299 N 
HETATM   27  N8  UNL     1      34.043  34.684  15.086  1.00  0.00    -0.307 N 
ATOM     28  H7  UNL     1      35.936  33.950  15.286  1.00  0.00     0.187 HD
HETATM   29  C11 UNL     1      33.467  33.911  13.990  1.00  0.00     0.177 C 
HETATM   30  C12 UNL     1      33.415  35.652  15.770  1.00  0.00     0.118 A 
HETATM   31  C13 UNL     1      34.244  36.170  16.730  1.00  0.00    -0.017 A 
HETATM   32  C14 UNL     1      33.951  37.248  17.699  1.00  0.00     0.052 C 
ENDBRANCH  24  25
ENDBRANCH  21  23
ENDBRANCH   5  21
TORSDOF 6
ENDMDL
MODEL 5
REMARK VINA RESULT: -8.513843182      1.397      1.903
REMARK  6 active torsions:
REMARK  status: ('A' for Active; 'I' for Inactive)
REMARK       I    between atoms: N1_2  and  C2_4 
REMARK       I    between atoms: C2_4  and  N2_5 
REMARK    1  A    between atoms: N2_5  and  N3_7 
REMARK    2  A    between atoms: N3_7  and  N4_8 
REMARK    3  A    between atoms: N5_11  and  C3_13 
REMARK    4  A    between atoms: C6_17  and  C7_18 
REMARK    5  A    between atoms: C7_18  and  C8_20 
REMARK    6  A    between atoms: C9_21  and  C10_22 
ROOT
HETATM    1  C3  UNL     1      35.028  36.908  23.731  1.00  0.00     0.090 A 
HETATM    2  C4  UNL     1      34.428  35.818  23.158  1.00  0.00     0.075 A 
HETATM    3  N6  UNL     1      33.852  34.752  23.947  1.00  0.00    -0.100 NA
HETATM    4  C5  UNL     1      34.349  35.754  21.771  1.00  0.00     0.044 A 
HETATM    5  C6  UNL     1      34.832  36.712  20.922  1.00  0.00     0.017 A 
HETATM    6  C15 UNL     1      35.435  37.807  21.541  1.00  0.00     0.037 A 
HETATM    7  C16 UNL     1      35.539  37.919  22.902  1.00  0.00     0.041 A 
HETATM    8 BR1  UNL     1      36.386  39.467  23.622  1.00  0.00    -0.049 Br
ENDROOT
BRANCH   1   9
HETATM    9  N5  UNL     1      35.191  37.062  25.102  1.00  0.00    -0.187 N 
HETATM   10  C2  UNL     1      34.339  37.211  26.019  1.00  0.00     0.704 C 
HETATM   11  N1  UNL     1      32.945  37.248  25.810  1.00  0.00    -0.228 N 
HETATM   12  N2  UNL     1      34.754  37.357  27.395  1.00  0.00    -0.046 N 
HETATM   13  C1  UNL     1      32.036  38.010  26.677  1.00  0.00     0.165 C 
ATOM     14  H1  UNL     1      32.553  36.725  25.027  1.00  0.00     0.177 HD
ATOM     15  H2  UNL     1      34.773  36.544  28.011  1.00  0.00     0.223 HD
ATOM     16  H5  UNL     1      36.160  37.054  25.419  1.00  0.00     0.184 HD
BRANCH  12  17
HETATM   17  N3  UNL     1      35.089  38.474  27.829  1.00  0.00    -0.229 NA
BRANCH  17  18
HETATM   18  N4  UNL     1      35.148  39.700  28.016  1.00  0.00    -0.260 N 
ATOM     19  H42 UNL     1      34.355  39.925  27.416  1.00  0.00     0.193 HD
ATOM     20  H41 UNL     1      35.439  40.618  28.350  1.00  0.00     0.193 HD
ENDBRANCH  17  18
ENDBRANCH  12  17
ENDBRANCH   1   9
BRANCH   5  21
HETATM   21  C7  UNL     1      34.744  36.633  19.443  1.00  0.00     0.182 C 
HETATM   22  O1  UNL     1      34.427  37.699  18.892  1.00  0.00    -0.288 OA
BRANCH  21  23
HETATM   23  C8  UNL     1      35.005  35.428  18.756  1.00  0.00     0.058 C 
HETATM   24  C9  UNL     1      35.806  35.187  17.767  1.00  0.00     0.035 C 
BRANCH  24  25
HETATM   25  C10 UNL     1      36.692  36.075  17.046  1.00  0.00     0.055 A 
HETATM   26  N7  UNL     1      36.727  36.491  15.781  1.00  0.00    -0.299 N 
HETATM   27  N8  UNL     1      37.697  37.311  15.486  1.00  0.00    -0.307 N 
ATOM     28  H7  UNL     1      36.041  36.189  15.089  1.00  0.00     0.187 HD
HETATM   29  C11 UNL     1      38.020  37.946  14.212  1.00  0.00     0.177 C 
HETATM   30  C12 UNL     1      38.380  37.470  16.629  1.00  0.00     0.118 A 
HETATM   31  C13 UNL     1      37.807  36.731  17.632  1.00  0.00    -0.017 A 
HETATM   32  C14 UNL     1      38.240  36.621  19.041  1.00  0.00     0.052 C 
ENDBRANCH  24  25
ENDBRANCH  21  23
ENDBRANCH   5  21
TORSDOF 6
ENDMDL
