MODEL 1
REMARK VINA RESULT: -5.953524800      0.000      0.000
REMARK  1 active torsions:
REMARK  status: ('A' for Active; 'I' for Inactive)
REMARK    1  A    between atoms: C2_2  and  C4_4 
ROOT
HETATM    1  C4  UNL     1      33.586   1.873  55.741  1.00  0.00     0.019 C 
HETATM    2  C5  UNL     1      35.070   1.692  56.097  1.00  0.00     0.020 C 
HETATM    3  C6  UNL     1      35.293   0.172  56.067  1.00  0.00     0.070 C 
HETATM    4  C7  UNL     1      36.250  -0.156  54.913  1.00  0.00     0.245 C 
HETATM    5  C8  UNL     1      37.607   0.036  55.482  1.00  0.00     0.114 C 
HETATM    6  N1  UNL     1      38.665   0.167  55.931  1.00  0.00    -0.193 NA
HETATM    7  C9  UNL     1      36.123   0.782  53.819  1.00  0.00     0.114 C 
HETATM    8  N2  UNL     1      36.020   1.561  52.941  1.00  0.00    -0.193 NA
HETATM    9  O1  UNL     1      36.169  -1.460  54.509  1.00  0.00    -0.323 OA
HETATM   10  C10 UNL     1      35.185  -1.715  53.566  1.00  0.00     0.284 C 
HETATM   11 CL1  UNL     1      35.680  -1.498  51.912  1.00  0.00    -0.084 Cl
HETATM   12  S1  UNL     1      33.763  -0.643  54.022  1.00  0.00    -0.111 SA
HETATM   13  C11 UNL     1      33.992  -0.385  55.791  1.00  0.00     0.024 C 
HETATM   14  C12 UNL     1      33.463  -1.534  56.533  1.00  0.00     0.021 C 
HETATM   15  C13 UNL     1      31.953  -1.378  56.274  1.00  0.00     0.002 C 
HETATM   16  C14 UNL     1      31.764   0.099  55.875  1.00  0.00     0.007 C 
HETATM   17  C15 UNL     1      33.021   0.678  56.342  1.00  0.00     0.013 C 
ENDROOT
BRANCH   1  18
HETATM   18  C2  UNL     1      33.128   3.087  56.471  1.00  0.00    -0.088 C 
HETATM   19  C1  UNL     1      33.929   3.901  57.130  1.00  0.00     0.014 C 
HETATM   20  C3  UNL     1      31.661   3.398  56.448  1.00  0.00     0.043 C 
ENDBRANCH   1  18
TORSDOF 1
ENDMDL
MODEL 2
REMARK VINA RESULT: -5.652124864      3.141      4.482
REMARK  1 active torsions:
REMARK  status: ('A' for Active; 'I' for Inactive)
REMARK    1  A    between atoms: C2_2  and  C4_4 
ROOT
HETATM    1  C4  UNL     1      31.013   1.811  56.493  1.00  0.00     0.019 C 
HETATM    2  C5  UNL     1      31.254   0.777  55.381  1.00  0.00     0.020 C 
HETATM    3  C6  UNL     1      32.775   0.560  55.378  1.00  0.00     0.070 C 
HETATM    4  C7  UNL     1      33.062  -0.882  55.819  1.00  0.00     0.245 C 
HETATM    5  C8  UNL     1      32.939  -1.687  54.579  1.00  0.00     0.114 C 
HETATM    6  N1  UNL     1      32.862  -2.312  53.608  1.00  0.00    -0.193 NA
HETATM    7  C9  UNL     1      32.058  -1.378  56.736  1.00  0.00     0.114 C 
HETATM    8  N2  UNL     1      31.227  -1.776  57.470  1.00  0.00    -0.193 NA
HETATM    9  O1  UNL     1      34.337  -1.054  56.280  1.00  0.00    -0.323 OA
HETATM   10  C10 UNL     1      34.510  -0.767  57.626  1.00  0.00     0.284 C 
HETATM   11 CL1  UNL     1      34.211  -2.100  58.705  1.00  0.00    -0.084 Cl
HETATM   12  S1  UNL     1      33.429   0.678  57.975  1.00  0.00    -0.111 SA
HETATM   13  C11 UNL     1      33.281   1.478  56.367  1.00  0.00     0.024 C 
HETATM   14  C12 UNL     1      34.456   2.320  56.121  1.00  0.00     0.021 C 
HETATM   15  C13 UNL     1      34.244   3.429  57.169  1.00  0.00     0.002 C 
HETATM   16  C14 UNL     1      32.743   3.378  57.511  1.00  0.00     0.007 C 
HETATM   17  C15 UNL     1      32.225   2.603  56.387  1.00  0.00     0.013 C 
ENDROOT
BRANCH   1  18
HETATM   18  C2  UNL     1      29.832   2.610  56.069  1.00  0.00    -0.088 C 
HETATM   19  C1  UNL     1      29.227   2.479  54.904  1.00  0.00     0.014 C 
HETATM   20  C3  UNL     1      29.300   3.627  57.034  1.00  0.00     0.043 C 
ENDBRANCH   1  18
TORSDOF 1
ENDMDL
MODEL 3
REMARK VINA RESULT: -5.448209534      0.767      1.091
REMARK  1 active torsions:
REMARK  status: ('A' for Active; 'I' for Inactive)
REMARK    1  A    between atoms: C2_2  and  C4_4 
ROOT
HETATM    1  C4  UNL     1      32.875   1.200  55.632  1.00  0.00     0.019 C 
HETATM    2  C5  UNL     1      34.327   1.334  56.117  1.00  0.00     0.020 C 
HETATM    3  C6  UNL     1      34.856  -0.108  56.157  1.00  0.00     0.070 C 
HETATM    4  C7  UNL     1      35.958  -0.251  55.099  1.00  0.00     0.245 C 
HETATM    5  C8  UNL     1      37.192   0.226  55.772  1.00  0.00     0.114 C 
HETATM    6  N1  UNL     1      38.157   0.579  56.303  1.00  0.00    -0.193 NA
HETATM    7  C9  UNL     1      35.741   0.623  53.966  1.00  0.00     0.114 C 
HETATM    8  N2  UNL     1      35.560   1.350  53.057  1.00  0.00    -0.193 NA
HETATM    9  O1  UNL     1      36.181  -1.550  54.734  1.00  0.00    -0.323 OA
HETATM   10  C10 UNL     1      35.357  -2.017  53.722  1.00  0.00     0.284 C 
HETATM   11 CL1  UNL     1      35.942  -1.730  52.108  1.00  0.00    -0.084 Cl
HETATM   12  S1  UNL     1      33.712  -1.254  54.020  1.00  0.00    -0.111 SA
HETATM   13  C11 UNL     1      33.726  -0.925  55.792  1.00  0.00     0.024 C 
HETATM   14  C12 UNL     1      33.378  -2.145  56.526  1.00  0.00     0.021 C 
HETATM   15  C13 UNL     1      31.897  -2.308  56.137  1.00  0.00     0.002 C 
HETATM   16  C14 UNL     1      31.448  -0.908  55.674  1.00  0.00     0.007 C 
HETATM   17  C15 UNL     1      32.514  -0.075  56.224  1.00  0.00     0.013 C 
ENDROOT
BRANCH   1  18
HETATM   18  C2  UNL     1      32.117   2.306  56.279  1.00  0.00    -0.088 C 
HETATM   19  C1  UNL     1      30.908   2.687  55.916  1.00  0.00     0.014 C 
HETATM   20  C3  UNL     1      32.778   3.026  57.416  1.00  0.00     0.043 C 
ENDBRANCH   1  18
TORSDOF 1
ENDMDL
MODEL 4
REMARK VINA RESULT: -5.404955825      3.172      4.359
REMARK  1 active torsions:
REMARK  status: ('A' for Active; 'I' for Inactive)
REMARK    1  A    between atoms: C2_2  and  C4_4 
ROOT
HETATM    1  C4  UNL     1      32.291   1.178  56.713  1.00  0.00     0.019 C 
HETATM    2  C5  UNL     1      31.729   0.132  55.737  1.00  0.00     0.020 C 
HETATM    3  C6  UNL     1      32.964  -0.635  55.238  1.00  0.00     0.070 C 
HETATM    4  C7  UNL     1      32.875  -2.081  55.744  1.00  0.00     0.245 C 
HETATM    5  C8  UNL     1      32.030  -2.780  54.744  1.00  0.00     0.114 C 
HETATM    6  N1  UNL     1      31.388  -3.328  53.953  1.00  0.00    -0.193 NA
HETATM    7  C9  UNL     1      32.178  -2.171  57.009  1.00  0.00     0.114 C 
HETATM    8  N2  UNL     1      31.596  -2.233  58.032  1.00  0.00    -0.193 NA
HETATM    9  O1  UNL     1      34.085  -2.716  55.756  1.00  0.00    -0.323 OA
HETATM   10  C10 UNL     1      34.832  -2.518  56.907  1.00  0.00     0.284 C 
HETATM   11 CL1  UNL     1      34.513  -3.647  58.193  1.00  0.00    -0.084 Cl
HETATM   12  S1  UNL     1      34.530  -0.776  57.409  1.00  0.00    -0.111 SA
HETATM   13  C11 UNL     1      34.084   0.027  55.859  1.00  0.00     0.024 C 
HETATM   14  C12 UNL     1      35.296   0.372  55.111  1.00  0.00     0.021 C 
HETATM   15  C13 UNL     1      35.887   1.478  56.007  1.00  0.00     0.002 C 
HETATM   16  C14 UNL     1      34.701   1.987  56.849  1.00  0.00     0.007 C 
HETATM   17  C15 UNL     1      33.571   1.463  56.089  1.00  0.00     0.013 C 
ENDROOT
BRANCH   1  18
HETATM   18  C2  UNL     1      31.392   2.361  56.618  1.00  0.00    -0.088 C 
HETATM   19  C1  UNL     1      31.426   3.386  57.446  1.00  0.00     0.014 C 
HETATM   20  C3  UNL     1      30.387   2.380  55.505  1.00  0.00     0.043 C 
ENDBRANCH   1  18
TORSDOF 1
ENDMDL
MODEL 5
REMARK VINA RESULT: -5.345556580      2.668      4.741
REMARK  1 active torsions:
REMARK  status: ('A' for Active; 'I' for Inactive)
REMARK    1  A    between atoms: C2_2  and  C4_4 
ROOT
HETATM    1  C4  UNL     1      35.719  -0.692  51.735  1.00  0.00     0.019 C 
HETATM    2  C5  UNL     1      35.258   0.468  52.633  1.00  0.00     0.020 C 
HETATM    3  C6  UNL     1      34.473  -0.210  53.767  1.00  0.00     0.070 C 
HETATM    4  C7  UNL     1      35.237  -0.001  55.081  1.00  0.00     0.245 C 
HETATM    5  C8  UNL     1      34.798   1.331  55.566  1.00  0.00     0.114 C 
HETATM    6  N1  UNL     1      34.440   2.360  55.953  1.00  0.00    -0.193 NA
HETATM    7  C9  UNL     1      36.666   0.086  54.869  1.00  0.00     0.114 C 
HETATM    8  N2  UNL     1      37.826   0.170  54.682  1.00  0.00    -0.193 NA
HETATM    9  O1  UNL     1      34.896  -0.908  56.045  1.00  0.00    -0.323 OA
HETATM   10  C10 UNL     1      35.604  -2.099  55.997  1.00  0.00     0.284 C 
HETATM   11 CL1  UNL     1      37.101  -2.100  56.885  1.00  0.00    -0.084 Cl
HETATM   12  S1  UNL     1      35.844  -2.470  54.213  1.00  0.00    -0.111 SA
HETATM   13  C11 UNL     1      34.469  -1.611  53.426  1.00  0.00     0.024 C 
HETATM   14  C12 UNL     1      33.257  -2.430  53.512  1.00  0.00     0.021 C 
HETATM   15  C13 UNL     1      33.624  -3.594  52.572  1.00  0.00     0.002 C 
HETATM   16  C14 UNL     1      34.749  -3.045  51.673  1.00  0.00     0.007 C 
HETATM   17  C15 UNL     1      34.604  -1.608  51.890  1.00  0.00     0.013 C 
ENDROOT
BRANCH   1  18
HETATM   18  C2  UNL     1      35.760  -0.152  50.349  1.00  0.00    -0.088 C 
HETATM   19  C1  UNL     1      34.819   0.604  49.819  1.00  0.00     0.014 C 
HETATM   20  C3  UNL     1      36.954  -0.494  49.507  1.00  0.00     0.043 C 
ENDBRANCH   1  18
TORSDOF 1
ENDMDL
