MODEL 1
REMARK VINA RESULT: -6.112663251      0.000      0.000
REMARK  1 active torsions:
REMARK  status: ('A' for Active; 'I' for Inactive)
REMARK    1  A    between atoms: C7_13  and  C8_14 
ROOT
HETATM    1  N1  UNL     1      33.542  -2.835  55.192  1.00  0.00    -0.191 NA
HETATM    2  C1  UNL     1      33.607  -1.697  55.495  1.00  0.00     0.105 C 
HETATM    3  C2  UNL     1      33.703  -0.272  55.853  1.00  0.00     0.111 A 
HETATM    4  C3  UNL     1      32.584   0.474  55.942  1.00  0.00     0.130 A 
HETATM    5 CL1  UNL     1      31.067  -0.406  55.657  1.00  0.00    -0.062 Cl
HETATM    6  N2  UNL     1      32.487   1.808  56.259  1.00  0.00    -0.319 N 
HETATM    7  C4  UNL     1      33.619   2.499  56.528  1.00  0.00     0.117 A 
HETATM    8  S1  UNL     1      35.158   1.755  56.473  1.00  0.00    -0.052 SA
HETATM    9  C5  UNL     1      35.009   0.114  56.056  1.00  0.00     0.098 A 
HETATM   10  S2  UNL     1      36.313  -0.847  55.929  1.00  0.00    -0.070 SA
HETATM   11  S3  UNL     1      33.183   4.201  57.036  1.00  0.00    -0.102 SA
HETATM   12  C6  UNL     1      31.499   3.565  57.573  1.00  0.00     0.107 C 
HETATM   13  C7  UNL     1      31.381   2.682  56.316  1.00  0.00     0.106 C 
ENDROOT
BRANCH  13  14
HETATM   14  C8  UNL     1      29.996   2.260  56.159  1.00  0.00     0.010 C 
HETATM   15  C9  UNL     1      29.112   3.391  56.780  1.00  0.00     0.007 C 
HETATM   16  C10 UNL     1      28.075   3.154  55.700  1.00  0.00     0.001 C 
HETATM   17  C11 UNL     1      29.266   2.615  54.868  1.00  0.00     0.007 C 
ENDBRANCH  13  14
TORSDOF 1
ENDMDL
MODEL 2
REMARK VINA RESULT: -6.097776459      2.812      4.168
REMARK  1 active torsions:
REMARK  status: ('A' for Active; 'I' for Inactive)
REMARK    1  A    between atoms: C7_13  and  C8_14 
ROOT
HETATM    1  N1  UNL     1      36.557   5.582  58.383  1.00  0.00    -0.191 NA
HETATM    2  C1  UNL     1      36.035   4.549  58.155  1.00  0.00     0.105 C 
HETATM    3  C2  UNL     1      35.387   3.252  57.895  1.00  0.00     0.111 A 
HETATM    4  C3  UNL     1      34.122   3.217  57.429  1.00  0.00     0.130 A 
HETATM    5 CL1  UNL     1      33.386   4.805  57.124  1.00  0.00    -0.062 Cl
HETATM    6  N2  UNL     1      33.367   2.106  57.135  1.00  0.00    -0.319 N 
HETATM    7  C4  UNL     1      33.912   0.880  57.311  1.00  0.00     0.117 A 
HETATM    8  S1  UNL     1      35.507   0.684  57.896  1.00  0.00    -0.052 SA
HETATM    9  C5  UNL     1      36.224   2.198  58.186  1.00  0.00     0.098 A 
HETATM   10  S2  UNL     1      37.743   2.320  58.748  1.00  0.00    -0.070 SA
HETATM   11  S3  UNL     1      32.737  -0.394  56.727  1.00  0.00    -0.102 SA
HETATM   12  C6  UNL     1      31.962   0.896  55.602  1.00  0.00     0.107 C 
HETATM   13  C7  UNL     1      32.030   1.967  56.707  1.00  0.00     0.106 C 
ENDROOT
BRANCH  13  14
HETATM   14  C8  UNL     1      31.166   3.082  56.344  1.00  0.00     0.010 C 
HETATM   15  C9  UNL     1      29.851   2.459  55.772  1.00  0.00     0.007 C 
HETATM   16  C10 UNL     1      29.058   3.583  56.409  1.00  0.00     0.001 C 
HETATM   17  C11 UNL     1      30.242   3.667  57.406  1.00  0.00     0.007 C 
ENDBRANCH  13  14
TORSDOF 1
ENDMDL
MODEL 3
REMARK VINA RESULT: -5.535334738      1.357      1.583
REMARK  1 active torsions:
REMARK  status: ('A' for Active; 'I' for Inactive)
REMARK    1  A    between atoms: C7_13  and  C8_14 
ROOT
HETATM    1  N1  UNL     1      31.770  -3.445  54.109  1.00  0.00    -0.191 NA
HETATM    2  C1  UNL     1      32.308  -2.471  54.499  1.00  0.00     0.105 C 
HETATM    3  C2  UNL     1      32.992  -1.252  54.963  1.00  0.00     0.111 A 
HETATM    4  C3  UNL     1      32.271  -0.225  55.455  1.00  0.00     0.130 A 
HETATM    5 CL1  UNL     1      30.518  -0.505  55.536  1.00  0.00    -0.062 Cl
HETATM    6  N2  UNL     1      32.738   0.979  55.927  1.00  0.00    -0.319 N 
HETATM    7  C4  UNL     1      34.071   1.209  55.924  1.00  0.00     0.117 A 
HETATM    8  S1  UNL     1      35.180   0.045  55.341  1.00  0.00    -0.052 SA
HETATM    9  C5  UNL     1      34.358  -1.347  54.814  1.00  0.00     0.098 A 
HETATM   10  S2  UNL     1      35.159  -2.623  54.208  1.00  0.00    -0.070 SA
HETATM   11  S3  UNL     1      34.408   2.823  56.716  1.00  0.00    -0.102 SA
HETATM   12  C6  UNL     1      32.789   2.656  57.653  1.00  0.00     0.107 C 
HETATM   13  C7  UNL     1      32.066   2.127  56.399  1.00  0.00     0.106 C 
ENDROOT
BRANCH  13  14
HETATM   14  C8  UNL     1      30.627   2.204  56.611  1.00  0.00     0.010 C 
HETATM   15  C9  UNL     1      30.365   3.518  57.418  1.00  0.00     0.007 C 
HETATM   16  C10 UNL     1      29.077   3.718  56.646  1.00  0.00     0.001 C 
HETATM   17  C11 UNL     1      29.766   2.873  55.545  1.00  0.00     0.007 C 
ENDBRANCH  13  14
TORSDOF 1
ENDMDL
MODEL 4
REMARK VINA RESULT: -4.804707888      4.225      7.049
REMARK  1 active torsions:
REMARK  status: ('A' for Active; 'I' for Inactive)
REMARK    1  A    between atoms: C7_13  and  C8_14 
ROOT
HETATM    1  N1  UNL     1      36.228   1.563  52.493  1.00  0.00    -0.191 NA
HETATM    2  C1  UNL     1      35.558   0.726  52.984  1.00  0.00     0.105 C 
HETATM    3  C2  UNL     1      34.703  -0.301  53.603  1.00  0.00     0.111 A 
HETATM    4  C3  UNL     1      34.356  -1.397  52.899  1.00  0.00     0.130 A 
HETATM    5 CL1  UNL     1      35.048  -1.495  51.265  1.00  0.00    -0.062 Cl
HETATM    6  N2  UNL     1      33.571  -2.447  53.313  1.00  0.00    -0.319 N 
HETATM    7  C4  UNL     1      33.065  -2.430  54.568  1.00  0.00     0.117 A 
HETATM    8  S1  UNL     1      33.373  -1.133  55.640  1.00  0.00    -0.052 SA
HETATM    9  C5  UNL     1      34.360   0.032  54.894  1.00  0.00     0.098 A 
HETATM   10  S2  UNL     1      34.817   1.380  55.679  1.00  0.00    -0.070 SA
HETATM   11  S3  UNL     1      32.173  -3.995  54.882  1.00  0.00    -0.102 SA
HETATM   12  C6  UNL     1      33.234  -4.817  53.568  1.00  0.00     0.107 C 
HETATM   13  C7  UNL     1      33.106  -3.595  52.637  1.00  0.00     0.106 C 
ENDROOT
BRANCH  13  14
HETATM   14  C8  UNL     1      33.517  -3.976  51.292  1.00  0.00     0.010 C 
HETATM   15  C9  UNL     1      34.614  -5.078  51.458  1.00  0.00     0.007 C 
HETATM   16  C10 UNL     1      34.080  -5.776  50.223  1.00  0.00     0.001 C 
HETATM   17  C11 UNL     1      32.743  -5.077  50.576  1.00  0.00     0.007 C 
ENDBRANCH  13  14
TORSDOF 1
ENDMDL
MODEL 5
REMARK VINA RESULT: -4.739607021      2.714      3.808
REMARK  1 active torsions:
REMARK  status: ('A' for Active; 'I' for Inactive)
REMARK    1  A    between atoms: C7_13  and  C8_14 
ROOT
HETATM    1  N1  UNL     1      37.766   2.962  58.495  1.00  0.00    -0.191 NA
HETATM    2  C1  UNL     1      36.921   2.211  58.160  1.00  0.00     0.105 C 
HETATM    3  C2  UNL     1      35.868   1.260  57.765  1.00  0.00     0.111 A 
HETATM    4  C3  UNL     1      34.649   1.717  57.416  1.00  0.00     0.130 A 
HETATM    5 CL1  UNL     1      34.476   3.485  57.425  1.00  0.00    -0.062 Cl
HETATM    6  N2  UNL     1      33.556   0.980  57.025  1.00  0.00    -0.319 N 
HETATM    7  C4  UNL     1      33.666  -0.367  56.962  1.00  0.00     0.117 A 
HETATM    8  S1  UNL     1      35.123  -1.168  57.363  1.00  0.00    -0.052 SA
HETATM    9  C5  UNL     1      36.314  -0.042  57.815  1.00  0.00     0.098 A 
HETATM   10  S2  UNL     1      37.805  -0.518  58.249  1.00  0.00    -0.070 SA
HETATM   11  S3  UNL     1      32.113  -1.070  56.299  1.00  0.00    -0.102 SA
HETATM   12  C6  UNL     1      31.775   0.576  55.458  1.00  0.00     0.107 C 
HETATM   13  C7  UNL     1      32.235   1.358  56.704  1.00  0.00     0.106 C 
ENDROOT
BRANCH  13  14
HETATM   14  C8  UNL     1      31.782   2.738  56.594  1.00  0.00     0.010 C 
HETATM   15  C9  UNL     1      30.345   2.687  55.981  1.00  0.00     0.007 C 
HETATM   16  C10 UNL     1      29.947   3.862  56.852  1.00  0.00     0.001 C 
HETATM   17  C11 UNL     1      31.080   3.373  57.789  1.00  0.00     0.007 C 
ENDBRANCH  13  14
TORSDOF 1
ENDMDL
