MODEL 1
REMARK VINA RESULT: -8.636496571      0.000      0.000
REMARK  6 active torsions:
REMARK  status: ('A' for Active; 'I' for Inactive)
REMARK    1  A    between atoms: C2_2  and  C3_3 
REMARK    2  A    between atoms: C2_2  and  C9_13 
REMARK    3  A    between atoms: C3_3  and  N1_4 
REMARK       I    between atoms: N1_4  and  C4_6 
REMARK    4  A    between atoms: C4_6  and  C5_8 
REMARK    5  A    between atoms: C15_20  and  C16_21 
REMARK    6  A    between atoms: C16_21  and  C17_23 
ROOT
HETATM    1  C9  UNL     1      34.665  38.115  22.646  1.00  0.00    -0.001 C 
HETATM    2  C10 UNL     1      35.848  37.196  22.615  1.00  0.00     0.006 C 
HETATM    3  C11 UNL     1      35.922  36.539  23.985  1.00  0.00     0.006 C 
HETATM    4  C12 UNL     1      34.562  36.816  24.629  1.00  0.00     0.006 C 
HETATM    5  C13 UNL     1      33.631  35.746  24.215  1.00  0.00     0.066 C 
HETATM    6  C14 UNL     1      33.602  34.724  25.314  1.00  0.00     0.143 C 
HETATM    7  O3  UNL     1      34.559  34.204  25.857  1.00  0.00    -0.297 OA
HETATM    8  C15 UNL     1      32.203  34.423  25.660  1.00  0.00     0.135 C 
HETATM    9  C18 UNL     1      31.393  35.063  24.561  1.00  0.00     0.026 C 
HETATM   10  C19 UNL     1      32.235  36.148  23.968  1.00  0.00     0.006 C 
HETATM   11  C20 UNL     1      31.870  37.499  24.518  1.00  0.00    -0.043 C 
HETATM   12  C21 UNL     1      31.606  37.463  26.015  1.00  0.00     0.015 C 
HETATM   13  C22 UNL     1      30.520  37.858  23.874  1.00  0.00     0.015 C 
HETATM   14  C23 UNL     1      32.824  38.578  24.187  1.00  0.00     0.019 C 
HETATM   15  C24 UNL     1      34.257  38.193  24.068  1.00  0.00    -0.035 C 
HETATM   16  C25 UNL     1      35.068  39.125  24.936  1.00  0.00     0.016 C 
ENDROOT
BRANCH   1  17
HETATM   17  C2  UNL     1      34.740  39.339  21.836  1.00  0.00     0.004 C 
HETATM   18  C1  UNL     1      33.305  39.675  21.360  1.00  0.00     0.012 C 
BRANCH  17  19
HETATM   19  C3  UNL     1      35.533  39.266  20.557  1.00  0.00     0.127 C 
BRANCH  19  20
HETATM   20  N1  UNL     1      34.705  38.509  19.603  1.00  0.00    -0.360 N 
HETATM   21  C4  UNL     1      35.284  37.398  18.901  1.00  0.00     0.224 C 
HETATM   22  O1  UNL     1      36.484  37.100  19.120  1.00  0.00    -0.273 OA
ATOM     23  H1  UNL     1      33.732  38.771  19.442  1.00  0.00     0.162 HD
BRANCH  21  24
HETATM   24  C5  UNL     1      34.512  36.598  17.932  1.00  0.00     0.103 C 
HETATM   25  C6  UNL     1      34.229  35.202  18.427  1.00  0.00     0.042 C 
HETATM   26  C7  UNL     1      34.578  34.353  17.225  1.00  0.00     0.168 C 
HETATM   27  O2  UNL     1      35.741  35.009  16.771  1.00  0.00    -0.390 OA
HETATM   28  C8  UNL     1      35.335  36.340  16.694  1.00  0.00     0.181 C 
ENDBRANCH  21  24
ENDBRANCH  19  20
ENDBRANCH  17  19
ENDBRANCH   1  17
BRANCH   8  29
HETATM   29  C16 UNL     1      32.013  32.982  25.786  1.00  0.00     0.243 C 
HETATM   30  O4  UNL     1      31.915  32.492  26.911  1.00  0.00    -0.287 OA
BRANCH  29  31
HETATM   31  C17 UNL     1      31.927  32.034  24.643  1.00  0.00     0.451 C 
HETATM   32  F1  UNL     1      32.128  30.759  25.187  1.00  0.00    -0.163 F 
HETATM   33  F2  UNL     1      32.811  32.304  23.645  1.00  0.00    -0.163 F 
HETATM   34  F3  UNL     1      30.658  32.008  24.102  1.00  0.00    -0.163 F 
ENDBRANCH  29  31
ENDBRANCH   8  29
TORSDOF 6
ENDMDL
MODEL 2
REMARK VINA RESULT: -8.627301387      4.294      8.273
REMARK  6 active torsions:
REMARK  status: ('A' for Active; 'I' for Inactive)
REMARK    1  A    between atoms: C2_2  and  C3_3 
REMARK    2  A    between atoms: C2_2  and  C9_13 
REMARK    3  A    between atoms: C3_3  and  N1_4 
REMARK       I    between atoms: N1_4  and  C4_6 
REMARK    4  A    between atoms: C4_6  and  C5_8 
REMARK    5  A    between atoms: C15_20  and  C16_21 
REMARK    6  A    between atoms: C16_21  and  C17_23 
ROOT
HETATM    1  C9  UNL     1      34.857  38.069  25.102  1.00  0.00    -0.001 C 
HETATM    2  C10 UNL     1      34.956  36.606  25.409  1.00  0.00     0.006 C 
HETATM    3  C11 UNL     1      34.220  35.878  24.295  1.00  0.00     0.006 C 
HETATM    4  C12 UNL     1      34.048  36.921  23.189  1.00  0.00     0.006 C 
HETATM    5  C13 UNL     1      35.259  36.898  22.343  1.00  0.00     0.066 C 
HETATM    6  C14 UNL     1      34.962  36.033  21.153  1.00  0.00     0.143 C 
HETATM    7  O3  UNL     1      34.485  34.914  21.162  1.00  0.00    -0.297 OA
HETATM    8  C15 UNL     1      35.341  36.750  19.925  1.00  0.00     0.135 C 
HETATM    9  C18 UNL     1      36.133  37.938  20.407  1.00  0.00     0.026 C 
HETATM   10  C19 UNL     1      35.723  38.197  21.822  1.00  0.00     0.006 C 
HETATM   11  C20 UNL     1      34.709  39.303  21.916  1.00  0.00    -0.043 C 
HETATM   12  C21 UNL     1      33.662  39.223  20.815  1.00  0.00     0.015 C 
HETATM   13  C22 UNL     1      35.485  40.602  21.645  1.00  0.00     0.015 C 
HETATM   14  C23 UNL     1      34.060  39.436  23.236  1.00  0.00     0.019 C 
HETATM   15  C24 UNL     1      33.858  38.182  24.013  1.00  0.00    -0.035 C 
HETATM   16  C25 UNL     1      32.410  38.120  24.438  1.00  0.00     0.016 C 
ENDROOT
BRANCH   1  17
HETATM   17  C2  UNL     1      34.808  38.997  26.241  1.00  0.00     0.004 C 
HETATM   18  C1  UNL     1      36.180  39.709  26.325  1.00  0.00     0.012 C 
BRANCH  17  19
HETATM   19  C3  UNL     1      34.633  38.391  27.609  1.00  0.00     0.127 C 
BRANCH  19  20
HETATM   20  N1  UNL     1      35.051  39.426  28.572  1.00  0.00    -0.360 N 
HETATM   21  C4  UNL     1      35.802  39.040  29.733  1.00  0.00     0.224 C 
HETATM   22  O1  UNL     1      36.084  37.828  29.899  1.00  0.00    -0.273 OA
ATOM     23  H1  UNL     1      34.809  40.405  28.415  1.00  0.00     0.162 HD
BRANCH  21  24
HETATM   24  C5  UNL     1      36.250  40.024  30.736  1.00  0.00     0.103 C 
HETATM   25  C6  UNL     1      35.101  40.734  31.406  1.00  0.00     0.042 C 
HETATM   26  C7  UNL     1      35.540  42.181  31.361  1.00  0.00     0.168 C 
HETATM   27  O2  UNL     1      36.104  42.242  30.069  1.00  0.00    -0.390 OA
HETATM   28  C8  UNL     1      36.981  41.160  30.063  1.00  0.00     0.181 C 
ENDBRANCH  21  24
ENDBRANCH  19  20
ENDBRANCH  17  19
ENDBRANCH   1  17
BRANCH   8  29
HETATM   29  C16 UNL     1      36.074  35.862  19.028  1.00  0.00     0.243 C 
HETATM   30  O4  UNL     1      37.233  35.560  19.307  1.00  0.00    -0.287 OA
BRANCH  29  31
HETATM   31  C17 UNL     1      35.523  35.279  17.775  1.00  0.00     0.451 C 
HETATM   32  F1  UNL     1      34.508  36.151  17.361  1.00  0.00    -0.163 F 
HETATM   33  F2  UNL     1      35.068  34.005  17.923  1.00  0.00    -0.163 F 
HETATM   34  F3  UNL     1      36.457  35.290  16.759  1.00  0.00    -0.163 F 
ENDBRANCH  29  31
ENDBRANCH   8  29
TORSDOF 6
ENDMDL
MODEL 3
REMARK VINA RESULT: -8.603064108      4.304      8.299
REMARK  6 active torsions:
REMARK  status: ('A' for Active; 'I' for Inactive)
REMARK    1  A    between atoms: C2_2  and  C3_3 
REMARK    2  A    between atoms: C2_2  and  C9_13 
REMARK    3  A    between atoms: C3_3  and  N1_4 
REMARK       I    between atoms: N1_4  and  C4_6 
REMARK    4  A    between atoms: C4_6  and  C5_8 
REMARK    5  A    between atoms: C15_20  and  C16_21 
REMARK    6  A    between atoms: C16_21  and  C17_23 
ROOT
HETATM    1  C9  UNL     1      34.887  38.007  25.137  1.00  0.00    -0.001 C 
HETATM    2  C10 UNL     1      35.013  36.540  25.418  1.00  0.00     0.006 C 
HETATM    3  C11 UNL     1      34.282  35.820  24.295  1.00  0.00     0.006 C 
HETATM    4  C12 UNL     1      34.087  36.879  23.208  1.00  0.00     0.006 C 
HETATM    5  C13 UNL     1      35.292  36.891  22.355  1.00  0.00     0.066 C 
HETATM    6  C14 UNL     1      35.003  36.042  21.152  1.00  0.00     0.143 C 
HETATM    7  O3  UNL     1      34.545  34.915  21.144  1.00  0.00    -0.297 OA
HETATM    8  C15 UNL     1      35.363  36.787  19.934  1.00  0.00     0.135 C 
HETATM    9  C18 UNL     1      36.137  37.980  20.433  1.00  0.00     0.026 C 
HETATM   10  C19 UNL     1      35.732  38.207  21.855  1.00  0.00     0.006 C 
HETATM   11  C20 UNL     1      34.699  39.293  21.973  1.00  0.00    -0.043 C 
HETATM   12  C21 UNL     1      33.648  39.215  20.878  1.00  0.00     0.015 C 
HETATM   13  C22 UNL     1      35.452  40.610  21.722  1.00  0.00     0.015 C 
HETATM   14  C23 UNL     1      34.056  39.392  23.300  1.00  0.00     0.019 C 
HETATM   15  C24 UNL     1      33.880  38.121  24.056  1.00  0.00    -0.035 C 
HETATM   16  C25 UNL     1      32.436  38.028  24.488  1.00  0.00     0.016 C 
ENDROOT
BRANCH   1  17
HETATM   17  C2  UNL     1      34.829  38.913  26.292  1.00  0.00     0.004 C 
HETATM   18  C1  UNL     1      36.156  39.710  26.330  1.00  0.00     0.012 C 
BRANCH  17  19
HETATM   19  C3  UNL     1      34.752  38.279  27.656  1.00  0.00     0.127 C 
BRANCH  19  20
HETATM   20  N1  UNL     1      35.315  39.262  28.598  1.00  0.00    -0.360 N 
HETATM   21  C4  UNL     1      35.968  38.797  29.789  1.00  0.00     0.224 C 
HETATM   22  O1  UNL     1      36.042  37.561  29.998  1.00  0.00    -0.273 OA
ATOM     23  H1  UNL     1      35.241  40.261  28.407  1.00  0.00     0.162 HD
BRANCH  21  24
HETATM   24  C5  UNL     1      36.552  39.726  30.773  1.00  0.00     0.103 C 
HETATM   25  C6  UNL     1      37.425  40.776  30.133  1.00  0.00     0.042 C 
HETATM   26  C7  UNL     1      38.653  40.762  31.017  1.00  0.00     0.168 C 
HETATM   27  O2  UNL     1      38.798  39.377  31.241  1.00  0.00    -0.390 OA
HETATM   28  C8  UNL     1      37.527  38.998  31.666  1.00  0.00     0.181 C 
ENDBRANCH  21  24
ENDBRANCH  19  20
ENDBRANCH  17  19
ENDBRANCH   1  17
BRANCH   8  29
HETATM   29  C16 UNL     1      36.105  35.928  19.018  1.00  0.00     0.243 C 
HETATM   30  O4  UNL     1      37.268  35.631  19.291  1.00  0.00    -0.287 OA
BRANCH  29  31
HETATM   31  C17 UNL     1      35.561  35.367  17.752  1.00  0.00     0.451 C 
HETATM   32  F1  UNL     1      34.583  36.273  17.321  1.00  0.00    -0.163 F 
HETATM   33  F2  UNL     1      35.062  34.109  17.884  1.00  0.00    -0.163 F 
HETATM   34  F3  UNL     1      36.515  35.352  16.754  1.00  0.00    -0.163 F 
ENDBRANCH  29  31
ENDBRANCH   8  29
TORSDOF 6
ENDMDL
MODEL 4
REMARK VINA RESULT: -8.578105903      3.897      4.705
REMARK  6 active torsions:
REMARK  status: ('A' for Active; 'I' for Inactive)
REMARK    1  A    between atoms: C2_2  and  C3_3 
REMARK    2  A    between atoms: C2_2  and  C9_13 
REMARK    3  A    between atoms: C3_3  and  N1_4 
REMARK       I    between atoms: N1_4  and  C4_6 
REMARK    4  A    between atoms: C4_6  and  C5_8 
REMARK    5  A    between atoms: C15_20  and  C16_21 
REMARK    6  A    between atoms: C16_21  and  C17_23 
ROOT
HETATM    1  C9  UNL     1      35.117  36.992  23.002  1.00  0.00    -0.001 C 
HETATM    2  C10 UNL     1      36.374  37.789  23.171  1.00  0.00     0.006 C 
HETATM    3  C11 UNL     1      36.031  38.948  24.094  1.00  0.00     0.006 C 
HETATM    4  C12 UNL     1      34.690  38.567  24.724  1.00  0.00     0.006 C 
HETATM    5  C13 UNL     1      34.962  37.750  25.925  1.00  0.00     0.066 C 
HETATM    6  C14 UNL     1      34.914  38.665  27.114  1.00  0.00     0.143 C 
HETATM    7  O3  UNL     1      35.488  39.731  27.242  1.00  0.00    -0.297 OA
HETATM    8  C15 UNL     1      34.043  38.077  28.144  1.00  0.00     0.135 C 
HETATM    9  C18 UNL     1      33.799  36.665  27.676  1.00  0.00     0.026 C 
HETATM   10  C19 UNL     1      34.023  36.646  26.197  1.00  0.00     0.006 C 
HETATM   11  C20 UNL     1      32.729  36.730  25.436  1.00  0.00    -0.043 C 
HETATM   12  C21 UNL     1      31.757  37.723  26.053  1.00  0.00     0.015 C 
HETATM   13  C22 UNL     1      32.064  35.353  25.599  1.00  0.00     0.015 C 
HETATM   14  C23 UNL     1      32.879  36.985  23.988  1.00  0.00     0.019 C 
HETATM   15  C24 UNL     1      34.035  37.827  23.573  1.00  0.00    -0.035 C 
HETATM   16  C25 UNL     1      33.515  38.931  22.683  1.00  0.00     0.016 C 
ENDROOT
BRANCH   1  17
HETATM   17  C2  UNL     1      34.918  36.311  21.715  1.00  0.00     0.004 C 
HETATM   18  C1  UNL     1      34.774  34.797  22.002  1.00  0.00     0.012 C 
BRANCH  17  19
HETATM   19  C3  UNL     1      36.047  36.382  20.720  1.00  0.00     0.127 C 
BRANCH  19  20
HETATM   20  N1  UNL     1      35.463  36.902  19.472  1.00  0.00    -0.360 N 
HETATM   21  C4  UNL     1      35.264  36.006  18.367  1.00  0.00     0.224 C 
HETATM   22  O1  UNL     1      35.594  34.802  18.494  1.00  0.00    -0.273 OA
ATOM     23  H1  UNL     1      35.203  37.885  19.393  1.00  0.00     0.162 HD
BRANCH  21  24
HETATM   24  C5  UNL     1      34.684  36.460  17.089  1.00  0.00     0.103 C 
HETATM   25  C6  UNL     1      33.360  35.805  16.787  1.00  0.00     0.042 C 
HETATM   26  C7  UNL     1      33.519  35.399  15.339  1.00  0.00     0.168 C 
HETATM   27  O2  UNL     1      34.854  34.943  15.341  1.00  0.00    -0.390 OA
HETATM   28  C8  UNL     1      35.540  36.001  15.934  1.00  0.00     0.181 C 
ENDBRANCH  21  24
ENDBRANCH  19  20
ENDBRANCH  17  19
ENDBRANCH   1  17
BRANCH   8  29
HETATM   29  C16 UNL     1      34.676  38.175  29.456  1.00  0.00     0.243 C 
HETATM   30  O4  UNL     1      35.666  37.483  29.690  1.00  0.00    -0.287 OA
BRANCH  29  31
HETATM   31  C17 UNL     1      34.213  39.061  30.557  1.00  0.00     0.451 C 
HETATM   32  F1  UNL     1      32.858  39.309  30.305  1.00  0.00    -0.163 F 
HETATM   33  F2  UNL     1      34.928  40.214  30.664  1.00  0.00    -0.163 F 
HETATM   34  F3  UNL     1      34.250  38.415  31.776  1.00  0.00    -0.163 F 
ENDBRANCH  29  31
ENDBRANCH   8  29
TORSDOF 6
ENDMDL
MODEL 5
REMARK VINA RESULT: -8.535176923      3.869      4.622
REMARK  6 active torsions:
REMARK  status: ('A' for Active; 'I' for Inactive)
REMARK    1  A    between atoms: C2_2  and  C3_3 
REMARK    2  A    between atoms: C2_2  and  C9_13 
REMARK    3  A    between atoms: C3_3  and  N1_4 
REMARK       I    between atoms: N1_4  and  C4_6 
REMARK    4  A    between atoms: C4_6  and  C5_8 
REMARK    5  A    between atoms: C15_20  and  C16_21 
REMARK    6  A    between atoms: C16_21  and  C17_23 
ROOT
HETATM    1  C9  UNL     1      35.060  37.142  23.180  1.00  0.00    -0.001 C 
HETATM    2  C10 UNL     1      36.292  37.961  23.416  1.00  0.00     0.006 C 
HETATM    3  C11 UNL     1      35.905  39.051  24.405  1.00  0.00     0.006 C 
HETATM    4  C12 UNL     1      34.568  38.594  24.992  1.00  0.00     0.006 C 
HETATM    5  C13 UNL     1      34.848  37.712  26.142  1.00  0.00     0.066 C 
HETATM    6  C14 UNL     1      34.761  38.549  27.385  1.00  0.00     0.143 C 
HETATM    7  O3  UNL     1      35.303  39.619  27.587  1.00  0.00    -0.297 OA
HETATM    8  C15 UNL     1      33.894  37.873  28.365  1.00  0.00     0.135 C 
HETATM    9  C18 UNL     1      33.696  36.488  27.806  1.00  0.00     0.026 C 
HETATM   10  C19 UNL     1      33.938  36.567  26.332  1.00  0.00     0.006 C 
HETATM   11  C20 UNL     1      32.651  36.663  25.561  1.00  0.00    -0.043 C 
HETATM   12  C21 UNL     1      31.644  37.588  26.225  1.00  0.00     0.015 C 
HETATM   13  C22 UNL     1      32.023  35.261  25.629  1.00  0.00     0.015 C 
HETATM   14  C23 UNL     1      32.811  37.012  24.134  1.00  0.00     0.019 C 
HETATM   15  C24 UNL     1      33.947  37.909  23.787  1.00  0.00    -0.035 C 
HETATM   16  C25 UNL     1      33.407  39.053  22.960  1.00  0.00     0.016 C 
ENDROOT
BRANCH   1  17
HETATM   17  C2  UNL     1      34.894  36.538  21.851  1.00  0.00     0.004 C 
HETATM   18  C1  UNL     1      34.882  35.001  22.032  1.00  0.00     0.012 C 
BRANCH  17  19
HETATM   19  C3  UNL     1      35.997  36.772  20.851  1.00  0.00     0.127 C 
BRANCH  19  20
HETATM   20  N1  UNL     1      35.528  36.192  19.580  1.00  0.00    -0.360 N 
HETATM   21  C4  UNL     1      34.825  37.027  18.647  1.00  0.00     0.224 C 
HETATM   22  O1  UNL     1      34.626  38.232  18.939  1.00  0.00    -0.273 OA
ATOM     23  H1  UNL     1      35.702  35.210  19.366  1.00  0.00     0.162 HD
BRANCH  21  24
HETATM   24  C5  UNL     1      34.328  36.511  17.358  1.00  0.00     0.103 C 
HETATM   25  C6  UNL     1      33.618  35.188  17.498  1.00  0.00     0.042 C 
HETATM   26  C7  UNL     1      34.216  34.375  16.371  1.00  0.00     0.168 C 
HETATM   27  O2  UNL     1      35.568  34.769  16.455  1.00  0.00    -0.390 OA
HETATM   28  C8  UNL     1      35.485  36.160  16.455  1.00  0.00     0.181 C 
ENDBRANCH  21  24
ENDBRANCH  19  20
ENDBRANCH  17  19
ENDBRANCH   1  17
BRANCH   8  29
HETATM   29  C16 UNL     1      34.509  37.906  29.689  1.00  0.00     0.243 C 
HETATM   30  O4  UNL     1      35.478  37.182  29.911  1.00  0.00    -0.287 OA
BRANCH  29  31
HETATM   31  C17 UNL     1      34.050  38.761  30.816  1.00  0.00     0.451 C 
HETATM   32  F1  UNL     1      34.817  39.931  30.746  1.00  0.00    -0.163 F 
HETATM   33  F2  UNL     1      34.152  38.160  32.032  1.00  0.00    -0.163 F 
HETATM   34  F3  UNL     1      32.742  39.167  30.643  1.00  0.00    -0.163 F 
ENDBRANCH  29  31
ENDBRANCH   8  29
TORSDOF 6
ENDMDL
