MODEL 1
REMARK VINA RESULT: -10.214428165      0.000      0.000
REMARK  8 active torsions:
REMARK  status: ('A' for Active; 'I' for Inactive)
REMARK    1  A    between atoms: C2_2  and  C3_4 
REMARK    2  A    between atoms: C3_4  and  O2_5 
REMARK    3  A    between atoms: O2_5  and  N1_6 
REMARK    4  A    between atoms: C4_8  and  C6_10 
REMARK    5  A    between atoms: C10_14  and  C11_15 
REMARK    6  A    between atoms: C14_21  and  C15_22 
REMARK    7  A    between atoms: C15_22  and  N3_23 
REMARK       I    between atoms: N3_23  and  C17_25 
REMARK    8  A    between atoms: C17_25  and  C18_27 
ROOT
HETATM    1  C11 UNL     1      19.567  -0.114  31.063  1.00  0.00     0.048 A 
HETATM    2  N2  UNL     1      18.557   0.634  30.615  1.00  0.00    -0.264 N 
ATOM      3  H2  UNL     1      17.658   0.737  31.086  1.00  0.00     0.194 HD
HETATM    4  O3  UNL     1      18.867   1.203  29.516  1.00  0.00    -0.242 OA
HETATM    5  C12 UNL     1      20.105   0.885  29.138  1.00  0.00     0.082 A 
HETATM    6  C13 UNL     1      20.741   1.396  27.902  1.00  0.00     0.079 C 
HETATM    7  C14 UNL     1      20.597   0.046  30.091  1.00  0.00     0.016 A 
ENDROOT
BRANCH   7   8
HETATM    8  C15 UNL     1      21.881  -0.621  30.244  1.00  0.00     0.168 C 
BRANCH   8   9
HETATM    9  N3  UNL     1      22.118  -1.821  29.529  1.00  0.00    -0.348 N 
HETATM   10  C16 UNL     1      22.332  -1.744  28.072  1.00  0.00     0.153 C 
HETATM   11  C17 UNL     1      22.117  -3.116  30.101  1.00  0.00     0.257 C 
HETATM   12  O4  UNL     1      21.892  -3.229  31.326  1.00  0.00    -0.267 OA
BRANCH  11  13
HETATM   13  C18 UNL     1      22.366  -4.315  29.328  1.00  0.00     0.076 A 
HETATM   14  C19 UNL     1      23.611  -4.739  28.946  1.00  0.00     0.066 A 
HETATM   15  C20 UNL     1      23.771  -5.895  28.209  1.00  0.00     0.159 A 
HETATM   16  F1  UNL     1      24.995  -6.346  27.811  1.00  0.00    -0.203 F 
HETATM   17  C21 UNL     1      22.688  -6.667  27.829  1.00  0.00     0.196 A 
HETATM   18  F2  UNL     1      22.806  -7.803  27.110  1.00  0.00    -0.199 F 
HETATM   19  C22 UNL     1      21.433  -6.254  28.206  1.00  0.00     0.197 A 
HETATM   20  F3  UNL     1      20.341  -6.980  27.857  1.00  0.00    -0.199 F 
HETATM   21  C23 UNL     1      21.284  -5.098  28.942  1.00  0.00     0.173 A 
HETATM   22  F4  UNL     1      20.030  -4.718  29.299  1.00  0.00    -0.202 F 
ENDBRANCH  11  13
ENDBRANCH   8   9
ENDBRANCH   7   8
BRANCH   1  23
HETATM   23  C10 UNL     1      19.675  -0.941  32.271  1.00  0.00     0.048 C 
HETATM   24  C6  UNL     1      19.045  -0.163  33.426  1.00  0.00     0.043 C 
HETATM   25  C7  UNL     1      17.972  -1.024  34.003  1.00  0.00     0.011 C 
HETATM   26  C8  UNL     1      18.155  -2.410  33.484  1.00  0.00     0.002 C 
HETATM   27  C9  UNL     1      18.938  -2.233  32.224  1.00  0.00     0.011 C 
BRANCH  24  28
HETATM   28  C4  UNL     1      20.059   0.202  34.451  1.00  0.00     0.011 C 
HETATM   29  N1  UNL     1      19.921   1.198  35.259  1.00  0.00    -0.275 N 
ATOM     30  H1  UNL     1      20.639   1.417  35.951  1.00  0.00     0.193 HD
HETATM   31  C5  UNL     1      21.297  -0.612  34.560  1.00  0.00     0.066 C 
BRANCH  29  32
HETATM   32  O2  UNL     1      18.770   1.960  35.161  1.00  0.00    -0.273 OA
BRANCH  32  33
HETATM   33  C3  UNL     1      18.169   2.523  36.331  1.00  0.00     0.278 C 
BRANCH  33  34
HETATM   34  C2  UNL     1      16.704   2.349  36.237  1.00  0.00     0.148 C 
HETATM   35  C1  UNL     1      16.013   1.755  35.075  1.00  0.00     0.093 C 
HETATM   36  O1  UNL     1      16.035   2.727  37.190  1.00  0.00    -0.296 OA
ENDBRANCH  33  34
ENDBRANCH  32  33
ENDBRANCH  29  32
ENDBRANCH  24  28
ENDBRANCH   1  23
TORSDOF 8
ENDMDL
MODEL 2
REMARK VINA RESULT: -9.987431197      4.376      8.481
REMARK  8 active torsions:
REMARK  status: ('A' for Active; 'I' for Inactive)
REMARK    1  A    between atoms: C2_2  and  C3_4 
REMARK    2  A    between atoms: C3_4  and  O2_5 
REMARK    3  A    between atoms: O2_5  and  N1_6 
REMARK    4  A    between atoms: C4_8  and  C6_10 
REMARK    5  A    between atoms: C10_14  and  C11_15 
REMARK    6  A    between atoms: C14_21  and  C15_22 
REMARK    7  A    between atoms: C15_22  and  N3_23 
REMARK       I    between atoms: N3_23  and  C17_25 
REMARK    8  A    between atoms: C17_25  and  C18_27 
ROOT
HETATM    1  C11 UNL     1      20.686  -5.148  31.268  1.00  0.00     0.048 A 
HETATM    2  N2  UNL     1      21.061  -6.245  31.928  1.00  0.00    -0.264 N 
ATOM      3  H2  UNL     1      21.709  -6.945  31.567  1.00  0.00     0.194 HD
HETATM    4  O3  UNL     1      20.500  -6.300  33.073  1.00  0.00    -0.242 OA
HETATM    5  C12 UNL     1      19.705  -5.250  33.274  1.00  0.00     0.082 A 
HETATM    6  C13 UNL     1      18.921  -5.039  34.512  1.00  0.00     0.079 C 
HETATM    7  C14 UNL     1      19.787  -4.482  32.151  1.00  0.00     0.016 A 
ENDROOT
BRANCH   7   8
HETATM    8  C15 UNL     1      19.167  -3.220  31.778  1.00  0.00     0.168 C 
BRANCH   8   9
HETATM    9  N3  UNL     1      19.408  -2.076  32.576  1.00  0.00    -0.348 N 
HETATM   10  C16 UNL     1      20.717  -1.406  32.474  1.00  0.00     0.153 C 
HETATM   11  C17 UNL     1      18.497  -1.542  33.519  1.00  0.00     0.257 C 
HETATM   12  O4  UNL     1      17.392  -2.109  33.672  1.00  0.00    -0.267 OA
BRANCH  11  13
HETATM   13  C18 UNL     1      18.789  -0.367  34.315  1.00  0.00     0.076 A 
HETATM   14  C19 UNL     1      19.974  -0.157  34.969  1.00  0.00     0.066 A 
HETATM   15  C20 UNL     1      20.181   0.989  35.709  1.00  0.00     0.159 A 
HETATM   16  F1  UNL     1      21.348   1.231  36.374  1.00  0.00    -0.203 F 
HETATM   17  C21 UNL     1      19.209   1.967  35.818  1.00  0.00     0.196 A 
HETATM   18  F2  UNL     1      19.376   3.100  36.531  1.00  0.00    -0.199 F 
HETATM   19  C22 UNL     1      18.015   1.770  35.166  1.00  0.00     0.197 A 
HETATM   20  F3  UNL     1      17.032   2.701  35.243  1.00  0.00    -0.199 F 
HETATM   21  C23 UNL     1      17.819   0.621  34.429  1.00  0.00     0.173 A 
HETATM   22  F4  UNL     1      16.628   0.457  33.796  1.00  0.00    -0.202 F 
ENDBRANCH  11  13
ENDBRANCH   8   9
ENDBRANCH   7   8
BRANCH   1  23
HETATM   23  C10 UNL     1      21.064  -4.663  29.935  1.00  0.00     0.048 C 
HETATM   24  C6  UNL     1      22.528  -4.225  29.998  1.00  0.00     0.043 C 
HETATM   25  C7  UNL     1      23.263  -4.998  28.956  1.00  0.00     0.011 C 
HETATM   26  C8  UNL     1      22.262  -5.619  28.040  1.00  0.00     0.002 C 
HETATM   27  C9  UNL     1      21.008  -5.679  28.849  1.00  0.00     0.011 C 
BRANCH  24  28
HETATM   28  C4  UNL     1      22.665  -2.760  29.786  1.00  0.00     0.011 C 
HETATM   29  N1  UNL     1      23.634  -2.062  30.273  1.00  0.00    -0.275 N 
ATOM     30  H1  UNL     1      23.695  -1.057  30.105  1.00  0.00     0.193 HD
HETATM   31  C5  UNL     1      21.642  -2.051  28.975  1.00  0.00     0.066 C 
BRANCH  29  32
HETATM   32  O2  UNL     1      24.589  -2.717  31.031  1.00  0.00    -0.273 OA
BRANCH  32  33
HETATM   33  C3  UNL     1      25.794  -2.049  31.416  1.00  0.00     0.278 C 
BRANCH  33  34
HETATM   34  C2  UNL     1      25.475  -0.638  31.718  1.00  0.00     0.148 C 
HETATM   35  C1  UNL     1      26.121   0.517  31.061  1.00  0.00     0.093 C 
HETATM   36  O1  UNL     1      24.618  -0.428  32.568  1.00  0.00    -0.296 OA
ENDBRANCH  33  34
ENDBRANCH  32  33
ENDBRANCH  29  32
ENDBRANCH  24  28
ENDBRANCH   1  23
TORSDOF 8
ENDMDL
MODEL 3
REMARK VINA RESULT: -9.903295143      3.888      4.971
REMARK  8 active torsions:
REMARK  status: ('A' for Active; 'I' for Inactive)
REMARK    1  A    between atoms: C2_2  and  C3_4 
REMARK    2  A    between atoms: C3_4  and  O2_5 
REMARK    3  A    between atoms: O2_5  and  N1_6 
REMARK    4  A    between atoms: C4_8  and  C6_10 
REMARK    5  A    between atoms: C10_14  and  C11_15 
REMARK    6  A    between atoms: C14_21  and  C15_22 
REMARK    7  A    between atoms: C15_22  and  N3_23 
REMARK       I    between atoms: N3_23  and  C17_25 
REMARK    8  A    between atoms: C17_25  and  C18_27 
ROOT
HETATM    1  C11 UNL     1      19.047  -0.757  31.378  1.00  0.00     0.048 A 
HETATM    2  N2  UNL     1      20.026  -0.034  30.832  1.00  0.00    -0.264 N 
ATOM      3  H2  UNL     1      19.901   0.622  30.061  1.00  0.00     0.194 HD
HETATM    4  O3  UNL     1      21.141  -0.275  31.404  1.00  0.00    -0.242 OA
HETATM    5  C12 UNL     1      21.001  -1.176  32.377  1.00  0.00     0.082 A 
HETATM    6  C13 UNL     1      22.122  -1.654  33.218  1.00  0.00     0.079 C 
HETATM    7  C14 UNL     1      19.683  -1.516  32.403  1.00  0.00     0.016 A 
ENDROOT
BRANCH   7   8
HETATM    8  C15 UNL     1      18.921  -2.431  33.240  1.00  0.00     0.168 C 
BRANCH   8   9
HETATM    9  N3  UNL     1      19.166  -3.822  33.134  1.00  0.00    -0.348 N 
HETATM   10  C16 UNL     1      19.791  -4.337  31.902  1.00  0.00     0.153 C 
HETATM   11  C17 UNL     1      18.808  -4.782  34.110  1.00  0.00     0.257 C 
HETATM   12  O4  UNL     1      18.233  -4.393  35.151  1.00  0.00    -0.267 OA
BRANCH  11  13
HETATM   13  C18 UNL     1      19.081  -6.196  33.957  1.00  0.00     0.076 A 
HETATM   14  C19 UNL     1      20.313  -6.713  33.656  1.00  0.00     0.066 A 
HETATM   15  C20 UNL     1      20.498  -8.075  33.526  1.00  0.00     0.159 A 
HETATM   16  F1  UNL     1      21.711  -8.624  33.227  1.00  0.00    -0.203 F 
HETATM   17  C21 UNL     1      19.454  -8.967  33.693  1.00  0.00     0.196 A 
HETATM   18  F2  UNL     1      19.597 -10.303  33.574  1.00  0.00    -0.199 F 
HETATM   19  C22 UNL     1      18.213  -8.462  33.995  1.00  0.00     0.197 A 
HETATM   20  F3  UNL     1      17.159  -9.298  34.169  1.00  0.00    -0.199 F 
HETATM   21  C23 UNL     1      18.039  -7.100  34.123  1.00  0.00     0.173 A 
HETATM   22  F4  UNL     1      16.799  -6.634  34.423  1.00  0.00    -0.202 F 
ENDBRANCH  11  13
ENDBRANCH   8   9
ENDBRANCH   7   8
BRANCH   1  23
HETATM   23  C10 UNL     1      17.615  -0.815  31.058  1.00  0.00     0.048 C 
HETATM   24  C6  UNL     1      16.924   0.325  31.807  1.00  0.00     0.043 C 
HETATM   25  C7  UNL     1      16.215   1.154  30.789  1.00  0.00     0.011 C 
HETATM   26  C8  UNL     1      16.154   0.379  29.516  1.00  0.00     0.002 C 
HETATM   27  C9  UNL     1      17.275  -0.602  29.625  1.00  0.00     0.011 C 
BRANCH  24  28
HETATM   28  C4  UNL     1      15.985  -0.193  32.837  1.00  0.00     0.011 C 
HETATM   29  N1  UNL     1      16.046   0.140  34.081  1.00  0.00    -0.275 N 
ATOM     30  H1  UNL     1      15.382  -0.236  34.759  1.00  0.00     0.193 HD
HETATM   31  C5  UNL     1      14.918  -1.141  32.425  1.00  0.00     0.066 C 
BRANCH  29  32
HETATM   32  O2  UNL     1      17.039   1.022  34.470  1.00  0.00    -0.273 OA
BRANCH  32  33
HETATM   33  C3  UNL     1      16.716   2.369  34.825  1.00  0.00     0.278 C 
BRANCH  33  34
HETATM   34  C2  UNL     1      17.153   2.607  36.217  1.00  0.00     0.148 C 
HETATM   35  C1  UNL     1      18.558   2.816  36.620  1.00  0.00     0.093 C 
HETATM   36  O1  UNL     1      16.283   2.628  37.080  1.00  0.00    -0.296 OA
ENDBRANCH  33  34
ENDBRANCH  32  33
ENDBRANCH  29  32
ENDBRANCH  24  28
ENDBRANCH   1  23
TORSDOF 8
ENDMDL
MODEL 4
REMARK VINA RESULT: -9.900374525      4.101      9.282
REMARK  8 active torsions:
REMARK  status: ('A' for Active; 'I' for Inactive)
REMARK    1  A    between atoms: C2_2  and  C3_4 
REMARK    2  A    between atoms: C3_4  and  O2_5 
REMARK    3  A    between atoms: O2_5  and  N1_6 
REMARK    4  A    between atoms: C4_8  and  C6_10 
REMARK    5  A    between atoms: C10_14  and  C11_15 
REMARK    6  A    between atoms: C14_21  and  C15_22 
REMARK    7  A    between atoms: C15_22  and  N3_23 
REMARK       I    between atoms: N3_23  and  C17_25 
REMARK    8  A    between atoms: C17_25  and  C18_27 
ROOT
HETATM    1  C11 UNL     1      21.176  -2.894  29.656  1.00  0.00     0.048 A 
HETATM    2  N2  UNL     1      22.431  -2.451  29.573  1.00  0.00    -0.264 N 
ATOM      3  H2  UNL     1      23.260  -3.042  29.637  1.00  0.00     0.194 HD
HETATM    4  O3  UNL     1      22.455  -1.187  29.401  1.00  0.00    -0.242 OA
HETATM    5  C12 UNL     1      21.223  -0.680  29.356  1.00  0.00     0.082 A 
HETATM    6  C13 UNL     1      20.935   0.759  29.165  1.00  0.00     0.079 C 
HETATM    7  C14 UNL     1      20.368  -1.729  29.513  1.00  0.00     0.016 A 
ENDROOT
BRANCH   7   8
HETATM    8  C15 UNL     1      18.916  -1.816  29.541  1.00  0.00     0.168 C 
BRANCH   8   9
HETATM    9  N3  UNL     1      18.201  -1.031  30.479  1.00  0.00    -0.348 N 
HETATM   10  C16 UNL     1      17.709   0.295  30.061  1.00  0.00     0.153 C 
HETATM   11  C17 UNL     1      17.958  -1.400  31.824  1.00  0.00     0.257 C 
HETATM   12  O4  UNL     1      18.399  -2.497  32.233  1.00  0.00    -0.267 OA
BRANCH  11  13
HETATM   13  C18 UNL     1      17.220  -0.562  32.746  1.00  0.00     0.076 A 
HETATM   14  C19 UNL     1      15.853  -0.488  32.791  1.00  0.00     0.066 A 
HETATM   15  C20 UNL     1      15.218   0.335  33.700  1.00  0.00     0.159 A 
HETATM   16  F1  UNL     1      13.859   0.434  33.773  1.00  0.00    -0.203 F 
HETATM   17  C21 UNL     1      15.931   1.110  34.597  1.00  0.00     0.196 A 
HETATM   18  F2  UNL     1      15.345   1.925  35.499  1.00  0.00    -0.199 F 
HETATM   19  C22 UNL     1      17.303   1.045  34.563  1.00  0.00     0.197 A 
HETATM   20  F3  UNL     1      18.044   1.788  35.422  1.00  0.00    -0.199 F 
HETATM   21  C23 UNL     1      17.927   0.221  33.651  1.00  0.00     0.173 A 
HETATM   22  F4  UNL     1      19.285   0.179  33.644  1.00  0.00    -0.202 F 
ENDBRANCH  11  13
ENDBRANCH   8   9
ENDBRANCH   7   8
BRANCH   1  23
HETATM   23  C10 UNL     1      20.658  -4.254  29.849  1.00  0.00     0.048 C 
HETATM   24  C6  UNL     1      21.811  -5.230  29.611  1.00  0.00     0.043 C 
HETATM   25  C7  UNL     1      21.949  -6.057  30.845  1.00  0.00     0.011 C 
HETATM   26  C8  UNL     1      20.721  -5.870  31.672  1.00  0.00     0.002 C 
HETATM   27  C9  UNL     1      20.167  -4.560  31.220  1.00  0.00     0.011 C 
BRANCH  24  28
HETATM   28  C4  UNL     1      21.569  -6.075  28.412  1.00  0.00     0.011 C 
HETATM   29  N1  UNL     1      22.508  -6.463  27.619  1.00  0.00    -0.275 N 
ATOM     30  H1  UNL     1      22.303  -7.045  26.806  1.00  0.00     0.193 HD
HETATM   31  C5  UNL     1      20.181  -6.502  28.102  1.00  0.00     0.066 C 
BRANCH  29  32
HETATM   32  O2  UNL     1      23.804  -6.067  27.902  1.00  0.00    -0.273 OA
BRANCH  32  33
HETATM   33  C3  UNL     1      24.687  -5.664  26.852  1.00  0.00     0.278 C 
BRANCH  33  34
HETATM   34  C2  UNL     1      26.035  -6.196  27.140  1.00  0.00     0.148 C 
HETATM   35  C1  UNL     1      26.937  -6.766  26.118  1.00  0.00     0.093 C 
HETATM   36  O1  UNL     1      26.414  -6.157  28.304  1.00  0.00    -0.296 OA
ENDBRANCH  33  34
ENDBRANCH  32  33
ENDBRANCH  29  32
ENDBRANCH  24  28
ENDBRANCH   1  23
TORSDOF 8
ENDMDL
MODEL 5
REMARK VINA RESULT: -9.866718030      0.581      1.603
REMARK  8 active torsions:
REMARK  status: ('A' for Active; 'I' for Inactive)
REMARK    1  A    between atoms: C2_2  and  C3_4 
REMARK    2  A    between atoms: C3_4  and  O2_5 
REMARK    3  A    between atoms: O2_5  and  N1_6 
REMARK    4  A    between atoms: C4_8  and  C6_10 
REMARK    5  A    between atoms: C10_14  and  C11_15 
REMARK    6  A    between atoms: C14_21  and  C15_22 
REMARK    7  A    between atoms: C15_22  and  N3_23 
REMARK       I    between atoms: N3_23  and  C17_25 
REMARK    8  A    between atoms: C17_25  and  C18_27 
ROOT
HETATM    1  C11 UNL     1      19.409  -0.051  31.124  1.00  0.00     0.048 A 
HETATM    2  N2  UNL     1      18.476   0.785  30.665  1.00  0.00    -0.264 N 
ATOM      3  H2  UNL     1      17.579   0.956  31.118  1.00  0.00     0.194 HD
HETATM    4  O3  UNL     1      18.859   1.342  29.583  1.00  0.00    -0.242 OA
HETATM    5  C12 UNL     1      20.075   0.927  29.228  1.00  0.00     0.082 A 
HETATM    6  C13 UNL     1      20.781   1.399  28.016  1.00  0.00     0.079 C 
HETATM    7  C14 UNL     1      20.472   0.036  30.179  1.00  0.00     0.016 A 
ENDROOT
BRANCH   7   8
HETATM    8  C15 UNL     1      21.692  -0.740  30.350  1.00  0.00     0.168 C 
BRANCH   8   9
HETATM    9  N3  UNL     1      21.839  -1.952  29.633  1.00  0.00    -0.348 N 
HETATM   10  C16 UNL     1      22.088  -1.888  28.181  1.00  0.00     0.153 C 
HETATM   11  C17 UNL     1      21.714  -3.244  30.197  1.00  0.00     0.257 C 
HETATM   12  O4  UNL     1      21.456  -3.343  31.417  1.00  0.00    -0.267 OA
BRANCH  11  13
HETATM   13  C18 UNL     1      21.874  -4.457  29.421  1.00  0.00     0.076 A 
HETATM   14  C19 UNL     1      20.833  -5.236  28.990  1.00  0.00     0.066 A 
HETATM   15  C20 UNL     1      21.062  -6.380  28.252  1.00  0.00     0.159 A 
HETATM   16  F1  UNL     1      20.050  -7.179  27.806  1.00  0.00    -0.203 F 
HETATM   17  C21 UNL     1      22.343  -6.783  27.920  1.00  0.00     0.196 A 
HETATM   18  F2  UNL     1      22.606  -7.895  27.201  1.00  0.00    -0.199 F 
HETATM   19  C22 UNL     1      23.397  -6.011  28.346  1.00  0.00     0.197 A 
HETATM   20  F3  UNL     1      24.671  -6.367  28.045  1.00  0.00    -0.199 F 
HETATM   21  C23 UNL     1      23.157  -4.871  29.083  1.00  0.00     0.173 A 
HETATM   22  F4  UNL     1      24.220  -4.129  29.488  1.00  0.00    -0.202 F 
ENDBRANCH  11  13
ENDBRANCH   8   9
ENDBRANCH   7   8
BRANCH   1  23
HETATM   23  C10 UNL     1      19.419  -0.902  32.321  1.00  0.00     0.048 C 
HETATM   24  C6  UNL     1      18.842  -0.086  33.477  1.00  0.00     0.043 C 
HETATM   25  C7  UNL     1      17.684  -0.852  34.022  1.00  0.00     0.011 C 
HETATM   26  C8  UNL     1      17.748  -2.242  33.484  1.00  0.00     0.002 C 
HETATM   27  C9  UNL     1      18.567  -2.120  32.242  1.00  0.00     0.011 C 
BRANCH  24  28
HETATM   28  C4  UNL     1      19.866   0.170  34.524  1.00  0.00     0.011 C 
HETATM   29  N1  UNL     1      19.811   1.169  35.339  1.00  0.00    -0.275 N 
ATOM     30  H1  UNL     1      20.533   1.311  36.047  1.00  0.00     0.193 HD
HETATM   31  C5  UNL     1      21.015  -0.763  34.651  1.00  0.00     0.066 C 
BRANCH  29  32
HETATM   32  O2  UNL     1      18.744   2.042  35.225  1.00  0.00    -0.273 OA
BRANCH  32  33
HETATM   33  C3  UNL     1      18.121   2.586  36.393  1.00  0.00     0.278 C 
BRANCH  33  34
HETATM   34  C2  UNL     1      16.659   2.407  36.273  1.00  0.00     0.148 C 
HETATM   35  C1  UNL     1      15.988   1.839  35.085  1.00  0.00     0.093 C 
HETATM   36  O1  UNL     1      15.973   2.758  37.225  1.00  0.00    -0.296 OA
ENDBRANCH  33  34
ENDBRANCH  32  33
ENDBRANCH  29  32
ENDBRANCH  24  28
ENDBRANCH   1  23
TORSDOF 8
ENDMDL
