MODEL 1
REMARK VINA RESULT: -9.331631930      0.000      0.000
REMARK  8 active torsions:
REMARK  status: ('A' for Active; 'I' for Inactive)
REMARK    1  A    between atoms: C2_2  and  C3_3 
REMARK    2  A    between atoms: C3_3  and  C4_4 
REMARK    3  A    between atoms: C4_4  and  S1_5 
REMARK    4  A    between atoms: S1_5  and  C5_8 
REMARK    5  A    between atoms: C5_8  and  C6_9 
REMARK    6  A    between atoms: C6_9  and  C7_10 
REMARK    7  A    between atoms: C7_10  and  O3_11 
REMARK    8  A    between atoms: O3_11  and  C8_12 
ROOT
HETATM    1  C8  UNL     1      16.846  -0.315  33.679  1.00  0.00     0.110 A 
HETATM    2  C9  UNL     1      15.470  -0.125  33.524  1.00  0.00     0.090 A 
HETATM    3 CL1  UNL     1      14.505  -1.163  32.497  1.00  0.00    -0.080 Cl
HETATM    4  C10 UNL     1      14.929   0.928  34.232  1.00  0.00     0.059 A 
HETATM    5 CL2  UNL     1      13.205   1.180  34.048  1.00  0.00    -0.082 Cl
HETATM    6  C11 UNL     1      15.663   1.743  35.032  1.00  0.00     0.042 A 
HETATM    7  C12 UNL     1      17.046   1.560  35.194  1.00  0.00     0.037 A 
HETATM    8  C13 UNL     1      17.579   0.518  34.493  1.00  0.00     0.055 A 
HETATM    9  S2  UNL     1      19.325   0.491  34.857  1.00  0.00    -0.080 SA
HETATM   10  C14 UNL     1      19.328   1.897  35.961  1.00  0.00     0.090 A 
HETATM   11  C15 UNL     1      20.373   2.421  36.602  1.00  0.00     0.124 C 
HETATM   12 CL3  UNL     1      20.217   3.801  37.651  1.00  0.00    -0.069 Cl
HETATM   13 CL4  UNL     1      21.965   1.718  36.403  1.00  0.00    -0.069 Cl
HETATM   14  C16 UNL     1      17.939   2.327  35.992  1.00  0.00     0.203 A 
HETATM   15  O4  UNL     1      17.611   3.343  36.717  1.00  0.00    -0.286 OA
ENDROOT
BRANCH   1  16
HETATM   16  O3  UNL     1      17.436  -1.353  32.994  1.00  0.00    -0.348 OA
BRANCH  16  17
HETATM   17  C7  UNL     1      17.962  -1.043  31.685  1.00  0.00     0.176 C 
BRANCH  17  18
HETATM   18  C6  UNL     1      19.249  -1.765  31.477  1.00  0.00     0.041 C 
BRANCH  18  19
HETATM   19  C5  UNL     1      19.132  -3.247  31.423  1.00  0.00     0.142 C 
BRANCH  19  20
HETATM   20  S1  UNL     1      19.665  -4.117  32.840  1.00  0.00     0.144 S 
HETATM   21  O1  UNL     1      20.317  -5.405  32.464  1.00  0.00    -0.228 OA
HETATM   22  O2  UNL     1      20.697  -3.240  33.537  1.00  0.00    -0.228 OA
BRANCH  20  23
HETATM   23  C4  UNL     1      18.356  -4.401  34.004  1.00  0.00     0.140 C 
BRANCH  23  24
HETATM   24  C3  UNL     1      18.539  -5.720  34.722  1.00  0.00     0.014 C 
BRANCH  24  25
HETATM   25  C2  UNL     1      17.252  -6.509  34.719  1.00  0.00    -0.004 C 
HETATM   26  C1  UNL     1      17.519  -7.964  34.341  1.00  0.00     0.005 C 
ENDBRANCH  24  25
ENDBRANCH  23  24
ENDBRANCH  20  23
ENDBRANCH  19  20
ENDBRANCH  18  19
ENDBRANCH  17  18
ENDBRANCH  16  17
ENDBRANCH   1  16
TORSDOF 8
ENDMDL
MODEL 2
REMARK VINA RESULT: -9.160564781      2.019      2.817
REMARK  8 active torsions:
REMARK  status: ('A' for Active; 'I' for Inactive)
REMARK    1  A    between atoms: C2_2  and  C3_3 
REMARK    2  A    between atoms: C3_3  and  C4_4 
REMARK    3  A    between atoms: C4_4  and  S1_5 
REMARK    4  A    between atoms: S1_5  and  C5_8 
REMARK    5  A    between atoms: C5_8  and  C6_9 
REMARK    6  A    between atoms: C6_9  and  C7_10 
REMARK    7  A    between atoms: C7_10  and  O3_11 
REMARK    8  A    between atoms: O3_11  and  C8_12 
ROOT
HETATM    1  C8  UNL     1      17.030  -0.249  33.714  1.00  0.00     0.110 A 
HETATM    2  C9  UNL     1      15.649  -0.102  33.547  1.00  0.00     0.090 A 
HETATM    3 CL1  UNL     1      14.729  -1.157  32.500  1.00  0.00    -0.080 Cl
HETATM    4  C10 UNL     1      15.069   0.926  34.262  1.00  0.00     0.059 A 
HETATM    5 CL2  UNL     1      13.339   1.124  34.065  1.00  0.00    -0.082 Cl
HETATM    6  C11 UNL     1      15.769   1.754  35.079  1.00  0.00     0.042 A 
HETATM    7  C12 UNL     1      17.156   1.614  35.252  1.00  0.00     0.037 A 
HETATM    8  C13 UNL     1      17.728   0.598  34.545  1.00  0.00     0.055 A 
HETATM    9  S2  UNL     1      19.471   0.622  34.925  1.00  0.00    -0.080 SA
HETATM   10  C14 UNL     1      19.418   2.015  36.045  1.00  0.00     0.090 A 
HETATM   11  C15 UNL     1      20.440   2.564  36.702  1.00  0.00     0.124 C 
HETATM   12 CL3  UNL     1      20.229   3.926  37.765  1.00  0.00    -0.069 Cl
HETATM   13 CL4  UNL     1      22.056   1.915  36.510  1.00  0.00    -0.069 Cl
HETATM   14  C16 UNL     1      18.016   2.399  36.067  1.00  0.00     0.203 A 
HETATM   15  O4  UNL     1      17.648   3.396  36.801  1.00  0.00    -0.286 OA
ENDROOT
BRANCH   1  16
HETATM   16  O3  UNL     1      17.659  -1.260  33.023  1.00  0.00    -0.348 OA
BRANCH  16  17
HETATM   17  C7  UNL     1      17.735  -2.541  33.687  1.00  0.00     0.176 C 
BRANCH  17  18
HETATM   18  C6  UNL     1      19.152  -3.002  33.727  1.00  0.00     0.041 C 
BRANCH  18  19
HETATM   19  C5  UNL     1      19.435  -4.220  32.923  1.00  0.00     0.142 C 
BRANCH  19  20
HETATM   20  S1  UNL     1      20.170  -3.962  31.360  1.00  0.00     0.144 S 
HETATM   21  O1  UNL     1      19.246  -3.227  30.448  1.00  0.00    -0.228 OA
HETATM   22  O2  UNL     1      21.406  -3.101  31.589  1.00  0.00    -0.228 OA
BRANCH  20  23
HETATM   23  C4  UNL     1      20.722  -5.469  30.603  1.00  0.00     0.140 C 
BRANCH  23  24
HETATM   24  C3  UNL     1      20.820  -5.321  29.100  1.00  0.00     0.014 C 
BRANCH  24  25
HETATM   25  C2  UNL     1      20.609  -6.653  28.421  1.00  0.00    -0.004 C 
HETATM   26  C1  UNL     1      21.736  -6.931  27.429  1.00  0.00     0.005 C 
ENDBRANCH  24  25
ENDBRANCH  23  24
ENDBRANCH  20  23
ENDBRANCH  19  20
ENDBRANCH  18  19
ENDBRANCH  17  18
ENDBRANCH  16  17
ENDBRANCH   1  16
TORSDOF 8
ENDMDL
MODEL 3
REMARK VINA RESULT: -8.975858209      1.765      3.231
REMARK  8 active torsions:
REMARK  status: ('A' for Active; 'I' for Inactive)
REMARK    1  A    between atoms: C2_2  and  C3_3 
REMARK    2  A    between atoms: C3_3  and  C4_4 
REMARK    3  A    between atoms: C4_4  and  S1_5 
REMARK    4  A    between atoms: S1_5  and  C5_8 
REMARK    5  A    between atoms: C5_8  and  C6_9 
REMARK    6  A    between atoms: C6_9  and  C7_10 
REMARK    7  A    between atoms: C7_10  and  O3_11 
REMARK    8  A    between atoms: O3_11  and  C8_12 
ROOT
HETATM    1  C8  UNL     1      17.016  -0.283  33.708  1.00  0.00     0.110 A 
HETATM    2  C9  UNL     1      15.637  -0.126  33.536  1.00  0.00     0.090 A 
HETATM    3 CL1  UNL     1      14.711  -1.181  32.492  1.00  0.00    -0.080 Cl
HETATM    4  C10 UNL     1      15.062   0.911  34.242  1.00  0.00     0.059 A 
HETATM    5 CL2  UNL     1      13.335   1.122  34.037  1.00  0.00    -0.082 Cl
HETATM    6  C11 UNL     1      15.766   1.739  35.056  1.00  0.00     0.042 A 
HETATM    7  C12 UNL     1      17.151   1.589  35.235  1.00  0.00     0.037 A 
HETATM    8  C13 UNL     1      17.717   0.563  34.536  1.00  0.00     0.055 A 
HETATM    9  S2  UNL     1      19.459   0.576  34.923  1.00  0.00    -0.080 SA
HETATM   10  C14 UNL     1      19.414   1.977  36.033  1.00  0.00     0.090 A 
HETATM   11  C15 UNL     1      20.438   2.522  36.690  1.00  0.00     0.124 C 
HETATM   12 CL3  UNL     1      20.235   3.893  37.743  1.00  0.00    -0.069 Cl
HETATM   13 CL4  UNL     1      22.049   1.859  36.508  1.00  0.00    -0.069 Cl
HETATM   14  C16 UNL     1      18.015   2.373  36.048  1.00  0.00     0.203 A 
HETATM   15  O4  UNL     1      17.653   3.377  36.774  1.00  0.00    -0.286 OA
ENDROOT
BRANCH   1  16
HETATM   16  O3  UNL     1      17.639  -1.303  33.027  1.00  0.00    -0.348 OA
BRANCH  16  17
HETATM   17  C7  UNL     1      17.761  -2.562  33.726  1.00  0.00     0.176 C 
BRANCH  17  18
HETATM   18  C6  UNL     1      19.048  -3.217  33.358  1.00  0.00     0.041 C 
BRANCH  18  19
HETATM   19  C5  UNL     1      19.303  -3.318  31.897  1.00  0.00     0.142 C 
BRANCH  19  20
HETATM   20  S1  UNL     1      20.608  -2.341  31.271  1.00  0.00     0.144 S 
HETATM   21  O1  UNL     1      21.124  -1.404  32.311  1.00  0.00    -0.228 OA
HETATM   22  O2  UNL     1      21.730  -3.296  30.884  1.00  0.00    -0.228 OA
BRANCH  20  23
HETATM   23  C4  UNL     1      20.158  -1.451  29.803  1.00  0.00     0.140 C 
BRANCH  23  24
HETATM   24  C3  UNL     1      18.660  -1.468  29.591  1.00  0.00     0.014 C 
BRANCH  24  25
HETATM   25  C2  UNL     1      18.091  -0.075  29.713  1.00  0.00    -0.004 C 
HETATM   26  C1  UNL     1      16.578  -0.097  29.513  1.00  0.00     0.005 C 
ENDBRANCH  24  25
ENDBRANCH  23  24
ENDBRANCH  20  23
ENDBRANCH  19  20
ENDBRANCH  18  19
ENDBRANCH  17  18
ENDBRANCH  16  17
ENDBRANCH   1  16
TORSDOF 8
ENDMDL
MODEL 4
REMARK VINA RESULT: -8.956504719      1.286      1.450
REMARK  8 active torsions:
REMARK  status: ('A' for Active; 'I' for Inactive)
REMARK    1  A    between atoms: C2_2  and  C3_3 
REMARK    2  A    between atoms: C3_3  and  C4_4 
REMARK    3  A    between atoms: C4_4  and  S1_5 
REMARK    4  A    between atoms: S1_5  and  C5_8 
REMARK    5  A    between atoms: C5_8  and  C6_9 
REMARK    6  A    between atoms: C6_9  and  C7_10 
REMARK    7  A    between atoms: C7_10  and  O3_11 
REMARK    8  A    between atoms: O3_11  and  C8_12 
ROOT
HETATM    1  C8  UNL     1      16.860  -0.288  33.679  1.00  0.00     0.110 A 
HETATM    2  C9  UNL     1      15.481  -0.115  33.524  1.00  0.00     0.090 A 
HETATM    3 CL1  UNL     1      14.531  -1.159  32.491  1.00  0.00    -0.080 Cl
HETATM    4  C10 UNL     1      14.927   0.927  34.238  1.00  0.00     0.059 A 
HETATM    5 CL2  UNL     1      13.200   1.158  34.054  1.00  0.00    -0.082 Cl
HETATM    6  C11 UNL     1      15.650   1.747  35.044  1.00  0.00     0.042 A 
HETATM    7  C12 UNL     1      17.035   1.580  35.206  1.00  0.00     0.037 A 
HETATM    8  C13 UNL     1      17.581   0.549  34.500  1.00  0.00     0.055 A 
HETATM    9  S2  UNL     1      19.328   0.542  34.865  1.00  0.00    -0.080 SA
HETATM   10  C14 UNL     1      19.312   1.942  35.977  1.00  0.00     0.090 A 
HETATM   11  C15 UNL     1      20.349   2.475  36.622  1.00  0.00     0.124 C 
HETATM   12 CL3  UNL     1      20.175   3.847  37.678  1.00  0.00    -0.069 Cl
HETATM   13 CL4  UNL     1      21.951   1.794  36.420  1.00  0.00    -0.069 Cl
HETATM   14  C16 UNL     1      17.918   2.354  36.008  1.00  0.00     0.203 A 
HETATM   15  O4  UNL     1      17.576   3.362  36.739  1.00  0.00    -0.286 OA
ENDROOT
BRANCH   1  16
HETATM   16  O3  UNL     1      17.463  -1.315  32.990  1.00  0.00    -0.348 OA
BRANCH  16  17
HETATM   17  C7  UNL     1      17.941  -1.004  31.662  1.00  0.00     0.176 C 
BRANCH  17  18
HETATM   18  C6  UNL     1      19.231  -1.709  31.415  1.00  0.00     0.041 C 
BRANCH  18  19
HETATM   19  C5  UNL     1      19.131  -3.191  31.355  1.00  0.00     0.142 C 
BRANCH  19  20
HETATM   20  S1  UNL     1      19.698  -4.062  32.758  1.00  0.00     0.144 S 
HETATM   21  O1  UNL     1      20.681  -3.249  33.533  1.00  0.00    -0.228 OA
HETATM   22  O2  UNL     1      18.484  -4.319  33.641  1.00  0.00    -0.228 OA
BRANCH  20  23
HETATM   23  C4  UNL     1      20.388  -5.646  32.352  1.00  0.00     0.140 C 
BRANCH  23  24
HETATM   24  C3  UNL     1      20.158  -6.644  33.465  1.00  0.00     0.014 C 
BRANCH  24  25
HETATM   25  C2  UNL     1      21.066  -7.839  33.303  1.00  0.00    -0.004 C 
HETATM   26  C1  UNL     1      20.263  -9.068  32.887  1.00  0.00     0.005 C 
ENDBRANCH  24  25
ENDBRANCH  23  24
ENDBRANCH  20  23
ENDBRANCH  19  20
ENDBRANCH  18  19
ENDBRANCH  17  18
ENDBRANCH  16  17
ENDBRANCH   1  16
TORSDOF 8
ENDMDL
MODEL 5
REMARK VINA RESULT: -8.907640411      1.818      3.715
REMARK  8 active torsions:
REMARK  status: ('A' for Active; 'I' for Inactive)
REMARK    1  A    between atoms: C2_2  and  C3_3 
REMARK    2  A    between atoms: C3_3  and  C4_4 
REMARK    3  A    between atoms: C4_4  and  S1_5 
REMARK    4  A    between atoms: S1_5  and  C5_8 
REMARK    5  A    between atoms: C5_8  and  C6_9 
REMARK    6  A    between atoms: C6_9  and  C7_10 
REMARK    7  A    between atoms: C7_10  and  O3_11 
REMARK    8  A    between atoms: O3_11  and  C8_12 
ROOT
HETATM    1  C8  UNL     1      17.035  -0.237  33.698  1.00  0.00     0.110 A 
HETATM    2  C9  UNL     1      15.654  -0.091  33.538  1.00  0.00     0.090 A 
HETATM    3 CL1  UNL     1      14.731  -1.140  32.485  1.00  0.00    -0.080 Cl
HETATM    4  C10 UNL     1      15.074   0.929  34.264  1.00  0.00     0.059 A 
HETATM    5 CL2  UNL     1      13.344   1.126  34.074  1.00  0.00    -0.082 Cl
HETATM    6  C11 UNL     1      15.776   1.752  35.085  1.00  0.00     0.042 A 
HETATM    7  C12 UNL     1      17.163   1.613  35.252  1.00  0.00     0.037 A 
HETATM    8  C13 UNL     1      17.735   0.603  34.534  1.00  0.00     0.055 A 
HETATM    9  S2  UNL     1      19.479   0.627  34.908  1.00  0.00    -0.080 SA
HETATM   10  C14 UNL     1      19.428   2.011  36.040  1.00  0.00     0.090 A 
HETATM   11  C15 UNL     1      20.451   2.556  36.698  1.00  0.00     0.124 C 
HETATM   12 CL3  UNL     1      20.242   3.909  37.773  1.00  0.00    -0.069 Cl
HETATM   13 CL4  UNL     1      22.067   1.911  36.495  1.00  0.00    -0.069 Cl
HETATM   14  C16 UNL     1      18.025   2.392  36.070  1.00  0.00     0.203 A 
HETATM   15  O4  UNL     1      17.659   3.382  36.814  1.00  0.00    -0.286 OA
ENDROOT
BRANCH   1  16
HETATM   16  O3  UNL     1      17.663  -1.241  32.997  1.00  0.00    -0.348 OA
BRANCH  16  17
HETATM   17  C7  UNL     1      17.831  -2.500  33.688  1.00  0.00     0.176 C 
BRANCH  17  18
HETATM   18  C6  UNL     1      19.029  -3.208  33.155  1.00  0.00     0.041 C 
BRANCH  18  19
HETATM   19  C5  UNL     1      19.201  -3.122  31.681  1.00  0.00     0.142 C 
BRANCH  19  20
HETATM   20  S1  UNL     1      20.538  -2.151  31.114  1.00  0.00     0.144 S 
HETATM   21  O1  UNL     1      21.077  -1.290  32.207  1.00  0.00    -0.228 OA
HETATM   22  O2  UNL     1      21.632  -3.116  30.677  1.00  0.00    -0.228 OA
BRANCH  20  23
HETATM   23  C4  UNL     1      20.120  -1.166  29.698  1.00  0.00     0.140 C 
BRANCH  23  24
HETATM   24  C3  UNL     1      19.379   0.088  30.104  1.00  0.00     0.014 C 
BRANCH  24  25
HETATM   25  C2  UNL     1      19.681   1.217  29.148  1.00  0.00    -0.004 C 
HETATM   26  C1  UNL     1      21.144   1.173  28.716  1.00  0.00     0.005 C 
ENDBRANCH  24  25
ENDBRANCH  23  24
ENDBRANCH  20  23
ENDBRANCH  19  20
ENDBRANCH  18  19
ENDBRANCH  17  18
ENDBRANCH  16  17
ENDBRANCH   1  16
TORSDOF 8
ENDMDL
