MODEL 1
REMARK VINA RESULT: -6.478998583      0.000      0.000
REMARK  7 active torsions:
REMARK  status: ('A' for Active; 'I' for Inactive)
REMARK    1  A    between atoms: O1_1  and  C1_3 
REMARK    2  A    between atoms: C1_3  and  C2_4 
REMARK    3  A    between atoms: C1_3  and  N1_12 
REMARK    4  A    between atoms: C2_4  and  C3_5 
REMARK    5  A    between atoms: C3_5  and  C4_6 
REMARK    6  A    between atoms: N1_12  and  C10_14 
REMARK    7  A    between atoms: C11_18  and  C12_19 
ROOT
HETATM    1  N1  UNL     1      35.715  -0.093  54.761  1.00  0.00    -0.356 N 
ATOM      2  H1  UNL     1      36.452  -0.633  55.214  1.00  0.00     0.162 HD
ENDROOT
BRANCH   1   3
HETATM    3  C1  UNL     1      34.601   0.101  55.582  1.00  0.00     0.218 C 
BRANCH   3   4
HETATM    4  O1  UNL     1      33.731  -1.035  55.512  1.00  0.00    -0.377 OA
ATOM      5  H1  UNL     1      33.474  -1.182  54.610  1.00  0.00     0.212 HD
ENDBRANCH   3   4
BRANCH   3   6
HETATM    6  C2  UNL     1      33.825   1.336  55.296  1.00  0.00     0.054 C 
BRANCH   6   7
HETATM    7  C3  UNL     1      32.383   1.184  55.019  1.00  0.00     0.009 C 
BRANCH   7   8
HETATM    8  C4  UNL     1      31.723   2.256  54.214  1.00  0.00    -0.014 C 
HETATM    9  C5  UNL     1      30.219   2.226  54.312  1.00  0.00     0.004 C 
HETATM   10  C6  UNL     1      29.664   3.484  54.949  1.00  0.00     0.000 C 
HETATM   11  C7  UNL     1      30.350   3.608  56.312  1.00  0.00     0.000 C 
HETATM   12  C8  UNL     1      31.780   3.983  56.041  1.00  0.00     0.000 C 
HETATM   13  C9  UNL     1      32.253   3.623  54.672  1.00  0.00     0.004 C 
ENDBRANCH   7   8
ENDBRANCH   6   7
ENDBRANCH   3   6
ENDBRANCH   1   3
BRANCH   1  14
HETATM   14  C10 UNL     1      36.013   0.254  53.573  1.00  0.00     0.112 A 
HETATM   15  S1  UNL     1      37.051   1.619  53.186  1.00  0.00     0.005 SA
HETATM   16  N2  UNL     1      37.025   1.514  51.522  1.00  0.00    -0.319 N 
HETATM   17  C11 UNL     1      36.245   0.465  51.271  1.00  0.00     0.147 A 
ATOM     18  H2  UNL     1      37.500   2.117  50.850  1.00  0.00     0.174 HD
HETATM   19  C13 UNL     1      35.717  -0.193  52.323  1.00  0.00     0.101 A 
HETATM   20 CL1  UNL     1      34.645  -1.629  52.117  1.00  0.00    -0.079 Cl
BRANCH  17  21
HETATM   21  C12 UNL     1      35.951   0.014  49.841  1.00  0.00     0.434 C 
HETATM   22  F1  UNL     1      34.614  -0.111  49.671  1.00  0.00    -0.165 F 
HETATM   23  F2  UNL     1      36.432   0.964  48.969  1.00  0.00    -0.165 F 
HETATM   24  F3  UNL     1      36.529  -1.229  49.622  1.00  0.00    -0.165 F 
ENDBRANCH  17  21
ENDBRANCH   1  14
TORSDOF 7
ENDMDL
MODEL 2
REMARK VINA RESULT: -6.415331504      1.388      1.762
REMARK  7 active torsions:
REMARK  status: ('A' for Active; 'I' for Inactive)
REMARK    1  A    between atoms: O1_1  and  C1_3 
REMARK    2  A    between atoms: C1_3  and  C2_4 
REMARK    3  A    between atoms: C1_3  and  N1_12 
REMARK    4  A    between atoms: C2_4  and  C3_5 
REMARK    5  A    between atoms: C3_5  and  C4_6 
REMARK    6  A    between atoms: N1_12  and  C10_14 
REMARK    7  A    between atoms: C11_18  and  C12_19 
ROOT
HETATM    1  N1  UNL     1      36.143   0.608  54.001  1.00  0.00    -0.356 N 
ATOM      2  H1  UNL     1      36.435  -0.061  54.713  1.00  0.00     0.162 HD
ENDROOT
BRANCH   1   3
HETATM    3  C1  UNL     1      35.031   1.361  54.385  1.00  0.00     0.218 C 
BRANCH   3   4
HETATM    4  O1  UNL     1      35.245   1.935  55.680  1.00  0.00    -0.377 OA
ATOM      5  H1  UNL     1      34.448   2.360  55.973  1.00  0.00     0.212 HD
ENDBRANCH   3   4
BRANCH   3   6
HETATM    6  C2  UNL     1      33.744   0.617  54.381  1.00  0.00     0.054 C 
BRANCH   6   7
HETATM    7  C3  UNL     1      32.581   1.265  55.019  1.00  0.00     0.009 C 
BRANCH   7   8
HETATM    8  C4  UNL     1      31.850   2.297  54.224  1.00  0.00    -0.014 C 
HETATM    9  C5  UNL     1      30.353   2.198  54.365  1.00  0.00     0.004 C 
HETATM   10  C6  UNL     1      29.757   3.435  55.007  1.00  0.00     0.000 C 
HETATM   11  C7  UNL     1      30.475   3.605  56.348  1.00  0.00     0.000 C 
HETATM   12  C8  UNL     1      31.877   4.043  56.033  1.00  0.00     0.000 C 
HETATM   13  C9  UNL     1      32.328   3.691  54.654  1.00  0.00     0.004 C 
ENDBRANCH   7   8
ENDBRANCH   6   7
ENDBRANCH   3   6
ENDBRANCH   1   3
BRANCH   1  14
HETATM   14  C10 UNL     1      36.873   0.572  52.958  1.00  0.00     0.112 A 
HETATM   15  S1  UNL     1      38.592   0.940  52.956  1.00  0.00     0.005 SA
HETATM   16  N2  UNL     1      38.916   0.710  51.336  1.00  0.00    -0.319 N 
HETATM   17  C11 UNL     1      37.742   0.361  50.813  1.00  0.00     0.147 A 
ATOM     18  H2  UNL     1      39.810   0.813  50.856  1.00  0.00     0.174 HD
HETATM   19  C13 UNL     1      36.680   0.287  51.642  1.00  0.00     0.101 A 
HETATM   20 CL1  UNL     1      35.037  -0.174  51.058  1.00  0.00    -0.079 Cl
BRANCH  17  21
HETATM   21  C12 UNL     1      37.592   0.054  49.325  1.00  0.00     0.434 C 
HETATM   22  F1  UNL     1      38.760   0.309  48.689  1.00  0.00    -0.165 F 
HETATM   23  F2  UNL     1      37.278  -1.279  49.177  1.00  0.00    -0.165 F 
HETATM   24  F3  UNL     1      36.619   0.879  48.779  1.00  0.00    -0.165 F 
ENDBRANCH  17  21
ENDBRANCH   1  14
TORSDOF 7
ENDMDL
MODEL 3
REMARK VINA RESULT: -6.224608827      1.893      2.054
REMARK  7 active torsions:
REMARK  status: ('A' for Active; 'I' for Inactive)
REMARK    1  A    between atoms: O1_1  and  C1_3 
REMARK    2  A    between atoms: C1_3  and  C2_4 
REMARK    3  A    between atoms: C1_3  and  N1_12 
REMARK    4  A    between atoms: C2_4  and  C3_5 
REMARK    5  A    between atoms: C3_5  and  C4_6 
REMARK    6  A    between atoms: N1_12  and  C10_14 
REMARK    7  A    between atoms: C11_18  and  C12_19 
ROOT
HETATM    1  N1  UNL     1      35.152  -1.086  53.877  1.00  0.00    -0.356 N 
ATOM      2  H1  UNL     1      35.768  -1.680  54.431  1.00  0.00     0.162 HD
ENDROOT
BRANCH   1   3
HETATM    3  C1  UNL     1      34.011  -0.683  54.576  1.00  0.00     0.218 C 
BRANCH   3   4
HETATM    4  O1  UNL     1      32.883  -1.474  54.179  1.00  0.00    -0.377 OA
ATOM      5  H1  UNL     1      32.754  -1.392  53.242  1.00  0.00     0.212 HD
ENDBRANCH   3   4
BRANCH   3   6
HETATM    6  C2  UNL     1      33.675   0.759  54.441  1.00  0.00     0.054 C 
BRANCH   6   7
HETATM    7  C3  UNL     1      32.350   1.196  54.923  1.00  0.00     0.009 C 
BRANCH   7   8
HETATM    8  C4  UNL     1      31.677   2.297  54.172  1.00  0.00    -0.014 C 
HETATM    9  C5  UNL     1      30.178   2.290  54.331  1.00  0.00     0.004 C 
HETATM   10  C6  UNL     1      29.670   3.541  55.020  1.00  0.00     0.000 C 
HETATM   11  C7  UNL     1      30.414   3.621  56.355  1.00  0.00     0.000 C 
HETATM   12  C8  UNL     1      31.837   3.979  56.035  1.00  0.00     0.000 C 
HETATM   13  C9  UNL     1      32.248   3.644  54.639  1.00  0.00     0.004 C 
ENDBRANCH   7   8
ENDBRANCH   6   7
ENDBRANCH   3   6
ENDBRANCH   1   3
BRANCH   1  14
HETATM   14  C10 UNL     1      35.593  -0.875  52.701  1.00  0.00     0.112 A 
HETATM   15  S1  UNL     1      35.021  -1.728  51.275  1.00  0.00     0.005 SA
HETATM   16  N2  UNL     1      35.978  -0.997  50.121  1.00  0.00    -0.319 N 
HETATM   17  C11 UNL     1      36.713  -0.125  50.808  1.00  0.00     0.147 A 
ATOM     18  H2  UNL     1      35.995  -1.177  49.117  1.00  0.00     0.174 HD
HETATM   19  C13 UNL     1      36.523  -0.053  52.141  1.00  0.00     0.101 A 
HETATM   20 CL1  UNL     1      37.454   1.085  53.185  1.00  0.00    -0.079 Cl
BRANCH  17  21
HETATM   21  C12 UNL     1      37.741   0.769  50.118  1.00  0.00     0.434 C 
HETATM   22  F1  UNL     1      37.495   2.065  50.426  1.00  0.00    -0.165 F 
HETATM   23  F2  UNL     1      38.997   0.428  50.567  1.00  0.00    -0.165 F 
HETATM   24  F3  UNL     1      37.626   0.627  48.743  1.00  0.00    -0.165 F 
ENDBRANCH  17  21
ENDBRANCH   1  14
TORSDOF 7
ENDMDL
MODEL 4
REMARK VINA RESULT: -6.214652936      2.061      2.260
REMARK  7 active torsions:
REMARK  status: ('A' for Active; 'I' for Inactive)
REMARK    1  A    between atoms: O1_1  and  C1_3 
REMARK    2  A    between atoms: C1_3  and  C2_4 
REMARK    3  A    between atoms: C1_3  and  N1_12 
REMARK    4  A    between atoms: C2_4  and  C3_5 
REMARK    5  A    between atoms: C3_5  and  C4_6 
REMARK    6  A    between atoms: N1_12  and  C10_14 
REMARK    7  A    between atoms: C11_18  and  C12_19 
ROOT
HETATM    1  N1  UNL     1      34.063  -1.587  54.581  1.00  0.00    -0.356 N 
ATOM      2  H1  UNL     1      34.800  -1.837  55.240  1.00  0.00     0.162 HD
ENDROOT
BRANCH   1   3
HETATM    3  C1  UNL     1      32.842  -1.319  55.206  1.00  0.00     0.218 C 
BRANCH   3   4
HETATM    4  O1  UNL     1      32.035  -2.502  55.244  1.00  0.00    -0.377 OA
ATOM      5  H1  UNL     1      31.117  -2.260  55.207  1.00  0.00     0.212 HD
ENDBRANCH   3   4
BRANCH   3   6
HETATM    6  C2  UNL     1      32.063  -0.209  54.599  1.00  0.00     0.054 C 
BRANCH   6   7
HETATM    7  C3  UNL     1      32.451   1.170  54.955  1.00  0.00     0.009 C 
BRANCH   7   8
HETATM    8  C4  UNL     1      31.813   2.282  54.189  1.00  0.00    -0.014 C 
HETATM    9  C5  UNL     1      30.310   2.292  54.306  1.00  0.00     0.004 C 
HETATM   10  C6  UNL     1      29.799   3.548  54.984  1.00  0.00     0.000 C 
HETATM   11  C7  UNL     1      30.506   3.615  56.340  1.00  0.00     0.000 C 
HETATM   12  C8  UNL     1      31.942   3.956  56.061  1.00  0.00     0.000 C 
HETATM   13  C9  UNL     1      32.388   3.620  54.677  1.00  0.00     0.004 C 
ENDBRANCH   7   8
ENDBRANCH   6   7
ENDBRANCH   3   6
ENDBRANCH   1   3
BRANCH   1  14
HETATM   14  C10 UNL     1      34.459  -1.588  53.371  1.00  0.00     0.112 A 
HETATM   15  S1  UNL     1      34.203  -2.927  52.261  1.00  0.00     0.005 SA
HETATM   16  N2  UNL     1      34.940  -2.297  50.904  1.00  0.00    -0.319 N 
HETATM   17  C11 UNL     1      35.369  -1.097  51.290  1.00  0.00     0.147 A 
ATOM     18  H2  UNL     1      35.039  -2.732  49.987  1.00  0.00     0.174 HD
HETATM   19  C13 UNL     1      35.126  -0.721  52.562  1.00  0.00     0.101 A 
HETATM   20 CL1  UNL     1      35.654   0.878  53.208  1.00  0.00    -0.079 Cl
BRANCH  17  21
HETATM   21  C12 UNL     1      36.113  -0.169  50.331  1.00  0.00     0.434 C 
HETATM   22  F1  UNL     1      37.237   0.292  50.928  1.00  0.00    -0.165 F 
HETATM   23  F2  UNL     1      36.457  -0.881  49.204  1.00  0.00    -0.165 F 
HETATM   24  F3  UNL     1      35.310   0.922  50.030  1.00  0.00    -0.165 F 
ENDBRANCH  17  21
ENDBRANCH   1  14
TORSDOF 7
ENDMDL
MODEL 5
REMARK VINA RESULT: -6.195331666      2.062      2.431
REMARK  7 active torsions:
REMARK  status: ('A' for Active; 'I' for Inactive)
REMARK    1  A    between atoms: O1_1  and  C1_3 
REMARK    2  A    between atoms: C1_3  and  C2_4 
REMARK    3  A    between atoms: C1_3  and  N1_12 
REMARK    4  A    between atoms: C2_4  and  C3_5 
REMARK    5  A    between atoms: C3_5  and  C4_6 
REMARK    6  A    between atoms: N1_12  and  C10_14 
REMARK    7  A    between atoms: C11_18  and  C12_19 
ROOT
HETATM    1  N1  UNL     1      35.264   0.005  55.340  1.00  0.00    -0.356 N 
ATOM      2  H1  UNL     1      35.964  -0.426  55.943  1.00  0.00     0.162 HD
ENDROOT
BRANCH   1   3
HETATM    3  C1  UNL     1      34.785   1.218  55.843  1.00  0.00     0.218 C 
BRANCH   3   4
HETATM    4  O1  UNL     1      34.970   1.272  57.263  1.00  0.00    -0.377 OA
ATOM      5  H1  UNL     1      34.144   1.484  57.681  1.00  0.00     0.212 HD
ENDBRANCH   3   4
BRANCH   3   6
HETATM    6  C2  UNL     1      33.364   1.508  55.519  1.00  0.00     0.054 C 
BRANCH   6   7
HETATM    7  C3  UNL     1      32.729   2.650  56.206  1.00  0.00     0.009 C 
BRANCH   7   8
HETATM    8  C4  UNL     1      32.025   3.656  55.356  1.00  0.00    -0.014 C 
HETATM    9  C5  UNL     1      31.683   3.132  53.984  1.00  0.00     0.004 C 
HETATM   10  C6  UNL     1      30.187   3.081  53.749  1.00  0.00     0.000 C 
HETATM   11  C7  UNL     1      29.609   2.225  54.878  1.00  0.00     0.000 C 
HETATM   12  C8  UNL     1      29.715   3.040  56.135  1.00  0.00     0.000 C 
HETATM   13  C9  UNL     1      30.749   4.115  56.076  1.00  0.00     0.004 C 
ENDBRANCH   7   8
ENDBRANCH   6   7
ENDBRANCH   3   6
ENDBRANCH   1   3
BRANCH   1  14
HETATM   14  C10 UNL     1      35.020  -0.681  54.295  1.00  0.00     0.112 A 
HETATM   15  S1  UNL     1      34.057  -2.150  54.295  1.00  0.00     0.005 SA
HETATM   16  N2  UNL     1      34.132  -2.523  52.671  1.00  0.00    -0.319 N 
HETATM   17  C11 UNL     1      34.873  -1.549  52.145  1.00  0.00     0.147 A 
ATOM     18  H2  UNL     1      33.707  -3.315  52.190  1.00  0.00     0.174 HD
HETATM   19  C13 UNL     1      35.337  -0.593  52.975  1.00  0.00     0.101 A 
HETATM   20 CL1  UNL     1      36.351   0.778  52.388  1.00  0.00    -0.079 Cl
BRANCH  17  21
HETATM   21  C12 UNL     1      35.194  -1.509  50.652  1.00  0.00     0.434 C 
HETATM   22  F1  UNL     1      34.648  -2.587  50.042  1.00  0.00    -0.165 F 
HETATM   23  F2  UNL     1      34.654  -0.362  50.114  1.00  0.00    -0.165 F 
HETATM   24  F3  UNL     1      36.569  -1.567  50.474  1.00  0.00    -0.165 F 
ENDBRANCH  17  21
ENDBRANCH   1  14
TORSDOF 7
ENDMDL
