MODEL 1
REMARK VINA RESULT: -8.327739394      0.000      0.000
REMARK  18 active torsions:
REMARK  status: ('A' for Active; 'I' for Inactive)
REMARK    1  A    between atoms: N1_1  and  C1_4 
REMARK    2  A    between atoms: C2_7  and  C3_8 
REMARK    3  A    between atoms: C3_8  and  O1_9 
REMARK    4  A    between atoms: C3_8  and  C4_11 
REMARK    5  A    between atoms: C4_11  and  O2_12 
REMARK    6  A    between atoms: C4_11  and  C5_14 
REMARK    7  A    between atoms: C5_14  and  O3_15 
REMARK    8  A    between atoms: C5_14  and  C6_17 
REMARK    9  A    between atoms: C6_17  and  O4_18 
REMARK   10  A    between atoms: C7_20  and  O5_21 
REMARK   11  A    between atoms: C8_23  and  C9_24 
REMARK   12  A    between atoms: N5_30  and  C11_31 
REMARK   13  A    between atoms: C11_31  and  C12_32 
REMARK   14  A    between atoms: C11_31  and  C15_41 
REMARK   15  A    between atoms: C13_35  and  N7_36 
REMARK   16  A    between atoms: N7_36  and  O6_38 
REMARK   17  A    between atoms: C16_44  and  O7_45 
REMARK   18  A    between atoms: C17_49  and  O8_50 
ROOT
HETATM    1  C9  UNL     1      15.601  44.838  -6.173  1.00  0.00     0.168 A 
HETATM    2  N3  UNL     1      16.804  44.235  -6.364  1.00  0.00    -0.168 N 
ATOM      3  H3  UNL     1      17.707  44.708  -6.337  1.00  0.00     0.186 HD
HETATM    4  C10 UNL     1      16.627  42.928  -6.594  1.00  0.00     0.738 A 
HETATM    5  N4  UNL     1      16.738  41.604  -6.846  1.00  0.00    -0.109 N 
ATOM      6  H4  UNL     1      17.528  40.981  -7.013  1.00  0.00     0.207 HD
HETATM    7  N5  UNL     1      15.438  41.425  -6.792  1.00  0.00    -0.167 N 
HETATM    8  N10 UNL     1      15.318  42.723  -6.545  1.00  0.00     0.002 N 
HETATM    9  N11 UNL     1      14.711  43.866  -6.295  1.00  0.00    -0.245 N 
ATOM     10  H11 UNL     1      13.702  43.984  -6.206  1.00  0.00     0.191 HD
ENDROOT
BRANCH   1  11
HETATM   11  C8  UNL     1      15.380  46.250  -5.878  1.00  0.00     0.130 A 
HETATM   12  C7  UNL     1      16.368  47.195  -5.994  1.00  0.00     0.122 A 
HETATM   13  C2  UNL     1      16.072  48.547  -5.692  1.00  0.00     0.093 A 
HETATM   14  N2  UNL     1      14.826  48.823  -5.306  1.00  0.00    -0.190 N 
HETATM   15  C1  UNL     1      13.854  47.895  -5.192  1.00  0.00     0.676 A 
ATOM     16  H2  UNL     1      14.595  49.792  -5.085  1.00  0.00     0.184 HD
HETATM   17  N12 UNL     1      14.137  46.613  -5.478  1.00  0.00    -0.185 N 
ATOM     18  H12 UNL     1      13.407  45.905  -5.393  1.00  0.00     0.184 HD
BRANCH  12  19
HETATM   19  O5  UNL     1      17.642  46.952  -6.382  1.00  0.00    -0.356 OA
ATOM     20  H5  UNL     1      17.770  46.157  -6.886  1.00  0.00     0.218 HD
ENDBRANCH  12  19
BRANCH  13  21
HETATM   21  C3  UNL     1      17.138  49.578  -5.804  1.00  0.00     0.202 C 
BRANCH  21  22
HETATM   22  O1  UNL     1      17.670  49.553  -7.071  1.00  0.00    -0.387 OA
ATOM     23  H1  UNL     1      17.555  50.402  -7.480  1.00  0.00     0.210 HD
ENDBRANCH  21  22
BRANCH  21  24
HETATM   24  C4  UNL     1      16.524  50.928  -5.552  1.00  0.00     0.183 C 
BRANCH  24  25
HETATM   25  O2  UNL     1      15.593  51.159  -6.553  1.00  0.00    -0.390 OA
ATOM     26  H2  UNL     1      15.996  51.732  -7.194  1.00  0.00     0.210 HD
ENDBRANCH  24  25
BRANCH  24  27
HETATM   27  C5  UNL     1      17.545  52.038  -5.602  1.00  0.00     0.173 C 
BRANCH  27  28
HETATM   28  O3  UNL     1      17.673  52.413  -6.943  1.00  0.00    -0.391 OA
ATOM     29  H3  UNL     1      16.849  52.813  -7.198  1.00  0.00     0.210 HD
ENDBRANCH  27  28
BRANCH  27  30
HETATM   30  C6  UNL     1      17.080  53.248  -4.808  1.00  0.00     0.198 C 
BRANCH  30  31
HETATM   31  O4  UNL     1      16.103  53.945  -5.502  1.00  0.00    -0.398 OA
ATOM     32  H4  UNL     1      15.297  53.983  -5.003  1.00  0.00     0.209 HD
ENDBRANCH  30  31
ENDBRANCH  27  30
ENDBRANCH  24  27
ENDBRANCH  21  24
ENDBRANCH  13  21
BRANCH  15  33
HETATM   33  N1  UNL     1      12.674  48.252  -4.815  1.00  0.00    -0.234 N 
ATOM     34  H12 UNL     1      12.288  49.162  -5.070  1.00  0.00     0.174 HD
ATOM     35  H11 UNL     1      12.113  47.617  -4.247  1.00  0.00     0.174 HD
ENDBRANCH  15  33
ENDBRANCH   1  11
BRANCH   7  36
HETATM   36  C11 UNL     1      14.524  40.328  -6.921  1.00  0.00     0.229 C 
BRANCH  36  37
HETATM   37  C12 UNL     1      13.556  40.399  -5.786  1.00  0.00     0.020 A 
HETATM   38  N6  UNL     1      12.324  40.442  -5.573  1.00  0.00    -0.371 N 
HETATM   39  C13 UNL     1      12.346  40.496  -4.177  1.00  0.00     0.208 A 
ATOM     40  H6  UNL     1      11.538  40.439  -6.224  1.00  0.00     0.161 HD
HETATM   41  C14 UNL     1      13.816  40.452  -4.329  1.00  0.00     0.103 A 
BRANCH  39  42
HETATM   42  N7  UNL     1      11.757  39.327  -3.589  1.00  0.00    -0.281 N 
ATOM     43  H7  UNL     1      12.321  38.488  -3.458  1.00  0.00     0.189 HD
BRANCH  42  44
HETATM   44  O6  UNL     1      10.607  39.330  -3.251  1.00  0.00    -0.292 OA
ATOM     45  H6  UNL     1      10.340  38.899  -2.447  1.00  0.00     0.244 HD
ENDBRANCH  42  44
ENDBRANCH  39  42
ENDBRANCH  36  37
BRANCH  36  46
HETATM   46  C15 UNL     1      13.831  40.286  -8.212  1.00  0.00     0.096 A 
HETATM   47  N8  UNL     1      13.940  39.317  -9.137  1.00  0.00    -0.320 N 
HETATM   48  C16 UNL     1      13.174  39.582 -10.203  1.00  0.00     0.223 A 
ATOM     49  H8  UNL     1      14.528  38.489  -9.040  1.00  0.00     0.169 HD
HETATM   50  N9  UNL     1      12.557  40.746  -9.961  1.00  0.00    -0.301 N 
HETATM   51  C17 UNL     1      12.941  41.191  -8.761  1.00  0.00     0.169 A 
ATOM     52  H9  UNL     1      11.903  41.214 -10.589  1.00  0.00     0.171 HD
BRANCH  48  53
HETATM   53  O7  UNL     1      13.044  38.780 -11.360  1.00  0.00    -0.332 OA
ATOM     54  H7  UNL     1      12.530  37.985 -11.439  1.00  0.00     0.221 HD
ENDBRANCH  48  53
BRANCH  51  55
HETATM   55  O8  UNL     1      12.529  42.379  -8.126  1.00  0.00    -0.344 OA
ATOM     56  H8  UNL     1      11.641  42.544  -7.830  1.00  0.00     0.219 HD
ENDBRANCH  51  55
ENDBRANCH  36  46
ENDBRANCH   7  36
TORSDOF 18
ENDMDL
MODEL 2
REMARK VINA RESULT: -8.045861763      6.128     10.545
REMARK  18 active torsions:
REMARK  status: ('A' for Active; 'I' for Inactive)
REMARK    1  A    between atoms: N1_1  and  C1_4 
REMARK    2  A    between atoms: C2_7  and  C3_8 
REMARK    3  A    between atoms: C3_8  and  O1_9 
REMARK    4  A    between atoms: C3_8  and  C4_11 
REMARK    5  A    between atoms: C4_11  and  O2_12 
REMARK    6  A    between atoms: C4_11  and  C5_14 
REMARK    7  A    between atoms: C5_14  and  O3_15 
REMARK    8  A    between atoms: C5_14  and  C6_17 
REMARK    9  A    between atoms: C6_17  and  O4_18 
REMARK   10  A    between atoms: C7_20  and  O5_21 
REMARK   11  A    between atoms: C8_23  and  C9_24 
REMARK   12  A    between atoms: N5_30  and  C11_31 
REMARK   13  A    between atoms: C11_31  and  C12_32 
REMARK   14  A    between atoms: C11_31  and  C15_41 
REMARK   15  A    between atoms: C13_35  and  N7_36 
REMARK   16  A    between atoms: N7_36  and  O6_38 
REMARK   17  A    between atoms: C16_44  and  O7_45 
REMARK   18  A    between atoms: C17_49  and  O8_50 
ROOT
HETATM    1  C9  UNL     1      19.971  47.166  -9.160  1.00  0.00     0.168 A 
HETATM    2  N3  UNL     1      19.510  48.210  -9.899  1.00  0.00    -0.168 N 
ATOM      3  H3  UNL     1      19.740  48.382 -10.877  1.00  0.00     0.186 HD
HETATM    4  C10 UNL     1      18.710  48.978  -9.151  1.00  0.00     0.738 A 
HETATM    5  N4  UNL     1      17.877  49.912  -8.637  1.00  0.00    -0.109 N 
ATOM      6  H4  UNL     1      17.433  50.748  -9.018  1.00  0.00     0.207 HD
HETATM    7  N5  UNL     1      17.857  49.332  -7.459  1.00  0.00    -0.167 N 
HETATM    8  N10 UNL     1      18.675  48.411  -7.952  1.00  0.00     0.002 N 
HETATM    9  N11 UNL     1      19.430  47.331  -7.964  1.00  0.00    -0.245 N 
ATOM     10  H11 UNL     1      19.576  46.712  -7.167  1.00  0.00     0.191 HD
ENDROOT
BRANCH   1  11
HETATM   11  C8  UNL     1      20.853  46.101  -9.627  1.00  0.00     0.130 A 
HETATM   12  C7  UNL     1      21.494  46.147 -10.839  1.00  0.00     0.122 A 
HETATM   13  C2  UNL     1      22.337  45.074 -11.217  1.00  0.00     0.093 A 
HETATM   14  N2  UNL     1      22.459  44.065 -10.355  1.00  0.00    -0.190 N 
HETATM   15  C1  UNL     1      21.829  44.018  -9.162  1.00  0.00     0.676 A 
ATOM     16  H2  UNL     1      23.062  43.283 -10.611  1.00  0.00     0.184 HD
HETATM   17  N12 UNL     1      21.029  45.036  -8.806  1.00  0.00    -0.185 N 
ATOM     18  H12 UNL     1      20.548  45.008  -7.906  1.00  0.00     0.184 HD
BRANCH  12  19
HETATM   19  O5  UNL     1      21.396  47.154 -11.739  1.00  0.00    -0.356 OA
ATOM     20  H5  UNL     1      20.961  47.939 -11.427  1.00  0.00     0.218 HD
ENDBRANCH  12  19
BRANCH  13  21
HETATM   21  C3  UNL     1      23.029  45.108 -12.534  1.00  0.00     0.202 C 
BRANCH  21  22
HETATM   22  O1  UNL     1      22.654  46.239 -13.220  1.00  0.00    -0.387 OA
ATOM     23  H1  UNL     1      21.991  46.016 -13.862  1.00  0.00     0.210 HD
ENDBRANCH  21  22
BRANCH  21  24
HETATM   24  C4  UNL     1      24.514  45.146 -12.292  1.00  0.00     0.183 C 
BRANCH  24  25
HETATM   25  O2  UNL     1      24.999  46.319 -12.848  1.00  0.00    -0.390 OA
ATOM     26  H2  UNL     1      25.946  46.258 -12.865  1.00  0.00     0.210 HD
ENDBRANCH  24  25
BRANCH  24  27
HETATM   27  C5  UNL     1      25.228  43.990 -12.948  1.00  0.00     0.173 C 
BRANCH  27  28
HETATM   28  O3  UNL     1      26.535  44.414 -13.206  1.00  0.00    -0.391 OA
ATOM     29  H3  UNL     1      26.522  44.850 -14.051  1.00  0.00     0.210 HD
ENDBRANCH  27  28
BRANCH  27  30
HETATM   30  C6  UNL     1      25.289  42.787 -12.021  1.00  0.00     0.198 C 
BRANCH  30  31
HETATM   31  O4  UNL     1      26.604  42.425 -11.771  1.00  0.00    -0.398 OA
ATOM     32  H4  UNL     1      26.642  41.642 -11.235  1.00  0.00     0.209 HD
ENDBRANCH  30  31
ENDBRANCH  27  30
ENDBRANCH  24  27
ENDBRANCH  21  24
ENDBRANCH  13  21
BRANCH  15  33
HETATM   33  N1  UNL     1      22.007  43.003  -8.388  1.00  0.00    -0.234 N 
ATOM     34  H12 UNL     1      22.683  42.273  -8.616  1.00  0.00     0.174 HD
ATOM     35  H11 UNL     1      21.461  42.922  -7.530  1.00  0.00     0.174 HD
ENDBRANCH  15  33
ENDBRANCH   1  11
BRANCH   7  36
HETATM   36  C11 UNL     1      17.231  49.558  -6.189  1.00  0.00     0.229 C 
BRANCH  36  37
HETATM   37  C12 UNL     1      17.304  51.021  -5.894  1.00  0.00     0.020 A 
HETATM   38  N6  UNL     1      17.410  52.118  -6.487  1.00  0.00    -0.371 N 
HETATM   39  C13 UNL     1      17.393  52.966  -5.376  1.00  0.00     0.208 A 
ATOM     40  H6  UNL     1      17.487  52.329  -7.481  1.00  0.00     0.161 HD
HETATM   41  C14 UNL     1      17.268  51.720  -4.589  1.00  0.00     0.103 A 
BRANCH  39  42
HETATM   42  N7  UNL     1      16.235  53.812  -5.369  1.00  0.00    -0.281 N 
ATOM     43  H7  UNL     1      15.333  53.438  -5.662  1.00  0.00     0.189 HD
BRANCH  42  44
HETATM   44  O6  UNL     1      16.319  54.956  -5.023  1.00  0.00    -0.292 OA
ATOM     45  H6  UNL     1      16.726  55.603  -5.587  1.00  0.00     0.244 HD
ENDBRANCH  42  44
ENDBRANCH  39  42
ENDBRANCH  36  37
BRANCH  36  46
HETATM   46  C15 UNL     1      15.853  49.066  -6.115  1.00  0.00     0.096 A 
HETATM   47  N8  UNL     1      15.352  48.257  -5.166  1.00  0.00    -0.320 N 
HETATM   48  C16 UNL     1      14.057  47.997  -5.390  1.00  0.00     0.223 A 
ATOM     49  H8  UNL     1      15.886  47.890  -4.378  1.00  0.00     0.169 HD
HETATM   50  N9  UNL     1      13.715  48.651  -6.507  1.00  0.00    -0.301 N 
HETATM   51  C17 UNL     1      14.787  49.305  -6.964  1.00  0.00     0.169 A 
ATOM     52  H9  UNL     1      12.790  48.651  -6.937  1.00  0.00     0.171 HD
BRANCH  48  53
HETATM   53  O7  UNL     1      13.217  47.185  -4.594  1.00  0.00    -0.332 OA
ATOM     54  H7  UNL     1      12.834  46.353  -4.848  1.00  0.00     0.221 HD
ENDBRANCH  48  53
BRANCH  51  55
HETATM   55  O8  UNL     1      14.861  50.115  -8.115  1.00  0.00    -0.344 OA
ATOM     56  H8  UNL     1      14.227  50.092  -8.823  1.00  0.00     0.219 HD
ENDBRANCH  51  55
ENDBRANCH  36  46
ENDBRANCH   7  36
TORSDOF 18
ENDMDL
MODEL 3
REMARK VINA RESULT: -7.967318221      5.878      9.813
REMARK  18 active torsions:
REMARK  status: ('A' for Active; 'I' for Inactive)
REMARK    1  A    between atoms: N1_1  and  C1_4 
REMARK    2  A    between atoms: C2_7  and  C3_8 
REMARK    3  A    between atoms: C3_8  and  O1_9 
REMARK    4  A    between atoms: C3_8  and  C4_11 
REMARK    5  A    between atoms: C4_11  and  O2_12 
REMARK    6  A    between atoms: C4_11  and  C5_14 
REMARK    7  A    between atoms: C5_14  and  O3_15 
REMARK    8  A    between atoms: C5_14  and  C6_17 
REMARK    9  A    between atoms: C6_17  and  O4_18 
REMARK   10  A    between atoms: C7_20  and  O5_21 
REMARK   11  A    between atoms: C8_23  and  C9_24 
REMARK   12  A    between atoms: N5_30  and  C11_31 
REMARK   13  A    between atoms: C11_31  and  C12_32 
REMARK   14  A    between atoms: C11_31  and  C15_41 
REMARK   15  A    between atoms: C13_35  and  N7_36 
REMARK   16  A    between atoms: N7_36  and  O6_38 
REMARK   17  A    between atoms: C16_44  and  O7_45 
REMARK   18  A    between atoms: C17_49  and  O8_50 
ROOT
HETATM    1  C9  UNL     1      19.602  47.771  -7.347  1.00  0.00     0.168 A 
HETATM    2  N3  UNL     1      20.101  47.135  -6.253  1.00  0.00    -0.168 N 
ATOM      3  H3  UNL     1      20.907  46.511  -6.256  1.00  0.00     0.186 HD
HETATM    4  C10 UNL     1      19.376  47.451  -5.173  1.00  0.00     0.738 A 
HETATM    5  N4  UNL     1      18.830  47.596  -3.944  1.00  0.00    -0.109 N 
ATOM      6  H4  UNL     1      19.052  47.215  -3.025  1.00  0.00     0.207 HD
HETATM    7  N5  UNL     1      17.904  48.416  -4.388  1.00  0.00    -0.167 N 
HETATM    8  N10 UNL     1      18.431  48.280  -5.598  1.00  0.00     0.002 N 
HETATM    9  N11 UNL     1      18.571  48.466  -6.895  1.00  0.00    -0.245 N 
ATOM     10  H11 UNL     1      17.971  49.060  -7.467  1.00  0.00     0.191 HD
ENDROOT
BRANCH   1  11
HETATM   11  C8  UNL     1      20.130  47.694  -8.705  1.00  0.00     0.130 A 
HETATM   12  C7  UNL     1      20.685  46.551  -9.222  1.00  0.00     0.122 A 
HETATM   13  C2  UNL     1      21.172  46.558 -10.552  1.00  0.00     0.093 A 
HETATM   14  N2  UNL     1      21.059  47.698 -11.233  1.00  0.00    -0.190 N 
HETATM   15  C1  UNL     1      20.514  48.823 -10.726  1.00  0.00     0.676 A 
ATOM     16  H2  UNL     1      21.405  47.721 -12.193  1.00  0.00     0.184 HD
HETATM   17  N12 UNL     1      20.053  48.815  -9.465  1.00  0.00    -0.185 N 
ATOM     18  H12 UNL     1      19.641  49.662  -9.074  1.00  0.00     0.184 HD
BRANCH  12  19
HETATM   19  O5  UNL     1      20.816  45.376  -8.561  1.00  0.00    -0.356 OA
ATOM     20  H5  UNL     1      20.151  44.725  -8.752  1.00  0.00     0.218 HD
ENDBRANCH  12  19
BRANCH  13  21
HETATM   21  C3  UNL     1      21.785  45.327 -11.119  1.00  0.00     0.202 C 
BRANCH  21  22
HETATM   22  O1  UNL     1      20.868  44.682 -11.915  1.00  0.00    -0.387 OA
ATOM     23  H1  UNL     1      21.228  43.852 -12.204  1.00  0.00     0.210 HD
ENDBRANCH  21  22
BRANCH  21  24
HETATM   24  C4  UNL     1      22.971  45.726 -11.955  1.00  0.00     0.183 C 
BRANCH  24  25
HETATM   25  O2  UNL     1      22.499  46.083 -13.208  1.00  0.00    -0.390 OA
ATOM     26  H2  UNL     1      23.153  45.824 -13.846  1.00  0.00     0.210 HD
ENDBRANCH  24  25
BRANCH  24  27
HETATM   27  C5  UNL     1      23.952  44.593 -12.132  1.00  0.00     0.173 C 
BRANCH  27  28
HETATM   28  O3  UNL     1      23.201  43.445 -12.404  1.00  0.00    -0.391 OA
ATOM     29  H3  UNL     1      23.552  43.068 -13.203  1.00  0.00     0.210 HD
ENDBRANCH  27  28
BRANCH  27  30
HETATM   30  C6  UNL     1      24.879  44.850 -13.309  1.00  0.00     0.198 C 
BRANCH  30  31
HETATM   31  O4  UNL     1      25.493  46.087 -13.190  1.00  0.00    -0.398 OA
ATOM     32  H4  UNL     1      26.124  46.218 -13.888  1.00  0.00     0.209 HD
ENDBRANCH  30  31
ENDBRANCH  27  30
ENDBRANCH  24  27
ENDBRANCH  21  24
ENDBRANCH  13  21
BRANCH  15  33
HETATM   33  N1  UNL     1      20.442  49.881 -11.459  1.00  0.00    -0.234 N 
ATOM     34  H12 UNL     1      20.007  49.859 -12.382  1.00  0.00     0.174 HD
ATOM     35  H11 UNL     1      20.830  50.759 -11.114  1.00  0.00     0.174 HD
ENDBRANCH  15  33
ENDBRANCH   1  11
BRANCH   7  36
HETATM   36  C11 UNL     1      16.808  49.156  -3.836  1.00  0.00     0.229 C 
BRANCH  36  37
HETATM   37  C12 UNL     1      17.076  50.609  -4.056  1.00  0.00     0.020 A 
HETATM   38  N6  UNL     1      17.477  51.389  -4.948  1.00  0.00    -0.371 N 
HETATM   39  C13 UNL     1      17.404  52.589  -4.236  1.00  0.00     0.208 A 
ATOM     40  H6  UNL     1      17.769  51.204  -5.908  1.00  0.00     0.161 HD
HETATM   41  C14 UNL     1      16.924  51.746  -3.119  1.00  0.00     0.103 A 
BRANCH  39  42
HETATM   42  N7  UNL     1      16.427  53.481  -4.792  1.00  0.00    -0.281 N 
ATOM     43  H7  UNL     1      15.473  53.154  -4.946  1.00  0.00     0.189 HD
BRANCH  42  44
HETATM   44  O6  UNL     1      16.723  54.606  -5.076  1.00  0.00    -0.292 OA
ATOM     45  H6  UNL     1      16.254  55.340  -4.696  1.00  0.00     0.244 HD
ENDBRANCH  42  44
ENDBRANCH  39  42
ENDBRANCH  36  37
BRANCH  36  46
HETATM   46  C15 UNL     1      15.502  48.767  -4.374  1.00  0.00     0.096 A 
HETATM   47  N8  UNL     1      14.548  48.082  -3.720  1.00  0.00    -0.320 N 
HETATM   48  C16 UNL     1      13.474  47.891  -4.497  1.00  0.00     0.223 A 
ATOM     49  H8  UNL     1      14.630  47.752  -2.758  1.00  0.00     0.169 HD
HETATM   50  N9  UNL     1      13.740  48.464  -5.678  1.00  0.00    -0.301 N 
HETATM   51  C17 UNL     1      14.963  49.000  -5.627  1.00  0.00     0.169 A 
ATOM     52  H9  UNL     1      13.113  48.487  -6.482  1.00  0.00     0.171 HD
BRANCH  48  53
HETATM   53  O7  UNL     1      12.288  47.213  -4.133  1.00  0.00    -0.332 OA
ATOM     54  H7  UNL     1      11.407  47.429  -4.416  1.00  0.00     0.221 HD
ENDBRANCH  48  53
BRANCH  51  55
HETATM   55  O8  UNL     1      15.627  49.696  -6.656  1.00  0.00    -0.344 OA
ATOM     56  H8  UNL     1      16.315  49.321  -7.193  1.00  0.00     0.219 HD
ENDBRANCH  51  55
ENDBRANCH  36  46
ENDBRANCH   7  36
TORSDOF 18
ENDMDL
MODEL 4
REMARK VINA RESULT: -7.947023877      4.489      7.861
REMARK  18 active torsions:
REMARK  status: ('A' for Active; 'I' for Inactive)
REMARK    1  A    between atoms: N1_1  and  C1_4 
REMARK    2  A    between atoms: C2_7  and  C3_8 
REMARK    3  A    between atoms: C3_8  and  O1_9 
REMARK    4  A    between atoms: C3_8  and  C4_11 
REMARK    5  A    between atoms: C4_11  and  O2_12 
REMARK    6  A    between atoms: C4_11  and  C5_14 
REMARK    7  A    between atoms: C5_14  and  O3_15 
REMARK    8  A    between atoms: C5_14  and  C6_17 
REMARK    9  A    between atoms: C6_17  and  O4_18 
REMARK   10  A    between atoms: C7_20  and  O5_21 
REMARK   11  A    between atoms: C8_23  and  C9_24 
REMARK   12  A    between atoms: N5_30  and  C11_31 
REMARK   13  A    between atoms: C11_31  and  C12_32 
REMARK   14  A    between atoms: C11_31  and  C15_41 
REMARK   15  A    between atoms: C13_35  and  N7_36 
REMARK   16  A    between atoms: N7_36  and  O6_38 
REMARK   17  A    between atoms: C16_44  and  O7_45 
REMARK   18  A    between atoms: C17_49  and  O8_50 
ROOT
HETATM    1  C9  UNL     1      16.256  49.788  -8.710  1.00  0.00     0.168 A 
HETATM    2  N3  UNL     1      14.924  50.021  -8.570  1.00  0.00    -0.168 N 
ATOM      3  H3  UNL     1      14.374  50.647  -9.158  1.00  0.00     0.186 HD
HETATM    4  C10 UNL     1      14.443  49.308  -7.545  1.00  0.00     0.738 A 
HETATM    5  N4  UNL     1      13.704  48.710  -6.582  1.00  0.00    -0.109 N 
ATOM      6  H4  UNL     1      12.719  48.753  -6.320  1.00  0.00     0.207 HD
HETATM    7  N5  UNL     1      14.740  48.053  -6.113  1.00  0.00    -0.167 N 
HETATM    8  N10 UNL     1      15.474  48.634  -7.053  1.00  0.00     0.002 N 
HETATM    9  N11 UNL     1      16.552  48.926  -7.751  1.00  0.00    -0.245 N 
ATOM     10  H11 UNL     1      17.481  48.542  -7.578  1.00  0.00     0.191 HD
ENDROOT
BRANCH   1  11
HETATM   11  C8  UNL     1      17.131  50.366  -9.725  1.00  0.00     0.130 A 
HETATM   12  C7  UNL     1      16.861  51.560 -10.344  1.00  0.00     0.122 A 
HETATM   13  C2  UNL     1      17.764  52.056 -11.317  1.00  0.00     0.093 A 
HETATM   14  N2  UNL     1      18.842  51.316 -11.576  1.00  0.00    -0.190 N 
HETATM   15  C1  UNL     1      19.109  50.141 -10.968  1.00  0.00     0.676 A 
ATOM     16  H2  UNL     1      19.503  51.657 -12.274  1.00  0.00     0.184 HD
HETATM   17  N12 UNL     1      18.251  49.673 -10.046  1.00  0.00    -0.185 N 
ATOM     18  H12 UNL     1      18.445  48.785  -9.583  1.00  0.00     0.184 HD
BRANCH  12  19
HETATM   19  O5  UNL     1      15.778  52.338 -10.107  1.00  0.00    -0.356 OA
ATOM     20  H5  UNL     1      15.399  52.255  -9.240  1.00  0.00     0.218 HD
ENDBRANCH  12  19
BRANCH  13  21
HETATM   21  C3  UNL     1      17.475  53.344 -12.002  1.00  0.00     0.202 C 
BRANCH  21  22
HETATM   22  O1  UNL     1      16.171  53.351 -12.437  1.00  0.00    -0.387 OA
ATOM     23  H1  UNL     1      15.929  54.230 -12.701  1.00  0.00     0.210 HD
ENDBRANCH  21  22
BRANCH  21  24
HETATM   24  C4  UNL     1      17.673  54.464 -11.017  1.00  0.00     0.183 C 
BRANCH  24  25
HETATM   25  O2  UNL     1      16.529  55.245 -11.034  1.00  0.00    -0.390 OA
ATOM     26  H2  UNL     1      16.802  56.153 -11.093  1.00  0.00     0.210 HD
ENDBRANCH  24  25
BRANCH  24  27
HETATM   27  C5  UNL     1      18.844  55.343 -11.381  1.00  0.00     0.173 C 
BRANCH  27  28
HETATM   28  O3  UNL     1      18.344  56.641 -11.536  1.00  0.00    -0.391 OA
ATOM     29  H3  UNL     1      18.408  57.064 -10.687  1.00  0.00     0.210 HD
ENDBRANCH  27  28
BRANCH  27  30
HETATM   30  C6  UNL     1      19.883  55.359 -10.272  1.00  0.00     0.198 C 
BRANCH  30  31
HETATM   31  O4  UNL     1      20.192  56.661  -9.906  1.00  0.00    -0.398 OA
ATOM     32  H4  UNL     1      20.568  57.136 -10.638  1.00  0.00     0.209 HD
ENDBRANCH  30  31
ENDBRANCH  27  30
ENDBRANCH  24  27
ENDBRANCH  21  24
ENDBRANCH  13  21
BRANCH  15  33
HETATM   33  N1  UNL     1      20.179  49.493 -11.278  1.00  0.00    -0.234 N 
ATOM     34  H12 UNL     1      20.222  48.909 -12.114  1.00  0.00     0.174 HD
ATOM     35  H11 UNL     1      21.001  49.561 -10.677  1.00  0.00     0.174 HD
ENDBRANCH  15  33
ENDBRANCH   1  11
BRANCH   7  36
HETATM   36  C11 UNL     1      14.996  47.111  -5.064  1.00  0.00     0.229 C 
BRANCH  36  37
HETATM   37  C12 UNL     1      15.900  46.052  -5.607  1.00  0.00     0.020 A 
HETATM   38  N6  UNL     1      16.904  45.382  -5.277  1.00  0.00    -0.371 N 
HETATM   39  C13 UNL     1      17.052  44.626  -6.442  1.00  0.00     0.208 A 
ATOM     40  H6  UNL     1      17.450  45.387  -4.415  1.00  0.00     0.161 HD
HETATM   41  C14 UNL     1      15.868  45.372  -6.921  1.00  0.00     0.103 A 
BRANCH  39  42
HETATM   42  N7  UNL     1      16.838  43.228  -6.202  1.00  0.00    -0.281 N 
ATOM     43  H7  UNL     1      15.911  42.827  -6.341  1.00  0.00     0.189 HD
BRANCH  42  44
HETATM   44  O6  UNL     1      17.740  42.528  -5.839  1.00  0.00    -0.292 OA
ATOM     45  H6  UNL     1      17.566  41.728  -5.356  1.00  0.00     0.244 HD
ENDBRANCH  42  44
ENDBRANCH  39  42
ENDBRANCH  36  37
BRANCH  36  46
HETATM   46  C15 UNL     1      15.550  47.714  -3.849  1.00  0.00     0.096 A 
HETATM   47  N8  UNL     1      15.930  48.996  -3.704  1.00  0.00    -0.320 N 
HETATM   48  C16 UNL     1      16.392  49.223  -2.468  1.00  0.00     0.223 A 
ATOM     49  H8  UNL     1      15.872  49.702  -4.438  1.00  0.00     0.169 HD
HETATM   50  N9  UNL     1      16.310  48.065  -1.801  1.00  0.00    -0.301 N 
HETATM   51  C17 UNL     1      15.803  47.137  -2.618  1.00  0.00     0.169 A 
ATOM     52  H9  UNL     1      16.587  47.917  -0.830  1.00  0.00     0.171 HD
BRANCH  48  53
HETATM   53  O7  UNL     1      16.874  50.456  -1.969  1.00  0.00    -0.332 OA
ATOM     54  H7  UNL     1      17.116  50.642  -1.069  1.00  0.00     0.221 HD
ENDBRANCH  48  53
BRANCH  51  55
HETATM   55  O8  UNL     1      15.552  45.785  -2.313  1.00  0.00    -0.344 OA
ATOM     56  H8  UNL     1      16.230  45.148  -2.118  1.00  0.00     0.219 HD
ENDBRANCH  51  55
ENDBRANCH  36  46
ENDBRANCH   7  36
TORSDOF 18
ENDMDL
MODEL 5
REMARK VINA RESULT: -7.919594372      5.662     10.265
REMARK  18 active torsions:
REMARK  status: ('A' for Active; 'I' for Inactive)
REMARK    1  A    between atoms: N1_1  and  C1_4 
REMARK    2  A    between atoms: C2_7  and  C3_8 
REMARK    3  A    between atoms: C3_8  and  O1_9 
REMARK    4  A    between atoms: C3_8  and  C4_11 
REMARK    5  A    between atoms: C4_11  and  O2_12 
REMARK    6  A    between atoms: C4_11  and  C5_14 
REMARK    7  A    between atoms: C5_14  and  O3_15 
REMARK    8  A    between atoms: C5_14  and  C6_17 
REMARK    9  A    between atoms: C6_17  and  O4_18 
REMARK   10  A    between atoms: C7_20  and  O5_21 
REMARK   11  A    between atoms: C8_23  and  C9_24 
REMARK   12  A    between atoms: N5_30  and  C11_31 
REMARK   13  A    between atoms: C11_31  and  C12_32 
REMARK   14  A    between atoms: C11_31  and  C15_41 
REMARK   15  A    between atoms: C13_35  and  N7_36 
REMARK   16  A    between atoms: N7_36  and  O6_38 
REMARK   17  A    between atoms: C16_44  and  O7_45 
REMARK   18  A    between atoms: C17_49  and  O8_50 
ROOT
HETATM    1  C9  UNL     1      19.675  46.732  -7.981  1.00  0.00     0.168 A 
HETATM    2  N3  UNL     1      19.587  47.802  -8.816  1.00  0.00    -0.168 N 
ATOM      3  H3  UNL     1      20.034  47.870  -9.730  1.00  0.00     0.186 HD
HETATM    4  C10 UNL     1      18.827  48.753  -8.260  1.00  0.00     0.738 A 
HETATM    5  N4  UNL     1      18.115  49.858  -7.942  1.00  0.00    -0.109 N 
ATOM      6  H4  UNL     1      17.931  50.740  -8.420  1.00  0.00     0.207 HD
HETATM    7  N5  UNL     1      17.749  49.361  -6.783  1.00  0.00    -0.167 N 
HETATM    8  N10 UNL     1      18.445  48.273  -7.084  1.00  0.00     0.002 N 
HETATM    9  N11 UNL     1      18.954  47.068  -6.923  1.00  0.00    -0.245 N 
ATOM     10  H11 UNL     1      18.814  46.479  -6.103  1.00  0.00     0.191 HD
ENDROOT
BRANCH   1  11
HETATM   11  C8  UNL     1      20.398  45.492  -8.241  1.00  0.00     0.130 A 
HETATM   12  C7  UNL     1      20.329  44.404  -7.408  1.00  0.00     0.122 A 
HETATM   13  C2  UNL     1      21.059  43.235  -7.733  1.00  0.00     0.093 A 
HETATM   14  N2  UNL     1      21.784  43.265  -8.851  1.00  0.00    -0.190 N 
HETATM   15  C1  UNL     1      21.854  44.334  -9.672  1.00  0.00     0.676 A 
ATOM     16  H2  UNL     1      22.317  42.431  -9.101  1.00  0.00     0.184 HD
HETATM   17  N12 UNL     1      21.161  45.442  -9.361  1.00  0.00    -0.185 N 
ATOM     18  H12 UNL     1      21.209  46.255  -9.976  1.00  0.00     0.184 HD
BRANCH  12  19
HETATM   19  O5  UNL     1      19.604  44.337  -6.266  1.00  0.00    -0.356 OA
ATOM     20  H5  UNL     1      19.277  45.168  -5.942  1.00  0.00     0.218 HD
ENDBRANCH  12  19
BRANCH  13  21
HETATM   21  C3  UNL     1      21.000  42.054  -6.832  1.00  0.00     0.202 C 
BRANCH  21  22
HETATM   22  O1  UNL     1      20.453  40.988  -7.507  1.00  0.00    -0.387 OA
ATOM     23  H1  UNL     1      20.387  40.242  -6.923  1.00  0.00     0.210 HD
ENDBRANCH  21  22
BRANCH  21  24
HETATM   24  C4  UNL     1      22.402  41.705  -6.409  1.00  0.00     0.183 C 
BRANCH  24  25
HETATM   25  O2  UNL     1      22.905  40.802  -7.333  1.00  0.00    -0.390 OA
ATOM     26  H2  UNL     1      23.739  41.139  -7.638  1.00  0.00     0.210 HD
ENDBRANCH  24  25
BRANCH  24  27
HETATM   27  C5  UNL     1      22.442  41.052  -5.050  1.00  0.00     0.173 C 
BRANCH  27  28
HETATM   28  O3  UNL     1      21.186  41.250  -4.466  1.00  0.00    -0.391 OA
ATOM     29  H3  UNL     1      20.755  40.403  -4.445  1.00  0.00     0.210 HD
ENDBRANCH  27  28
BRANCH  27  30
HETATM   30  C6  UNL     1      22.685  39.556  -5.167  1.00  0.00     0.198 C 
BRANCH  30  31
HETATM   31  O4  UNL     1      21.523  38.897  -5.538  1.00  0.00    -0.398 OA
ATOM     32  H4  UNL     1      21.677  37.963  -5.624  1.00  0.00     0.209 HD
ENDBRANCH  30  31
ENDBRANCH  27  30
ENDBRANCH  24  27
ENDBRANCH  21  24
ENDBRANCH  13  21
BRANCH  15  33
HETATM   33  N1  UNL     1      22.578  44.273 -10.736  1.00  0.00    -0.234 N 
ATOM     34  H12 UNL     1      23.497  43.829 -10.728  1.00  0.00     0.174 HD
ATOM     35  H11 UNL     1      22.231  44.678 -11.606  1.00  0.00     0.174 HD
ENDBRANCH  15  33
ENDBRANCH   1  11
BRANCH   7  36
HETATM   36  C11 UNL     1      16.945  49.776  -5.671  1.00  0.00     0.229 C 
BRANCH  36  37
HETATM   37  C12 UNL     1      16.984  51.268  -5.607  1.00  0.00     0.020 A 
HETATM   38  N6  UNL     1      16.501  52.269  -6.182  1.00  0.00    -0.371 N 
HETATM   39  C13 UNL     1      17.115  53.271  -5.425  1.00  0.00     0.208 A 
ATOM     40  H6  UNL     1      15.854  52.334  -6.968  1.00  0.00     0.161 HD
HETATM   41  C14 UNL     1      17.737  52.151  -4.687  1.00  0.00     0.103 A 
BRANCH  39  42
HETATM   42  N7  UNL     1      16.159  54.038  -4.680  1.00  0.00    -0.281 N 
ATOM     43  H7  UNL     1      16.086  53.913  -3.671  1.00  0.00     0.189 HD
BRANCH  42  44
HETATM   44  O6  UNL     1      15.445  54.825  -5.235  1.00  0.00    -0.292 OA
ATOM     45  H6  UNL     1      15.810  55.480  -5.818  1.00  0.00     0.244 HD
ENDBRANCH  42  44
ENDBRANCH  39  42
ENDBRANCH  36  37
BRANCH  36  46
HETATM   46  C15 UNL     1      15.567  49.280  -5.721  1.00  0.00     0.096 A 
HETATM   47  N8  UNL     1      14.929  48.617  -4.742  1.00  0.00    -0.320 N 
HETATM   48  C16 UNL     1      13.679  48.305  -5.107  1.00  0.00     0.223 A 
ATOM     49  H8  UNL     1      15.341  48.382  -3.839  1.00  0.00     0.169 HD
HETATM   50  N9  UNL     1      13.505  48.777  -6.348  1.00  0.00    -0.301 N 
HETATM   51  C17 UNL     1      14.637  49.370  -6.741  1.00  0.00     0.169 A 
ATOM     52  H9  UNL     1      12.652  48.697  -6.901  1.00  0.00     0.171 HD
BRANCH  48  53
HETATM   53  O7  UNL     1      12.726  47.610  -4.325  1.00  0.00    -0.332 OA
ATOM     54  H7  UNL     1      12.512  46.687  -4.390  1.00  0.00     0.221 HD
ENDBRANCH  48  53
BRANCH  51  55
HETATM   55  O8  UNL     1      14.880  49.997  -7.979  1.00  0.00    -0.344 OA
ATOM     56  H8  UNL     1      14.489  49.723  -8.800  1.00  0.00     0.219 HD
ENDBRANCH  51  55
ENDBRANCH  36  46
ENDBRANCH   7  36
TORSDOF 18
ENDMDL
