MODEL 1
REMARK VINA RESULT: -6.238962894      0.000      0.000
REMARK  12 active torsions:
REMARK  status: ('A' for Active; 'I' for Inactive)
REMARK    1  A    between atoms: C2_2  and  C3_3 
REMARK    2  A    between atoms: C2_2  and  C17_40 
REMARK    3  A    between atoms: C3_3  and  O1_4 
REMARK    4  A    between atoms: O1_4  and  C4_5 
REMARK       I    between atoms: C4_5  and  N1_7 
REMARK    5  A    between atoms: N1_7  and  C5_9 
REMARK    6  A    between atoms: C5_9  and  C6_10 
REMARK    7  A    between atoms: C5_9  and  C7_12 
REMARK       I    between atoms: C7_12  and  N2_14 
REMARK    8  A    between atoms: N2_14  and  C8_16 
REMARK    9  A    between atoms: N5_23  and  C10_24 
REMARK   10  A    between atoms: C13_28  and  N6_29 
REMARK   11  A    between atoms: C15_33  and  N7_34 
REMARK   12  A    between atoms: C16_37  and  O8_38 
ROOT
HETATM    1  C8  UNL     1     -10.155  17.728 -33.053  1.00  0.00     0.176 A 
HETATM    2  N3  UNL     1     -11.106  18.670 -33.092  1.00  0.00    -0.172 N 
ATOM      3  H3  UNL     1     -12.021  18.533 -33.520  1.00  0.00     0.186 HD
HETATM    4  C9  UNL     1     -10.716  19.828 -32.499  1.00  0.00     0.686 A 
HETATM    5  N4  UNL     1     -11.304  20.943 -32.334  1.00  0.00    -0.234 N 
ATOM      6  H41 UNL     1     -11.011  21.813 -31.888  1.00  0.00     0.174 HD
ATOM      7  H42 UNL     1     -12.254  21.122 -32.659  1.00  0.00     0.174 HD
HETATM    8  N5  UNL     1      -9.437  19.588 -32.062  1.00  0.00    -0.120 N 
HETATM    9  C16 UNL     1      -9.093  18.346 -32.383  1.00  0.00     0.209 A 
ENDROOT
BRANCH   1  10
HETATM   10  N2  UNL     1     -10.125  16.422 -33.560  1.00  0.00    -0.307 N 
HETATM   11  C7  UNL     1     -10.870  15.323 -33.041  1.00  0.00     0.247 C 
HETATM   12  O3  UNL     1     -11.589  15.495 -32.030  1.00  0.00    -0.271 OA
ATOM     13  H2  UNL     1      -9.523  16.244 -34.363  1.00  0.00     0.170 HD
BRANCH  11  14
HETATM   14  C5  UNL     1     -10.777  14.001 -33.708  1.00  0.00     0.189 C 
BRANCH  14  15
HETATM   15  N1  UNL     1     -12.119  13.401 -33.579  1.00  0.00    -0.323 N 
HETATM   16  C4  UNL     1     -12.289  12.140 -32.959  1.00  0.00     0.361 C 
HETATM   17  O2  UNL     1     -11.304  11.492 -32.502  1.00  0.00    -0.238 OA
ATOM     18  H1  UNL     1     -12.933  13.900 -33.942  1.00  0.00     0.165 HD
BRANCH  16  19
HETATM   19  O1  UNL     1     -13.532  11.594 -32.843  1.00  0.00    -0.304 OA
BRANCH  19  20
HETATM   20  C3  UNL     1     -14.736  12.306 -32.823  1.00  0.00     0.185 C 
BRANCH  20  21
HETATM   21  C2  UNL     1     -15.879  11.535 -33.433  1.00  0.00     0.013 C 
HETATM   22  C1  UNL     1     -16.404  10.483 -32.480  1.00  0.00     0.012 C 
BRANCH  21  23
HETATM   23  C17 UNL     1     -17.062  12.502 -33.645  1.00  0.00    -0.046 C 
HETATM   24  C18 UNL     1     -16.835  13.791 -32.888  1.00  0.00     0.015 C 
HETATM   25  C19 UNL     1     -17.284  12.796 -35.105  1.00  0.00     0.015 C 
HETATM   26  C20 UNL     1     -18.303  11.826 -33.100  1.00  0.00     0.015 C 
ENDBRANCH  21  23
ENDBRANCH  20  21
ENDBRANCH  19  20
ENDBRANCH  16  19
ENDBRANCH  14  15
BRANCH  14  27
HETATM   27  C6  UNL     1     -10.548  14.269 -35.196  1.00  0.00     0.121 C 
HETATM   28  S1  UNL     1      -9.348  13.106 -35.835  1.00  0.00    -0.095 SA
ENDBRANCH  14  27
ENDBRANCH  11  14
ENDBRANCH   1  10
BRANCH   9  29
HETATM   29  O8  UNL     1      -7.850  17.750 -32.091  1.00  0.00    -0.343 OA
ATOM     30  H8  UNL     1      -7.699  16.823 -31.958  1.00  0.00     0.219 HD
ENDBRANCH   9  29
BRANCH   8  31
HETATM   31  C10 UNL     1      -8.629  20.539 -31.374  1.00  0.00     0.094 A 
HETATM   32  C11 UNL     1      -8.563  20.509 -29.993  1.00  0.00     0.059 A 
HETATM   33  C12 UNL     1      -7.819  21.355 -29.224  1.00  0.00     0.069 A 
HETATM   34 CL1  UNL     1      -7.746  21.287 -27.484  1.00  0.00    -0.082 Cl
HETATM   35  C13 UNL     1      -7.062  22.329 -29.885  1.00  0.00     0.127 A 
HETATM   36  C14 UNL     1      -7.111  22.374 -31.253  1.00  0.00     0.076 A 
HETATM   37  C15 UNL     1      -7.887  21.493 -32.027  1.00  0.00     0.133 A 
BRANCH  35  38
HETATM   38  N6  UNL     1      -6.266  23.242 -29.147  1.00  0.00    -0.114 N 
HETATM   39  O4  UNL     1      -5.081  22.995 -28.914  1.00  0.00    -0.532 OA
HETATM   40  O5  UNL     1      -6.846  24.403 -28.698  1.00  0.00    -0.532 OA
ENDBRANCH  35  38
BRANCH  37  41
HETATM   41  N7  UNL     1      -7.879  21.605 -33.441  1.00  0.00    -0.113 N 
HETATM   42  O6  UNL     1      -8.751  22.305 -34.004  1.00  0.00    -0.532 OA
HETATM   43  O7  UNL     1      -6.931  20.968 -34.174  1.00  0.00    -0.532 OA
ENDBRANCH  37  41
ENDBRANCH   8  31
TORSDOF 12
ENDMDL
MODEL 2
REMARK VINA RESULT: -6.164466833      3.222      4.418
REMARK  12 active torsions:
REMARK  status: ('A' for Active; 'I' for Inactive)
REMARK    1  A    between atoms: C2_2  and  C3_3 
REMARK    2  A    between atoms: C2_2  and  C17_40 
REMARK    3  A    between atoms: C3_3  and  O1_4 
REMARK    4  A    between atoms: O1_4  and  C4_5 
REMARK       I    between atoms: C4_5  and  N1_7 
REMARK    5  A    between atoms: N1_7  and  C5_9 
REMARK    6  A    between atoms: C5_9  and  C6_10 
REMARK    7  A    between atoms: C5_9  and  C7_12 
REMARK       I    between atoms: C7_12  and  N2_14 
REMARK    8  A    between atoms: N2_14  and  C8_16 
REMARK    9  A    between atoms: N5_23  and  C10_24 
REMARK   10  A    between atoms: C13_28  and  N6_29 
REMARK   11  A    between atoms: C15_33  and  N7_34 
REMARK   12  A    between atoms: C16_37  and  O8_38 
ROOT
HETATM    1  C8  UNL     1      -9.633  15.909 -33.724  1.00  0.00     0.176 A 
HETATM    2  N3  UNL     1      -8.895  16.594 -34.606  1.00  0.00    -0.172 N 
ATOM      3  H3  UNL     1      -8.096  16.199 -35.103  1.00  0.00     0.186 HD
HETATM    4  C9  UNL     1      -9.327  17.871 -34.767  1.00  0.00     0.686 A 
HETATM    5  N4  UNL     1      -8.908  18.831 -35.487  1.00  0.00    -0.234 N 
ATOM      6  H41 UNL     1      -9.233  19.790 -35.607  1.00  0.00     0.174 HD
ATOM      7  H42 UNL     1      -8.105  18.745 -36.111  1.00  0.00     0.174 HD
HETATM    8  N5  UNL     1     -10.408  17.986 -33.927  1.00  0.00    -0.120 N 
HETATM    9  C16 UNL     1     -10.601  16.829 -33.303  1.00  0.00     0.209 A 
ENDROOT
BRANCH   1  10
HETATM   10  N2  UNL     1      -9.524  14.595 -33.247  1.00  0.00    -0.307 N 
HETATM   11  C7  UNL     1      -9.857  13.423 -33.986  1.00  0.00     0.247 C 
HETATM   12  O3  UNL     1     -10.323  13.542 -35.143  1.00  0.00    -0.271 OA
ATOM     13  H2  UNL     1      -9.178  14.468 -32.296  1.00  0.00     0.170 HD
BRANCH  11  14
HETATM   14  C5  UNL     1      -9.647  12.090 -33.371  1.00  0.00     0.189 C 
BRANCH  14  15
HETATM   15  N1  UNL     1     -10.989  11.482 -33.284  1.00  0.00    -0.323 N 
HETATM   16  C4  UNL     1     -12.096  12.242 -32.835  1.00  0.00     0.361 C 
HETATM   17  O2  UNL     1     -11.970  13.453 -32.494  1.00  0.00    -0.238 OA
ATOM     18  H1  UNL     1     -11.121  10.506 -33.550  1.00  0.00     0.165 HD
BRANCH  16  19
HETATM   19  O1  UNL     1     -13.333  11.674 -32.759  1.00  0.00    -0.304 OA
BRANCH  19  20
HETATM   20  C3  UNL     1     -14.550  12.358 -32.852  1.00  0.00     0.185 C 
BRANCH  20  21
HETATM   21  C2  UNL     1     -15.643  11.520 -33.466  1.00  0.00     0.013 C 
HETATM   22  C1  UNL     1     -16.062  10.397 -32.541  1.00  0.00     0.012 C 
BRANCH  21  23
HETATM   23  C17 UNL     1     -16.902  12.398 -33.618  1.00  0.00    -0.046 C 
HETATM   24  C18 UNL     1     -16.732  13.704 -32.875  1.00  0.00     0.015 C 
HETATM   25  C19 UNL     1     -17.220  12.667 -35.065  1.00  0.00     0.015 C 
HETATM   26  C20 UNL     1     -18.062  11.636 -33.009  1.00  0.00     0.015 C 
ENDBRANCH  21  23
ENDBRANCH  20  21
ENDBRANCH  19  20
ENDBRANCH  16  19
ENDBRANCH  14  15
BRANCH  14  27
HETATM   27  C6  UNL     1      -8.845  11.259 -34.374  1.00  0.00     0.121 C 
HETATM   28  S1  UNL     1      -7.543  10.380 -33.516  1.00  0.00    -0.095 SA
ENDBRANCH  14  27
ENDBRANCH  11  14
ENDBRANCH   1  10
BRANCH   9  29
HETATM   29  O8  UNL     1     -11.621  16.576 -32.367  1.00  0.00    -0.343 OA
ATOM     30  H8  UNL     1     -12.551  16.695 -32.516  1.00  0.00     0.219 HD
ENDBRANCH   9  29
BRANCH   8  31
HETATM   31  C10 UNL     1     -11.183  19.171 -33.769  1.00  0.00     0.094 A 
HETATM   32  C11 UNL     1     -12.380  19.301 -34.449  1.00  0.00     0.059 A 
HETATM   33  C12 UNL     1     -13.214  20.378 -34.371  1.00  0.00     0.069 A 
HETATM   34 CL1  UNL     1     -14.724  20.511 -35.231  1.00  0.00    -0.082 Cl
HETATM   35  C13 UNL     1     -12.827  21.434 -33.538  1.00  0.00     0.127 A 
HETATM   36  C14 UNL     1     -11.646  21.324 -32.853  1.00  0.00     0.076 A 
HETATM   37  C15 UNL     1     -10.800  20.205 -32.949  1.00  0.00     0.133 A 
BRANCH  35  38
HETATM   38  N6  UNL     1     -13.646  22.585 -33.411  1.00  0.00    -0.114 N 
HETATM   39  O4  UNL     1     -14.677  22.550 -32.736  1.00  0.00    -0.532 OA
HETATM   40  O5  UNL     1     -13.265  23.735 -34.058  1.00  0.00    -0.532 OA
ENDBRANCH  35  38
BRANCH  37  41
HETATM   41  N7  UNL     1      -9.593  20.169 -32.203  1.00  0.00    -0.113 N 
HETATM   42  O6  UNL     1      -8.529  20.544 -32.744  1.00  0.00    -0.532 OA
HETATM   43  O7  UNL     1      -9.596  19.741 -30.915  1.00  0.00    -0.532 OA
ENDBRANCH  37  41
ENDBRANCH   8  31
TORSDOF 12
ENDMDL
MODEL 3
REMARK VINA RESULT: -6.153306926      2.040      2.435
REMARK  12 active torsions:
REMARK  status: ('A' for Active; 'I' for Inactive)
REMARK    1  A    between atoms: C2_2  and  C3_3 
REMARK    2  A    between atoms: C2_2  and  C17_40 
REMARK    3  A    between atoms: C3_3  and  O1_4 
REMARK    4  A    between atoms: O1_4  and  C4_5 
REMARK       I    between atoms: C4_5  and  N1_7 
REMARK    5  A    between atoms: N1_7  and  C5_9 
REMARK    6  A    between atoms: C5_9  and  C6_10 
REMARK    7  A    between atoms: C5_9  and  C7_12 
REMARK       I    between atoms: C7_12  and  N2_14 
REMARK    8  A    between atoms: N2_14  and  C8_16 
REMARK    9  A    between atoms: N5_23  and  C10_24 
REMARK   10  A    between atoms: C13_28  and  N6_29 
REMARK   11  A    between atoms: C15_33  and  N7_34 
REMARK   12  A    between atoms: C16_37  and  O8_38 
ROOT
HETATM    1  C8  UNL     1      -9.809  16.975 -34.428  1.00  0.00     0.176 A 
HETATM    2  N3  UNL     1     -10.236  17.838 -35.358  1.00  0.00    -0.172 N 
ATOM      3  H3  UNL     1     -10.813  17.571 -36.156  1.00  0.00     0.186 HD
HETATM    4  C9  UNL     1      -9.817  19.108 -35.122  1.00  0.00     0.686 A 
HETATM    5  N4  UNL     1      -9.992  20.197 -35.753  1.00  0.00    -0.234 N 
ATOM      6  H41 UNL     1      -9.677  21.151 -35.575  1.00  0.00     0.174 HD
ATOM      7  H42 UNL     1     -10.540  20.257 -36.612  1.00  0.00     0.174 HD
HETATM    8  N5  UNL     1      -9.079  19.026 -33.966  1.00  0.00    -0.120 N 
HETATM    9  C16 UNL     1      -9.068  17.767 -33.544  1.00  0.00     0.209 A 
ENDROOT
BRANCH   1  10
HETATM   10  N2  UNL     1      -9.983  15.590 -34.302  1.00  0.00    -0.307 N 
HETATM   11  C7  UNL     1     -10.741  14.947 -33.281  1.00  0.00     0.247 C 
HETATM   12  O3  UNL     1     -11.278  15.644 -32.388  1.00  0.00    -0.271 OA
ATOM     13  H2  UNL     1      -9.530  14.994 -34.996  1.00  0.00     0.170 HD
BRANCH  11  14
HETATM   14  C5  UNL     1     -10.879  13.470 -33.295  1.00  0.00     0.189 C 
BRANCH  14  15
HETATM   15  N1  UNL     1     -12.332  13.211 -33.285  1.00  0.00    -0.323 N 
HETATM   16  C4  UNL     1     -12.848  12.024 -32.711  1.00  0.00     0.361 C 
HETATM   17  O2  UNL     1     -12.086  11.154 -32.198  1.00  0.00    -0.238 OA
ATOM     18  H1  UNL     1     -12.970  13.893 -33.695  1.00  0.00     0.165 HD
BRANCH  16  19
HETATM   19  O1  UNL     1     -14.191  11.792 -32.704  1.00  0.00    -0.304 OA
BRANCH  19  20
HETATM   20  C3  UNL     1     -15.177  12.715 -33.066  1.00  0.00     0.185 C 
BRANCH  20  21
HETATM   21  C2  UNL     1     -16.435  12.054 -33.572  1.00  0.00     0.013 C 
HETATM   22  C1  UNL     1     -16.823  10.873 -32.709  1.00  0.00     0.012 C 
BRANCH  21  23
HETATM   23  C17 UNL     1     -17.602  13.052 -33.425  1.00  0.00    -0.046 C 
HETATM   24  C18 UNL     1     -17.160  14.277 -32.658  1.00  0.00     0.015 C 
HETATM   25  C19 UNL     1     -18.158  13.457 -34.765  1.00  0.00     0.015 C 
HETATM   26  C20 UNL     1     -18.699  12.354 -32.646  1.00  0.00     0.015 C 
ENDBRANCH  21  23
ENDBRANCH  20  21
ENDBRANCH  19  20
ENDBRANCH  16  19
ENDBRANCH  14  15
BRANCH  14  27
HETATM   27  C6  UNL     1     -10.350  12.989 -34.648  1.00  0.00     0.121 C 
HETATM   28  S1  UNL     1      -8.986  11.859 -34.387  1.00  0.00    -0.095 SA
ENDBRANCH  14  27
ENDBRANCH  11  14
ENDBRANCH   1  10
BRANCH   9  29
HETATM   29  O8  UNL     1      -8.410  17.308 -32.386  1.00  0.00    -0.343 OA
ATOM     30  H8  UNL     1      -8.469  17.701 -31.524  1.00  0.00     0.219 HD
ENDBRANCH   9  29
BRANCH   8  31
HETATM   31  C10 UNL     1      -8.439  20.134 -33.340  1.00  0.00     0.094 A 
HETATM   32  C11 UNL     1      -7.152  20.480 -33.710  1.00  0.00     0.059 A 
HETATM   33  C12 UNL     1      -6.439  21.523 -33.195  1.00  0.00     0.069 A 
HETATM   34 CL1  UNL     1      -4.822  21.943 -33.689  1.00  0.00    -0.082 Cl
HETATM   35  C13 UNL     1      -7.060  22.305 -32.213  1.00  0.00     0.127 A 
HETATM   36  C14 UNL     1      -8.336  21.981 -31.834  1.00  0.00     0.076 A 
HETATM   37  C15 UNL     1      -9.052  20.900 -32.378  1.00  0.00     0.133 A 
BRANCH  35  38
HETATM   38  N6  UNL     1      -6.377  23.404 -31.633  1.00  0.00    -0.114 N 
HETATM   39  O4  UNL     1      -5.716  23.259 -30.603  1.00  0.00    -0.532 OA
HETATM   40  O5  UNL     1      -6.471  24.631 -32.244  1.00  0.00    -0.532 OA
ENDBRANCH  35  38
BRANCH  37  41
HETATM   41  N7  UNL     1     -10.372  20.634 -31.931  1.00  0.00    -0.113 N 
HETATM   42  O6  UNL     1     -10.547  19.850 -30.971  1.00  0.00    -0.532 OA
HETATM   43  O7  UNL     1     -11.433  21.231 -32.532  1.00  0.00    -0.532 OA
ENDBRANCH  37  41
ENDBRANCH   8  31
TORSDOF 12
ENDMDL
MODEL 4
REMARK VINA RESULT: -5.923869892      8.397      9.719
REMARK  12 active torsions:
REMARK  status: ('A' for Active; 'I' for Inactive)
REMARK    1  A    between atoms: C2_2  and  C3_3 
REMARK    2  A    between atoms: C2_2  and  C17_40 
REMARK    3  A    between atoms: C3_3  and  O1_4 
REMARK    4  A    between atoms: O1_4  and  C4_5 
REMARK       I    between atoms: C4_5  and  N1_7 
REMARK    5  A    between atoms: N1_7  and  C5_9 
REMARK    6  A    between atoms: C5_9  and  C6_10 
REMARK    7  A    between atoms: C5_9  and  C7_12 
REMARK       I    between atoms: C7_12  and  N2_14 
REMARK    8  A    between atoms: N2_14  and  C8_16 
REMARK    9  A    between atoms: N5_23  and  C10_24 
REMARK   10  A    between atoms: C13_28  and  N6_29 
REMARK   11  A    between atoms: C15_33  and  N7_34 
REMARK   12  A    between atoms: C16_37  and  O8_38 
ROOT
HETATM    1  C8  UNL     1     -13.518  12.987 -39.083  1.00  0.00     0.176 A 
HETATM    2  N3  UNL     1     -13.324  11.781 -39.631  1.00  0.00    -0.172 N 
ATOM      3  H3  UNL     1     -14.059  11.244 -40.091  1.00  0.00     0.186 HD
HETATM    4  C9  UNL     1     -12.042  11.352 -39.506  1.00  0.00     0.686 A 
HETATM    5  N4  UNL     1     -11.459  10.284 -39.873  1.00  0.00    -0.234 N 
ATOM      6  H41 UNL     1     -10.495   9.962 -39.779  1.00  0.00     0.174 HD
ATOM      7  H42 UNL     1     -11.938   9.534 -40.371  1.00  0.00     0.174 HD
HETATM    8  N5  UNL     1     -11.396  12.361 -38.835  1.00  0.00    -0.120 N 
HETATM    9  C16 UNL     1     -12.260  13.337 -38.579  1.00  0.00     0.209 A 
ENDROOT
BRANCH   1  10
HETATM   10  N2  UNL     1     -14.671  13.775 -38.964  1.00  0.00    -0.307 N 
HETATM   11  C7  UNL     1     -15.786  13.737 -39.851  1.00  0.00     0.247 C 
HETATM   12  O3  UNL     1     -15.750  12.978 -40.846  1.00  0.00    -0.271 OA
ATOM     13  H2  UNL     1     -14.715  14.428 -38.182  1.00  0.00     0.170 HD
BRANCH  11  14
HETATM   14  C5  UNL     1     -16.963  14.598 -39.578  1.00  0.00     0.189 C 
BRANCH  14  15
HETATM   15  N1  UNL     1     -17.409  14.232 -38.219  1.00  0.00    -0.323 N 
HETATM   16  C4  UNL     1     -18.710  14.568 -37.773  1.00  0.00     0.361 C 
HETATM   17  O2  UNL     1     -19.523  15.189 -38.517  1.00  0.00    -0.238 OA
ATOM     18  H1  UNL     1     -16.774  13.733 -37.595  1.00  0.00     0.165 HD
BRANCH  16  19
HETATM   19  O1  UNL     1     -19.115  14.226 -36.517  1.00  0.00    -0.304 OA
BRANCH  19  20
HETATM   20  C3  UNL     1     -18.601  13.171 -35.756  1.00  0.00     0.185 C 
BRANCH  20  21
HETATM   21  C2  UNL     1     -18.032  13.630 -34.437  1.00  0.00     0.013 C 
HETATM   22  C1  UNL     1     -19.123  14.103 -33.500  1.00  0.00     0.012 C 
BRANCH  21  23
HETATM   23  C17 UNL     1     -17.403  12.413 -33.728  1.00  0.00    -0.046 C 
HETATM   24  C18 UNL     1     -17.647  11.151 -34.523  1.00  0.00     0.015 C 
HETATM   25  C19 UNL     1     -15.925  12.602 -33.506  1.00  0.00     0.015 C 
HETATM   26  C20 UNL     1     -18.074  12.278 -32.376  1.00  0.00     0.015 C 
ENDBRANCH  21  23
ENDBRANCH  20  21
ENDBRANCH  19  20
ENDBRANCH  16  19
ENDBRANCH  14  15
BRANCH  14  27
HETATM   27  C6  UNL     1     -16.453  16.038 -39.507  1.00  0.00     0.121 C 
HETATM   28  S1  UNL     1     -17.252  17.017 -40.775  1.00  0.00    -0.095 SA
ENDBRANCH  14  27
ENDBRANCH  11  14
ENDBRANCH   1  10
BRANCH   9  29
HETATM   29  O8  UNL     1     -11.950  14.535 -37.906  1.00  0.00    -0.343 OA
ATOM     30  H8  UNL     1     -11.801  14.622 -36.972  1.00  0.00     0.219 HD
ENDBRANCH   9  29
BRANCH   8  31
HETATM   31  C10 UNL     1     -10.016  12.339 -38.482  1.00  0.00     0.094 A 
HETATM   32  C11 UNL     1      -9.644  11.995 -37.195  1.00  0.00     0.059 A 
HETATM   33  C12 UNL     1      -8.359  11.926 -36.741  1.00  0.00     0.069 A 
HETATM   34 CL1  UNL     1      -7.919  11.477 -35.115  1.00  0.00    -0.082 Cl
HETATM   35  C13 UNL     1      -7.337  12.228 -37.649  1.00  0.00     0.127 A 
HETATM   36  C14 UNL     1      -7.684  12.569 -38.929  1.00  0.00     0.076 A 
HETATM   37  C15 UNL     1      -9.016  12.635 -39.377  1.00  0.00     0.133 A 
BRANCH  35  38
HETATM   38  N6  UNL     1      -5.979  12.177 -37.243  1.00  0.00    -0.114 N 
HETATM   39  O4  UNL     1      -5.314  11.153 -37.406  1.00  0.00    -0.532 OA
HETATM   40  O5  UNL     1      -5.427  13.293 -36.664  1.00  0.00    -0.532 OA
ENDBRANCH  35  38
BRANCH  37  41
HETATM   41  N7  UNL     1      -9.290  12.994 -40.722  1.00  0.00    -0.113 N 
HETATM   42  O6  UNL     1      -9.340  12.100 -41.596  1.00  0.00    -0.532 OA
HETATM   43  O7  UNL     1      -9.504  14.293 -41.054  1.00  0.00    -0.532 OA
ENDBRANCH  37  41
ENDBRANCH   8  31
TORSDOF 12
ENDMDL
MODEL 5
REMARK VINA RESULT: -5.911493090      2.189      2.642
REMARK  12 active torsions:
REMARK  status: ('A' for Active; 'I' for Inactive)
REMARK    1  A    between atoms: C2_2  and  C3_3 
REMARK    2  A    between atoms: C2_2  and  C17_40 
REMARK    3  A    between atoms: C3_3  and  O1_4 
REMARK    4  A    between atoms: O1_4  and  C4_5 
REMARK       I    between atoms: C4_5  and  N1_7 
REMARK    5  A    between atoms: N1_7  and  C5_9 
REMARK    6  A    between atoms: C5_9  and  C6_10 
REMARK    7  A    between atoms: C5_9  and  C7_12 
REMARK       I    between atoms: C7_12  and  N2_14 
REMARK    8  A    between atoms: N2_14  and  C8_16 
REMARK    9  A    between atoms: N5_23  and  C10_24 
REMARK   10  A    between atoms: C13_28  and  N6_29 
REMARK   11  A    between atoms: C15_33  and  N7_34 
REMARK   12  A    between atoms: C16_37  and  O8_38 
ROOT
HETATM    1  C8  UNL     1      -9.482  17.036 -33.295  1.00  0.00     0.176 A 
HETATM    2  N3  UNL     1      -8.440  17.411 -34.047  1.00  0.00    -0.172 N 
ATOM      3  H3  UNL     1      -7.878  16.763 -34.600  1.00  0.00     0.186 HD
HETATM    4  C9  UNL     1      -8.212  18.749 -33.992  1.00  0.00     0.686 A 
HETATM    5  N4  UNL     1      -7.336  19.490 -34.539  1.00  0.00    -0.234 N 
ATOM      6  H41 UNL     1      -7.166  20.495 -34.497  1.00  0.00     0.174 HD
ATOM      7  H42 UNL     1      -6.617  19.127 -35.165  1.00  0.00     0.174 HD
HETATM    8  N5  UNL     1      -9.180  19.237 -33.149  1.00  0.00    -0.120 N 
HETATM    9  C16 UNL     1      -9.941  18.232 -32.730  1.00  0.00     0.209 A 
ENDROOT
BRANCH   1  10
HETATM   10  N2  UNL     1     -10.037  15.773 -33.046  1.00  0.00    -0.307 N 
HETATM   11  C7  UNL     1      -9.680  14.572 -33.723  1.00  0.00     0.247 C 
HETATM   12  O3  UNL     1      -8.833  14.619 -34.645  1.00  0.00    -0.271 OA
ATOM     13  H2  UNL     1     -10.753  15.710 -32.322  1.00  0.00     0.170 HD
BRANCH  11  14
HETATM   14  C5  UNL     1     -10.318  13.293 -33.324  1.00  0.00     0.189 C 
BRANCH  14  15
HETATM   15  N1  UNL     1     -11.720  13.398 -33.773  1.00  0.00    -0.323 N 
HETATM   16  C4  UNL     1     -12.741  12.662 -33.123  1.00  0.00     0.361 C 
HETATM   17  O2  UNL     1     -12.485  11.898 -32.149  1.00  0.00    -0.238 OA
ATOM     18  H1  UNL     1     -11.956  14.005 -34.558  1.00  0.00     0.165 HD
BRANCH  16  19
HETATM   19  O1  UNL     1     -14.034  12.765 -33.543  1.00  0.00    -0.304 OA
BRANCH  19  20
HETATM   20  C3  UNL     1     -15.166  12.609 -32.736  1.00  0.00     0.185 C 
BRANCH  20  21
HETATM   21  C2  UNL     1     -16.327  11.994 -33.476  1.00  0.00     0.013 C 
HETATM   22  C1  UNL     1     -16.834  10.754 -32.772  1.00  0.00     0.012 C 
BRANCH  21  23
HETATM   23  C17 UNL     1     -17.510  12.983 -33.434  1.00  0.00    -0.046 C 
HETATM   24  C18 UNL     1     -17.123  14.242 -32.693  1.00  0.00     0.015 C 
HETATM   25  C19 UNL     1     -17.993  13.329 -34.818  1.00  0.00     0.015 C 
HETATM   26  C20 UNL     1     -18.642  12.304 -32.690  1.00  0.00     0.015 C 
ENDBRANCH  21  23
ENDBRANCH  20  21
ENDBRANCH  19  20
ENDBRANCH  16  19
ENDBRANCH  14  15
BRANCH  14  27
HETATM   27  C6  UNL     1      -9.663  12.190 -34.158  1.00  0.00     0.121 C 
HETATM   28  S1  UNL     1      -8.897  10.994 -33.069  1.00  0.00    -0.095 SA
ENDBRANCH  14  27
ENDBRANCH  11  14
ENDBRANCH   1  10
BRANCH   9  29
HETATM   29  O8  UNL     1     -11.036  18.358 -31.853  1.00  0.00    -0.343 OA
ATOM     30  H8  UNL     1     -11.949  18.393 -32.110  1.00  0.00     0.219 HD
ENDBRANCH   9  29
BRANCH   8  31
HETATM   31  C10 UNL     1      -9.324  20.610 -32.797  1.00  0.00     0.094 A 
HETATM   32  C11 UNL     1      -8.645  21.111 -31.701  1.00  0.00     0.059 A 
HETATM   33  C12 UNL     1      -8.691  22.405 -31.272  1.00  0.00     0.069 A 
HETATM   34 CL1  UNL     1      -7.815  23.011 -29.893  1.00  0.00    -0.082 Cl
HETATM   35  C13 UNL     1      -9.489  23.296 -31.999  1.00  0.00     0.127 A 
HETATM   36  C14 UNL     1     -10.168  22.822 -33.090  1.00  0.00     0.076 A 
HETATM   37  C15 UNL     1     -10.108  21.482 -33.514  1.00  0.00     0.133 A 
BRANCH  35  38
HETATM   38  N6  UNL     1      -9.584  24.657 -31.608  1.00  0.00    -0.114 N 
HETATM   39  O4  UNL     1      -8.726  25.470 -31.954  1.00  0.00    -0.532 OA
HETATM   40  O5  UNL     1     -10.652  25.043 -30.835  1.00  0.00    -0.532 OA
ENDBRANCH  35  38
BRANCH  37  41
HETATM   41  N7  UNL     1     -10.841  21.072 -34.657  1.00  0.00    -0.113 N 
HETATM   42  O6  UNL     1     -12.049  20.772 -34.534  1.00  0.00    -0.532 OA
HETATM   43  O7  UNL     1     -10.240  21.016 -35.873  1.00  0.00    -0.532 OA
ENDBRANCH  37  41
ENDBRANCH   8  31
TORSDOF 12
ENDMDL
