MODEL 1
REMARK VINA RESULT: -11.101801648      0.000      0.000
REMARK  5 active torsions:
REMARK  status: ('A' for Active; 'I' for Inactive)
REMARK    1  A    between atoms: C4_4  and  C5_5 
REMARK    2  A    between atoms: C5_5  and  S1_6 
REMARK    3  A    between atoms: S1_6  and  C6_7 
REMARK    4  A    between atoms: C6_7  and  C7_8 
REMARK    5  A    between atoms: C10_11  and  C11_12 
ROOT
HETATM    1  C7  UNL     1       1.100   7.314  14.124  1.00  0.00    -0.049 A 
HETATM    2  C8  UNL     1       0.181   7.544  15.131  1.00  0.00     0.009 A 
HETATM    3  C9  UNL     1      -0.933   8.321  14.960  1.00  0.00     0.013 A 
HETATM    4  C10 UNL     1      -1.194   8.927  13.738  1.00  0.00    -0.026 A 
HETATM    5  C17 UNL     1      -0.286   8.707  12.727  1.00  0.00     0.013 A 
HETATM    6  C18 UNL     1       0.841   7.916  12.914  1.00  0.00     0.009 A 
ENDROOT
BRANCH   1   7
HETATM    7  C6  UNL     1       2.294   6.453  14.392  1.00  0.00     0.112 C 
BRANCH   7   8
HETATM    8  S1  UNL     1       2.196   4.847  13.629  1.00  0.00    -0.160 SA
BRANCH   8   9
HETATM    9  C5  UNL     1       2.198   3.451  14.731  1.00  0.00     0.112 C 
BRANCH   9  10
HETATM   10  C4  UNL     1       1.063   2.510  14.524  1.00  0.00    -0.049 A 
HETATM   11  C3  UNL     1      -0.253   2.799  14.739  1.00  0.00     0.008 A 
HETATM   12  C2  UNL     1      -1.201   1.833  14.490  1.00  0.00     0.001 A 
HETATM   13  C1  UNL     1      -0.850   0.584  14.031  1.00  0.00     0.000 A 
HETATM   14  C20 UNL     1       0.490   0.293  13.813  1.00  0.00     0.001 A 
HETATM   15  C19 UNL     1       1.424   1.249  14.059  1.00  0.00     0.008 A 
ENDBRANCH   9  10
ENDBRANCH   8   9
ENDBRANCH   7   8
ENDBRANCH   1   7
BRANCH   4  16
HETATM   16  C11 UNL     1      -2.388   9.756  13.545  1.00  0.00    -0.026 A 
HETATM   17  C12 UNL     1      -2.729  10.214  12.282  1.00  0.00     0.012 A 
HETATM   18  C13 UNL     1      -3.838  10.993  12.039  1.00  0.00     0.001 A 
HETATM   19  C14 UNL     1      -4.640  11.330  13.105  1.00  0.00     0.000 A 
HETATM   20  C15 UNL     1      -4.327  10.892  14.371  1.00  0.00     0.001 A 
HETATM   21  C16 UNL     1      -3.199  10.102  14.599  1.00  0.00     0.012 A 
ENDBRANCH   4  16
TORSDOF 5
ENDMDL
MODEL 2
REMARK VINA RESULT: -11.091386678      0.185      1.470
REMARK  5 active torsions:
REMARK  status: ('A' for Active; 'I' for Inactive)
REMARK    1  A    between atoms: C4_4  and  C5_5 
REMARK    2  A    between atoms: C5_5  and  S1_6 
REMARK    3  A    between atoms: S1_6  and  C6_7 
REMARK    4  A    between atoms: C6_7  and  C7_8 
REMARK    5  A    between atoms: C10_11  and  C11_12 
ROOT
HETATM    1  C7  UNL     1       1.137   7.324  14.211  1.00  0.00    -0.049 A 
HETATM    2  C8  UNL     1       0.901   7.934  12.993  1.00  0.00     0.009 A 
HETATM    3  C9  UNL     1      -0.204   8.704  12.748  1.00  0.00     0.013 A 
HETATM    4  C10 UNL     1      -1.158   8.911  13.736  1.00  0.00    -0.026 A 
HETATM    5  C17 UNL     1      -0.935   8.309  14.953  1.00  0.00     0.013 A 
HETATM    6  C18 UNL     1       0.191   7.529  15.188  1.00  0.00     0.009 A 
ENDROOT
BRANCH   1   7
HETATM    7  C6  UNL     1       2.369   6.496  14.398  1.00  0.00     0.112 C 
BRANCH   7   8
HETATM    8  S1  UNL     1       2.340   4.965  13.489  1.00  0.00    -0.160 SA
BRANCH   8   9
HETATM    9  C5  UNL     1       2.426   3.474  14.455  1.00  0.00     0.112 C 
BRANCH   9  10
HETATM   10  C4  UNL     1       1.195   2.637  14.394  1.00  0.00    -0.049 A 
HETATM   11  C3  UNL     1      -0.072   3.075  14.645  1.00  0.00     0.008 A 
HETATM   12  C2  UNL     1      -1.121   2.191  14.536  1.00  0.00     0.001 A 
HETATM   13  C1  UNL     1      -0.917   0.877  14.181  1.00  0.00     0.000 A 
HETATM   14  C20 UNL     1       0.373   0.434  13.927  1.00  0.00     0.001 A 
HETATM   15  C19 UNL     1       1.408   1.309  14.034  1.00  0.00     0.008 A 
ENDBRANCH   9  10
ENDBRANCH   8   9
ENDBRANCH   7   8
ENDBRANCH   1   7
BRANCH   4  16
HETATM   16  C11 UNL     1      -2.342   9.739  13.483  1.00  0.00    -0.026 A 
HETATM   17  C12 UNL     1      -3.174  10.113  14.526  1.00  0.00     0.012 A 
HETATM   18  C13 UNL     1      -4.296  10.891  14.349  1.00  0.00     0.001 A 
HETATM   19  C14 UNL     1      -4.601  11.312  13.076  1.00  0.00     0.000 A 
HETATM   20  C15 UNL     1      -3.795  10.956  12.020  1.00  0.00     0.001 A 
HETATM   21  C16 UNL     1      -2.659  10.168  12.216  1.00  0.00     0.012 A 
ENDBRANCH   4  16
TORSDOF 5
ENDMDL
MODEL 3
REMARK VINA RESULT: -11.065149175      0.301      1.066
REMARK  5 active torsions:
REMARK  status: ('A' for Active; 'I' for Inactive)
REMARK    1  A    between atoms: C4_4  and  C5_5 
REMARK    2  A    between atoms: C5_5  and  S1_6 
REMARK    3  A    between atoms: S1_6  and  C6_7 
REMARK    4  A    between atoms: C6_7  and  C7_8 
REMARK    5  A    between atoms: C10_11  and  C11_12 
ROOT
HETATM    1  C7  UNL     1       1.234   7.232  14.152  1.00  0.00    -0.049 A 
HETATM    2  C8  UNL     1       0.315   7.447  15.161  1.00  0.00     0.009 A 
HETATM    3  C9  UNL     1      -0.801   8.223  14.998  1.00  0.00     0.013 A 
HETATM    4  C10 UNL     1      -1.064   8.841  13.783  1.00  0.00    -0.026 A 
HETATM    5  C17 UNL     1      -0.156   8.636  12.770  1.00  0.00     0.013 A 
HETATM    6  C18 UNL     1       0.974   7.846  12.948  1.00  0.00     0.009 A 
ENDROOT
BRANCH   1   7
HETATM    7  C6  UNL     1       2.431   6.372  14.410  1.00  0.00     0.112 C 
BRANCH   7   8
HETATM    8  S1  UNL     1       2.411   4.837  13.506  1.00  0.00    -0.160 SA
BRANCH   8   9
HETATM    9  C5  UNL     1       2.482   3.350  14.479  1.00  0.00     0.112 C 
BRANCH   9  10
HETATM   10  C4  UNL     1       1.274   2.488  14.364  1.00  0.00    -0.049 A 
HETATM   11  C3  UNL     1       1.271   1.178  13.981  1.00  0.00     0.008 A 
HETATM   12  C2  UNL     1       0.077   0.496  13.933  1.00  0.00     0.001 A 
HETATM   13  C1  UNL     1      -1.112   1.107  14.263  1.00  0.00     0.000 A 
HETATM   14  C20 UNL     1      -1.105   2.439  14.652  1.00  0.00     0.001 A 
HETATM   15  C19 UNL     1       0.075   3.111  14.699  1.00  0.00     0.008 A 
ENDBRANCH   9  10
ENDBRANCH   8   9
ENDBRANCH   7   8
ENDBRANCH   1   7
BRANCH   4  16
HETATM   16  C11 UNL     1      -2.261   9.670  13.599  1.00  0.00    -0.026 A 
HETATM   17  C12 UNL     1      -2.628  10.102  12.334  1.00  0.00     0.012 A 
HETATM   18  C13 UNL     1      -3.741  10.879  12.101  1.00  0.00     0.001 A 
HETATM   19  C14 UNL     1      -4.520  11.239  13.176  1.00  0.00     0.000 A 
HETATM   20  C15 UNL     1      -4.180  10.826  14.443  1.00  0.00     0.001 A 
HETATM   21  C16 UNL     1      -3.048  10.038  14.663  1.00  0.00     0.012 A 
ENDBRANCH   4  16
TORSDOF 5
ENDMDL
MODEL 4
REMARK VINA RESULT: -10.864951025      1.213      2.274
REMARK  5 active torsions:
REMARK  status: ('A' for Active; 'I' for Inactive)
REMARK    1  A    between atoms: C4_4  and  C5_5 
REMARK    2  A    between atoms: C5_5  and  S1_6 
REMARK    3  A    between atoms: S1_6  and  C6_7 
REMARK    4  A    between atoms: C6_7  and  C7_8 
REMARK    5  A    between atoms: C10_11  and  C11_12 
ROOT
HETATM    1  C7  UNL     1       2.718   5.611  13.658  1.00  0.00    -0.049 A 
HETATM    2  C8  UNL     1       2.704   6.750  14.441  1.00  0.00     0.009 A 
HETATM    3  C9  UNL     1       1.653   7.627  14.461  1.00  0.00     0.013 A 
HETATM    4  C10 UNL     1       0.528   7.405  13.677  1.00  0.00    -0.026 A 
HETATM    5  C17 UNL     1       0.530   6.275  12.892  1.00  0.00     0.013 A 
HETATM    6  C18 UNL     1       1.604   5.392  12.880  1.00  0.00     0.009 A 
ENDROOT
BRANCH   1   7
HETATM    7  C6  UNL     1       3.907   4.703  13.690  1.00  0.00     0.112 C 
BRANCH   7   8
HETATM    8  S1  UNL     1       3.508   3.000  13.356  1.00  0.00    -0.160 SA
BRANCH   8   9
HETATM    9  C5  UNL     1       2.830   2.070  14.711  1.00  0.00     0.112 C 
BRANCH   9  10
HETATM   10  C4  UNL     1       1.367   1.813  14.603  1.00  0.00    -0.049 A 
HETATM   11  C3  UNL     1       0.796   0.755  13.958  1.00  0.00     0.008 A 
HETATM   12  C2  UNL     1      -0.575   0.634  13.951  1.00  0.00     0.001 A 
HETATM   13  C1  UNL     1      -1.379   1.558  14.579  1.00  0.00     0.000 A 
HETATM   14  C20 UNL     1      -0.795   2.633  15.234  1.00  0.00     0.001 A 
HETATM   15  C19 UNL     1       0.559   2.750  15.240  1.00  0.00     0.008 A 
ENDBRANCH   9  10
ENDBRANCH   8   9
ENDBRANCH   7   8
ENDBRANCH   1   7
BRANCH   4  16
HETATM   16  C11 UNL     1      -0.604   8.337  13.697  1.00  0.00    -0.026 A 
HETATM   17  C12 UNL     1      -0.983   9.006  12.544  1.00  0.00     0.012 A 
HETATM   18  C13 UNL     1      -2.038   9.890  12.502  1.00  0.00     0.001 A 
HETATM   19  C14 UNL     1      -2.745  10.114  13.661  1.00  0.00     0.000 A 
HETATM   20  C15 UNL     1      -2.392   9.465  14.821  1.00  0.00     0.001 A 
HETATM   21  C16 UNL     1      -1.319   8.571  14.847  1.00  0.00     0.012 A 
ENDBRANCH   4  16
TORSDOF 5
ENDMDL
MODEL 5
REMARK VINA RESULT: -10.791427879      1.311      2.582
REMARK  5 active torsions:
REMARK  status: ('A' for Active; 'I' for Inactive)
REMARK    1  A    between atoms: C4_4  and  C5_5 
REMARK    2  A    between atoms: C5_5  and  S1_6 
REMARK    3  A    between atoms: S1_6  and  C6_7 
REMARK    4  A    between atoms: C6_7  and  C7_8 
REMARK    5  A    between atoms: C10_11  and  C11_12 
ROOT
HETATM    1  C7  UNL     1       2.959   5.474  13.430  1.00  0.00    -0.049 A 
HETATM    2  C8  UNL     1       1.749   5.198  12.821  1.00  0.00     0.009 A 
HETATM    3  C9  UNL     1       0.679   6.052  12.870  1.00  0.00     0.013 A 
HETATM    4  C10 UNL     1       0.766   7.260  13.549  1.00  0.00    -0.026 A 
HETATM    5  C17 UNL     1       1.966   7.547  14.159  1.00  0.00     0.013 A 
HETATM    6  C18 UNL     1       3.044   6.671  14.103  1.00  0.00     0.009 A 
ENDROOT
BRANCH   1   7
HETATM    7  C6  UNL     1       4.080   4.488  13.332  1.00  0.00     0.112 C 
BRANCH   7   8
HETATM    8  S1  UNL     1       3.530   2.796  13.233  1.00  0.00    -0.160 SA
BRANCH   8   9
HETATM    9  C5  UNL     1       2.864   2.097  14.726  1.00  0.00     0.112 C 
BRANCH   9  10
HETATM   10  C4  UNL     1       1.381   1.964  14.729  1.00  0.00    -0.049 A 
HETATM   11  C3  UNL     1       0.512   2.817  15.346  1.00  0.00     0.008 A 
HETATM   12  C2  UNL     1      -0.840   2.579  15.252  1.00  0.00     0.001 A 
HETATM   13  C1  UNL     1      -1.333   1.502  14.551  1.00  0.00     0.000 A 
HETATM   14  C20 UNL     1      -0.446   0.638  13.924  1.00  0.00     0.001 A 
HETATM   15  C19 UNL     1       0.889   0.874  14.017  1.00  0.00     0.008 A 
ENDBRANCH   9  10
ENDBRANCH   8   9
ENDBRANCH   7   8
ENDBRANCH   1   7
BRANCH   4  16
HETATM   16  C11 UNL     1      -0.373   8.182  13.601  1.00  0.00    -0.026 A 
HETATM   17  C12 UNL     1      -1.059   8.384  14.788  1.00  0.00     0.012 A 
HETATM   18  C13 UNL     1      -2.133   9.238  14.898  1.00  0.00     0.001 A 
HETATM   19  C14 UNL     1      -2.540   9.920  13.774  1.00  0.00     0.000 A 
HETATM   20  C15 UNL     1      -1.879   9.740  12.581  1.00  0.00     0.001 A 
HETATM   21  C16 UNL     1      -0.790   8.870  12.487  1.00  0.00     0.012 A 
ENDBRANCH   4  16
TORSDOF 5
ENDMDL
