MODEL 1
REMARK VINA RESULT: -10.766864735      0.000      0.000
REMARK  5 active torsions:
REMARK  status: ('A' for Active; 'I' for Inactive)
REMARK    1  A    between atoms: C4_4  and  C5_5 
REMARK    2  A    between atoms: C5_5  and  S1_6 
REMARK    3  A    between atoms: S1_6  and  C6_7 
REMARK    4  A    between atoms: C6_7  and  C7_8 
REMARK    5  A    between atoms: C11_12  and  C12_13 
ROOT
HETATM    1  C7  UNL     1       4.876   3.647  12.505  1.00  0.00    -0.048 A 
HETATM    2  C8  UNL     1       5.876   2.710  12.432  1.00  0.00     0.008 A 
HETATM    3  C9  UNL     1       7.175   3.167  12.200  1.00  0.00     0.001 A 
HETATM    4  C10 UNL     1       7.414   4.496  12.054  1.00  0.00     0.012 A 
HETATM    5  C11 UNL     1       6.419   5.466  12.122  1.00  0.00    -0.025 A 
HETATM    6  C18 UNL     1       5.142   5.006  12.353  1.00  0.00     0.020 A 
ENDROOT
BRANCH   1   7
HETATM    7  C6  UNL     1       3.448   3.275  12.738  1.00  0.00     0.112 C 
BRANCH   7   8
HETATM    8  S1  UNL     1       3.227   1.490  12.653  1.00  0.00    -0.160 SA
BRANCH   8   9
HETATM    9  C5  UNL     1       2.610   0.756  14.154  1.00  0.00     0.112 C 
BRANCH   9  10
HETATM   10  C4  UNL     1       1.213   1.206  14.389  1.00  0.00    -0.049 A 
HETATM   11  C3  UNL     1       0.909   2.289  15.156  1.00  0.00     0.008 A 
HETATM   12  C2  UNL     1      -0.404   2.698  15.353  1.00  0.00     0.001 A 
HETATM   13  C1  UNL     1      -1.404   1.967  14.744  1.00  0.00     0.000 A 
HETATM   14  C20 UNL     1      -1.132   0.865  13.960  1.00  0.00     0.001 A 
HETATM   15  C19 UNL     1       0.167   0.505  13.797  1.00  0.00     0.008 A 
ENDBRANCH   9  10
ENDBRANCH   8   9
ENDBRANCH   7   8
ENDBRANCH   1   7
BRANCH   5  16
HETATM   16  C12 UNL     1       6.749   6.874  11.957  1.00  0.00    -0.026 A 
HETATM   17  C13 UNL     1       8.054   7.345  12.113  1.00  0.00     0.012 A 
HETATM   18  C14 UNL     1       8.366   8.679  11.956  1.00  0.00     0.001 A 
HETATM   19  C15 UNL     1       7.386   9.601  11.637  1.00  0.00     0.000 A 
HETATM   20  C16 UNL     1       6.092   9.159  11.477  1.00  0.00     0.001 A 
HETATM   21  C17 UNL     1       5.795   7.813  11.638  1.00  0.00     0.012 A 
ENDBRANCH   5  16
TORSDOF 5
ENDMDL
MODEL 2
REMARK VINA RESULT: -10.695066813      4.153      5.691
REMARK  5 active torsions:
REMARK  status: ('A' for Active; 'I' for Inactive)
REMARK    1  A    between atoms: C4_4  and  C5_5 
REMARK    2  A    between atoms: C5_5  and  S1_6 
REMARK    3  A    between atoms: S1_6  and  C6_7 
REMARK    4  A    between atoms: C6_7  and  C7_8 
REMARK    5  A    between atoms: C11_12  and  C12_13 
ROOT
HETATM    1  C7  UNL     1       2.376   5.464  13.171  1.00  0.00    -0.048 A 
HETATM    2  C8  UNL     1       2.523   5.241  11.825  1.00  0.00     0.008 A 
HETATM    3  C9  UNL     1       1.686   5.947  10.958  1.00  0.00     0.001 A 
HETATM    4  C10 UNL     1       0.768   6.816  11.453  1.00  0.00     0.012 A 
HETATM    5  C11 UNL     1       0.598   7.060  12.813  1.00  0.00    -0.025 A 
HETATM    6  C18 UNL     1       1.428   6.360  13.660  1.00  0.00     0.020 A 
ENDROOT
BRANCH   1   7
HETATM    7  C6  UNL     1       3.207   4.758  14.193  1.00  0.00     0.112 C 
BRANCH   7   8
HETATM    8  S1  UNL     1       3.401   3.018  13.773  1.00  0.00    -0.160 SA
BRANCH   8   9
HETATM    9  C5  UNL     1       2.709   1.895  14.971  1.00  0.00     0.112 C 
BRANCH   9  10
HETATM   10  C4  UNL     1       1.252   1.741  14.722  1.00  0.00    -0.049 A 
HETATM   11  C3  UNL     1       0.730   0.683  14.043  1.00  0.00     0.008 A 
HETATM   12  C2  UNL     1      -0.637   0.554  13.831  1.00  0.00     0.001 A 
HETATM   13  C1  UNL     1      -1.461   1.541  14.333  1.00  0.00     0.000 A 
HETATM   14  C20 UNL     1      -0.967   2.627  15.025  1.00  0.00     0.001 A 
HETATM   15  C19 UNL     1       0.376   2.707  15.207  1.00  0.00     0.008 A 
ENDBRANCH   9  10
ENDBRANCH   8   9
ENDBRANCH   7   8
ENDBRANCH   1   7
BRANCH   5  16
HETATM   16  C12 UNL     1      -0.407   8.007  13.273  1.00  0.00    -0.026 A 
HETATM   17  C13 UNL     1      -1.013   8.914  12.402  1.00  0.00     0.012 A 
HETATM   18  C14 UNL     1      -1.965   9.811  12.838  1.00  0.00     0.001 A 
HETATM   19  C15 UNL     1      -2.351   9.841  14.165  1.00  0.00     0.000 A 
HETATM   20  C16 UNL     1      -1.767   8.955  15.043  1.00  0.00     0.001 A 
HETATM   21  C17 UNL     1      -0.811   8.058  14.587  1.00  0.00     0.012 A 
ENDBRANCH   5  16
TORSDOF 5
ENDMDL
MODEL 3
REMARK VINA RESULT: -10.687117329      4.146      5.559
REMARK  5 active torsions:
REMARK  status: ('A' for Active; 'I' for Inactive)
REMARK    1  A    between atoms: C4_4  and  C5_5 
REMARK    2  A    between atoms: C5_5  and  S1_6 
REMARK    3  A    between atoms: S1_6  and  C6_7 
REMARK    4  A    between atoms: C6_7  and  C7_8 
REMARK    5  A    between atoms: C11_12  and  C12_13 
ROOT
HETATM    1  C7  UNL     1       2.371   5.438  13.165  1.00  0.00    -0.048 A 
HETATM    2  C8  UNL     1       2.538   5.228  11.819  1.00  0.00     0.008 A 
HETATM    3  C9  UNL     1       1.720   5.949  10.946  1.00  0.00     0.001 A 
HETATM    4  C10 UNL     1       0.800   6.819  11.437  1.00  0.00     0.012 A 
HETATM    5  C11 UNL     1       0.610   7.050  12.795  1.00  0.00    -0.025 A 
HETATM    6  C18 UNL     1       1.422   6.335  13.648  1.00  0.00     0.020 A 
ENDROOT
BRANCH   1   7
HETATM    7  C6  UNL     1       3.181   4.715  14.192  1.00  0.00     0.112 C 
BRANCH   7   8
HETATM    8  S1  UNL     1       3.389   2.983  13.745  1.00  0.00    -0.160 SA
BRANCH   8   9
HETATM    9  C5  UNL     1       2.695   1.836  14.919  1.00  0.00     0.112 C 
BRANCH   9  10
HETATM   10  C4  UNL     1       1.225   1.753  14.721  1.00  0.00    -0.049 A 
HETATM   11  C3  UNL     1       0.367   2.706  15.179  1.00  0.00     0.008 A 
HETATM   12  C2  UNL     1      -1.004   2.612  14.974  1.00  0.00     0.001 A 
HETATM   13  C1  UNL     1      -1.478   1.514  14.286  1.00  0.00     0.000 A 
HETATM   14  C20 UNL     1      -0.637   0.530  13.808  1.00  0.00     0.001 A 
HETATM   15  C19 UNL     1       0.694   0.666  14.033  1.00  0.00     0.008 A 
ENDBRANCH   9  10
ENDBRANCH   8   9
ENDBRANCH   7   8
ENDBRANCH   1   7
BRANCH   5  16
HETATM   16  C12 UNL     1      -0.395   8.000  13.250  1.00  0.00    -0.026 A 
HETATM   17  C13 UNL     1      -0.812   8.045  14.581  1.00  0.00     0.012 A 
HETATM   18  C14 UNL     1      -1.764   8.946  15.011  1.00  0.00     0.001 A 
HETATM   19  C15 UNL     1      -2.341   9.839  14.127  1.00  0.00     0.000 A 
HETATM   20  C16 UNL     1      -1.945   9.812  12.809  1.00  0.00     0.001 A 
HETATM   21  C17 UNL     1      -0.985   8.900  12.393  1.00  0.00     0.012 A 
ENDBRANCH   5  16
TORSDOF 5
ENDMDL
MODEL 4
REMARK VINA RESULT: -10.686657051      4.157      5.609
REMARK  5 active torsions:
REMARK  status: ('A' for Active; 'I' for Inactive)
REMARK    1  A    between atoms: C4_4  and  C5_5 
REMARK    2  A    between atoms: C5_5  and  S1_6 
REMARK    3  A    between atoms: S1_6  and  C6_7 
REMARK    4  A    between atoms: C6_7  and  C7_8 
REMARK    5  A    between atoms: C11_12  and  C12_13 
ROOT
HETATM    1  C7  UNL     1       2.375   5.469  13.175  1.00  0.00    -0.048 A 
HETATM    2  C8  UNL     1       2.525   5.248  11.829  1.00  0.00     0.008 A 
HETATM    3  C9  UNL     1       1.689   5.955  10.961  1.00  0.00     0.001 A 
HETATM    4  C10 UNL     1       0.771   6.823  11.456  1.00  0.00     0.012 A 
HETATM    5  C11 UNL     1       0.598   7.065  12.816  1.00  0.00    -0.025 A 
HETATM    6  C18 UNL     1       1.427   6.364  13.664  1.00  0.00     0.020 A 
ENDROOT
BRANCH   1   7
HETATM    7  C6  UNL     1       3.205   4.762  14.198  1.00  0.00     0.112 C 
BRANCH   7   8
HETATM    8  S1  UNL     1       3.405   3.024  13.773  1.00  0.00    -0.160 SA
BRANCH   8   9
HETATM    9  C5  UNL     1       2.712   1.895  14.964  1.00  0.00     0.112 C 
BRANCH   9  10
HETATM   10  C4  UNL     1       1.243   1.799  14.760  1.00  0.00    -0.049 A 
HETATM   11  C3  UNL     1       0.374   2.744  15.215  1.00  0.00     0.008 A 
HETATM   12  C2  UNL     1      -0.995   2.638  15.003  1.00  0.00     0.001 A 
HETATM   13  C1  UNL     1      -1.456   1.537  14.312  1.00  0.00     0.000 A 
HETATM   14  C20 UNL     1      -0.604   0.560  13.837  1.00  0.00     0.001 A 
HETATM   15  C19 UNL     1       0.725   0.708  14.068  1.00  0.00     0.008 A 
ENDBRANCH   9  10
ENDBRANCH   8   9
ENDBRANCH   7   8
ENDBRANCH   1   7
BRANCH   5  16
HETATM   16  C12 UNL     1      -0.408   8.012  13.275  1.00  0.00    -0.026 A 
HETATM   17  C13 UNL     1      -1.018   8.915  12.402  1.00  0.00     0.012 A 
HETATM   18  C14 UNL     1      -1.971   9.811  12.838  1.00  0.00     0.001 A 
HETATM   19  C15 UNL     1      -2.355   9.844  14.166  1.00  0.00     0.000 A 
HETATM   20  C16 UNL     1      -1.767   8.962  15.045  1.00  0.00     0.001 A 
HETATM   21  C17 UNL     1      -0.810   8.066  14.590  1.00  0.00     0.012 A 
ENDBRANCH   5  16
TORSDOF 5
ENDMDL
MODEL 5
REMARK VINA RESULT: -10.658935799      0.937      1.858
REMARK  5 active torsions:
REMARK  status: ('A' for Active; 'I' for Inactive)
REMARK    1  A    between atoms: C4_4  and  C5_5 
REMARK    2  A    between atoms: C5_5  and  S1_6 
REMARK    3  A    between atoms: S1_6  and  C6_7 
REMARK    4  A    between atoms: C6_7  and  C7_8 
REMARK    5  A    between atoms: C11_12  and  C12_13 
ROOT
HETATM    1  C7  UNL     1       4.629   3.553  12.650  1.00  0.00    -0.048 A 
HETATM    2  C8  UNL     1       3.504   4.099  13.216  1.00  0.00     0.008 A 
HETATM    3  C9  UNL     1       3.468   5.486  13.374  1.00  0.00     0.001 A 
HETATM    4  C10 UNL     1       4.520   6.245  12.975  1.00  0.00     0.012 A 
HETATM    5  C11 UNL     1       5.672   5.717  12.400  1.00  0.00    -0.025 A 
HETATM    6  C18 UNL     1       5.698   4.349  12.247  1.00  0.00     0.020 A 
ENDROOT
BRANCH   1   7
HETATM    7  C6  UNL     1       4.784   2.082  12.442  1.00  0.00     0.112 C 
BRANCH   7   8
HETATM    8  S1  UNL     1       3.183   1.258  12.458  1.00  0.00    -0.160 SA
BRANCH   8   9
HETATM    9  C5  UNL     1       2.670   0.686  14.065  1.00  0.00     0.112 C 
BRANCH   9  10
HETATM   10  C4  UNL     1       1.295   1.171  14.348  1.00  0.00    -0.049 A 
HETATM   11  C3  UNL     1       1.045   2.257  15.131  1.00  0.00     0.008 A 
HETATM   12  C2  UNL     1      -0.250   2.698  15.374  1.00  0.00     0.001 A 
HETATM   13  C1  UNL     1      -1.288   1.998  14.795  1.00  0.00     0.000 A 
HETATM   14  C20 UNL     1      -1.071   0.893  13.997  1.00  0.00     0.001 A 
HETATM   15  C19 UNL     1       0.211   0.501  13.788  1.00  0.00     0.008 A 
ENDBRANCH   9  10
ENDBRANCH   8   9
ENDBRANCH   7   8
ENDBRANCH   1   7
BRANCH   5  16
HETATM   16  C12 UNL     1       6.763   6.592  11.995  1.00  0.00    -0.026 A 
HETATM   17  C13 UNL     1       6.791   7.942  12.352  1.00  0.00     0.012 A 
HETATM   18  C14 UNL     1       7.825   8.770  11.968  1.00  0.00     0.001 A 
HETATM   19  C15 UNL     1       8.874   8.285  11.209  1.00  0.00     0.000 A 
HETATM   20  C16 UNL     1       8.867   6.957  10.846  1.00  0.00     0.001 A 
HETATM   21  C17 UNL     1       7.820   6.137  11.240  1.00  0.00     0.012 A 
ENDBRANCH   5  16
TORSDOF 5
ENDMDL
