MODEL 1
REMARK VINA RESULT: -10.663211836      0.000      0.000
REMARK  5 active torsions:
REMARK  status: ('A' for Active; 'I' for Inactive)
REMARK    1  A    between atoms: C4_4  and  S1_5 
REMARK    2  A    between atoms: S1_5  and  C5_6 
REMARK    3  A    between atoms: C5_6  and  C6_7 
REMARK    4  A    between atoms: C6_7  and  C7_8 
REMARK    5  A    between atoms: C7_8  and  C8_9 
ROOT
HETATM    1  C8  UNL     1      -0.626   8.425  14.336  1.00  0.00    -0.057 A 
HETATM    2  C9  UNL     1      -0.362   8.598  12.993  1.00  0.00     0.008 A 
HETATM    3  C10 UNL     1      -1.216   9.324  12.189  1.00  0.00     0.013 A 
HETATM    4  C11 UNL     1      -2.351   9.897  12.689  1.00  0.00    -0.026 A 
HETATM    5  C12 UNL     1      -3.188  10.618  11.865  1.00  0.00     0.012 A 
HETATM    6  C13 UNL     1      -4.334  11.201  12.345  1.00  0.00     0.001 A 
HETATM    7  C14 UNL     1      -4.613  11.036  13.693  1.00  0.00     0.001 A 
HETATM    8  C15 UNL     1      -3.780  10.319  14.519  1.00  0.00     0.012 A 
HETATM    9  C16 UNL     1      -2.628   9.730  14.040  1.00  0.00    -0.025 A 
HETATM   10  C17 UNL     1      -1.768   8.999  14.851  1.00  0.00     0.019 A 
ENDROOT
BRANCH   1  11
HETATM   11  C7  UNL     1       0.313   7.628  15.197  1.00  0.00     0.039 C 
BRANCH  11  12
HETATM   12  C6  UNL     1       1.409   7.144  14.261  1.00  0.00     0.015 C 
BRANCH  12  13
HETATM   13  C5  UNL     1       1.551   5.650  14.296  1.00  0.00     0.080 C 
BRANCH  13  14
HETATM   14  S1  UNL     1       0.172   4.812  15.103  1.00  0.00    -0.130 SA
BRANCH  14  15
HETATM   15  C4  UNL     1       0.133   3.081  14.642  1.00  0.00     0.000 A 
HETATM   16  C3  UNL     1       1.318   2.396  14.386  1.00  0.00     0.018 A 
HETATM   17  C2  UNL     1       1.335   1.084  14.055  1.00  0.00     0.001 A 
HETATM   18  C1  UNL     1       0.185   0.347  13.951  1.00  0.00     0.000 A 
HETATM   19  C19 UNL     1      -1.004   0.994  14.200  1.00  0.00     0.001 A 
HETATM   20  C18 UNL     1      -1.028   2.349  14.542  1.00  0.00     0.018 A 
ENDBRANCH  14  15
ENDBRANCH  13  14
ENDBRANCH  12  13
ENDBRANCH  11  12
ENDBRANCH   1  11
TORSDOF 5
ENDMDL
MODEL 2
REMARK VINA RESULT: -10.632062470      0.158      1.061
REMARK  5 active torsions:
REMARK  status: ('A' for Active; 'I' for Inactive)
REMARK    1  A    between atoms: C4_4  and  S1_5 
REMARK    2  A    between atoms: S1_5  and  C5_6 
REMARK    3  A    between atoms: C5_6  and  C6_7 
REMARK    4  A    between atoms: C6_7  and  C7_8 
REMARK    5  A    between atoms: C7_8  and  C8_9 
ROOT
HETATM    1  C8  UNL     1      -0.807   8.459  14.261  1.00  0.00    -0.057 A 
HETATM    2  C9  UNL     1      -0.524   8.632  12.922  1.00  0.00     0.008 A 
HETATM    3  C10 UNL     1      -1.349   9.387  12.114  1.00  0.00     0.013 A 
HETATM    4  C11 UNL     1      -2.472   9.989  12.605  1.00  0.00    -0.026 A 
HETATM    5  C12 UNL     1      -3.279  10.738  11.776  1.00  0.00     0.012 A 
HETATM    6  C13 UNL     1      -4.413  11.351  12.247  1.00  0.00     0.001 A 
HETATM    7  C14 UNL     1      -4.711  11.186  13.592  1.00  0.00     0.001 A 
HETATM    8  C15 UNL     1      -3.908  10.441  14.422  1.00  0.00     0.012 A 
HETATM    9  C16 UNL     1      -2.768   9.822  13.952  1.00  0.00    -0.025 A 
HETATM   10  C17 UNL     1      -1.938   9.063  14.767  1.00  0.00     0.019 A 
ENDROOT
BRANCH   1  11
HETATM   11  C7  UNL     1       0.100   7.631  15.127  1.00  0.00     0.039 C 
BRANCH  11  12
HETATM   12  C6  UNL     1       1.251   7.214  14.226  1.00  0.00     0.015 C 
BRANCH  12  13
HETATM   13  C5  UNL     1       1.478   5.730  14.263  1.00  0.00     0.080 C 
BRANCH  13  14
HETATM   14  S1  UNL     1       0.160   4.819  15.093  1.00  0.00    -0.130 SA
BRANCH  14  15
HETATM   15  C4  UNL     1       0.221   3.084  14.647  1.00  0.00     0.000 A 
HETATM   16  C3  UNL     1      -0.951   2.332  14.597  1.00  0.00     0.018 A 
HETATM   17  C2  UNL     1      -0.952   1.025  14.246  1.00  0.00     0.001 A 
HETATM   18  C1  UNL     1       0.199   0.360  13.917  1.00  0.00     0.000 A 
HETATM   19  C19 UNL     1       1.374   1.076  13.956  1.00  0.00     0.001 A 
HETATM   20  C18 UNL     1       1.383   2.426  14.318  1.00  0.00     0.018 A 
ENDBRANCH  14  15
ENDBRANCH  13  14
ENDBRANCH  12  13
ENDBRANCH  11  12
ENDBRANCH   1  11
TORSDOF 5
ENDMDL
MODEL 3
REMARK VINA RESULT: -10.622351719      0.557      1.594
REMARK  5 active torsions:
REMARK  status: ('A' for Active; 'I' for Inactive)
REMARK    1  A    between atoms: C4_4  and  S1_5 
REMARK    2  A    between atoms: S1_5  and  C5_6 
REMARK    3  A    between atoms: C5_6  and  C6_7 
REMARK    4  A    between atoms: C6_7  and  C7_8 
REMARK    5  A    between atoms: C7_8  and  C8_9 
ROOT
HETATM    1  C8  UNL     1      -0.285   8.530  13.304  1.00  0.00    -0.057 A 
HETATM    2  C9  UNL     1      -0.685   8.518  14.624  1.00  0.00     0.008 A 
HETATM    3  C10 UNL     1      -1.854   9.135  15.017  1.00  0.00     0.013 A 
HETATM    4  C11 UNL     1      -2.658   9.779  14.120  1.00  0.00    -0.026 A 
HETATM    5  C12 UNL     1      -3.820  10.388  14.540  1.00  0.00     0.012 A 
HETATM    6  C13 UNL     1      -4.643  11.042  13.656  1.00  0.00     0.001 A 
HETATM    7  C14 UNL     1      -4.255  11.062  12.325  1.00  0.00     0.001 A 
HETATM    8  C15 UNL     1      -3.096  10.455  11.903  1.00  0.00     0.012 A 
HETATM    9  C16 UNL     1      -2.266   9.798  12.787  1.00  0.00    -0.025 A 
HETATM   10  C17 UNL     1      -1.089   9.177  12.389  1.00  0.00     0.019 A 
ENDROOT
BRANCH   1  11
HETATM   11  C7  UNL     1       0.993   7.856  12.891  1.00  0.00     0.039 C 
BRANCH  11  12
HETATM   12  C6  UNL     1       0.680   6.368  12.879  1.00  0.00     0.015 C 
BRANCH  12  13
HETATM   13  C5  UNL     1       1.402   5.638  13.973  1.00  0.00     0.080 C 
BRANCH  13  14
HETATM   14  S1  UNL     1       0.302   4.785  15.121  1.00  0.00    -0.130 SA
BRANCH  14  15
HETATM   15  C4  UNL     1       0.117   3.065  14.652  1.00  0.00     0.000 A 
HETATM   16  C3  UNL     1       1.242   2.278  14.414  1.00  0.00     0.018 A 
HETATM   17  C2  UNL     1       1.147   0.971  14.079  1.00  0.00     0.001 A 
HETATM   18  C1  UNL     1      -0.061   0.339  13.952  1.00  0.00     0.000 A 
HETATM   19  C19 UNL     1      -1.192   1.089  14.182  1.00  0.00     0.001 A 
HETATM   20  C18 UNL     1      -1.102   2.440  14.529  1.00  0.00     0.018 A 
ENDBRANCH  14  15
ENDBRANCH  13  14
ENDBRANCH  12  13
ENDBRANCH  11  12
ENDBRANCH   1  11
TORSDOF 5
ENDMDL
MODEL 4
REMARK VINA RESULT: -10.608045792      0.628      1.922
REMARK  5 active torsions:
REMARK  status: ('A' for Active; 'I' for Inactive)
REMARK    1  A    between atoms: C4_4  and  S1_5 
REMARK    2  A    between atoms: S1_5  and  C5_6 
REMARK    3  A    between atoms: C5_6  and  C6_7 
REMARK    4  A    between atoms: C6_7  and  C7_8 
REMARK    5  A    between atoms: C7_8  and  C8_9 
ROOT
HETATM    1  C8  UNL     1      -0.237   8.475  13.301  1.00  0.00    -0.057 A 
HETATM    2  C9  UNL     1      -0.643   8.451  14.619  1.00  0.00     0.008 A 
HETATM    3  C10 UNL     1      -1.809   9.073  15.014  1.00  0.00     0.013 A 
HETATM    4  C11 UNL     1      -2.603   9.734  14.121  1.00  0.00    -0.026 A 
HETATM    5  C12 UNL     1      -3.763  10.348  14.542  1.00  0.00     0.012 A 
HETATM    6  C13 UNL     1      -4.576  11.019  13.662  1.00  0.00     0.001 A 
HETATM    7  C14 UNL     1      -4.181  11.051  12.333  1.00  0.00     0.001 A 
HETATM    8  C15 UNL     1      -3.025  10.440  11.909  1.00  0.00     0.012 A 
HETATM    9  C16 UNL     1      -2.205   9.766  12.790  1.00  0.00    -0.025 A 
HETATM   10  C17 UNL     1      -1.031   9.139  12.390  1.00  0.00     0.019 A 
ENDROOT
BRANCH   1  11
HETATM   11  C7  UNL     1       1.037   7.795  12.887  1.00  0.00     0.039 C 
BRANCH  11  12
HETATM   12  C6  UNL     1       0.701   6.314  12.813  1.00  0.00     0.015 C 
BRANCH  12  13
HETATM   13  C5  UNL     1       1.504   5.511  13.794  1.00  0.00     0.080 C 
BRANCH  13  14
HETATM   14  S1  UNL     1       0.505   4.731  15.078  1.00  0.00    -0.130 SA
BRANCH  14  15
HETATM   15  C4  UNL     1       0.168   3.021  14.660  1.00  0.00     0.000 A 
HETATM   16  C3  UNL     1      -1.146   2.577  14.530  1.00  0.00     0.018 A 
HETATM   17  C2  UNL     1      -1.443   1.301  14.195  1.00  0.00     0.001 A 
HETATM   18  C1  UNL     1      -0.471   0.364  13.963  1.00  0.00     0.000 A 
HETATM   19  C19 UNL     1       0.839   0.772  14.083  1.00  0.00     0.001 A 
HETATM   20  C18 UNL     1       1.153   2.089  14.428  1.00  0.00     0.018 A 
ENDBRANCH  14  15
ENDBRANCH  13  14
ENDBRANCH  12  13
ENDBRANCH  11  12
ENDBRANCH   1  11
TORSDOF 5
ENDMDL
MODEL 5
REMARK VINA RESULT: -10.550615136      5.992      8.079
REMARK  5 active torsions:
REMARK  status: ('A' for Active; 'I' for Inactive)
REMARK    1  A    between atoms: C4_4  and  S1_5 
REMARK    2  A    between atoms: S1_5  and  C5_6 
REMARK    3  A    between atoms: C5_6  and  C6_7 
REMARK    4  A    between atoms: C6_7  and  C7_8 
REMARK    5  A    between atoms: C7_8  and  C8_9 
ROOT
HETATM    1  C8  UNL     1       5.496   4.260  12.525  1.00  0.00    -0.057 A 
HETATM    2  C9  UNL     1       6.672   3.648  12.144  1.00  0.00     0.008 A 
HETATM    3  C10 UNL     1       7.745   4.389  11.693  1.00  0.00     0.013 A 
HETATM    4  C11 UNL     1       7.685   5.751  11.608  1.00  0.00    -0.026 A 
HETATM    5  C12 UNL     1       8.771   6.468  11.155  1.00  0.00     0.012 A 
HETATM    6  C13 UNL     1       8.734   7.837  11.060  1.00  0.00     0.001 A 
HETATM    7  C14 UNL     1       7.558   8.467  11.440  1.00  0.00     0.001 A 
HETATM    8  C15 UNL     1       6.473   7.755  11.894  1.00  0.00     0.012 A 
HETATM    9  C16 UNL     1       6.506   6.379  11.990  1.00  0.00    -0.025 A 
HETATM   10  C17 UNL     1       5.425   5.635  12.444  1.00  0.00     0.019 A 
ENDROOT
BRANCH   1  11
HETATM   11  C7  UNL     1       4.335   3.438  13.010  1.00  0.00     0.039 C 
BRANCH  11  12
HETATM   12  C6  UNL     1       4.602   2.027  12.513  1.00  0.00     0.015 C 
BRANCH  12  13
HETATM   13  C5  UNL     1       3.335   1.324  12.123  1.00  0.00     0.080 C 
BRANCH  13  14
HETATM   14  S1  UNL     1       2.636   0.309  13.440  1.00  0.00    -0.130 SA
BRANCH  14  15
HETATM   15  C4  UNL     1       1.242   1.138  14.200  1.00  0.00     0.000 A 
HETATM   16  C3  UNL     1       1.450   2.215  15.059  1.00  0.00     0.018 A 
HETATM   17  C2  UNL     1       0.425   2.882  15.638  1.00  0.00     0.001 A 
HETATM   18  C1  UNL     1      -0.883   2.540  15.415  1.00  0.00     0.000 A 
HETATM   19  C19 UNL     1      -1.122   1.480  14.570  1.00  0.00     0.001 A 
HETATM   20  C18 UNL     1      -0.068   0.787  13.969  1.00  0.00     0.018 A 
ENDBRANCH  14  15
ENDBRANCH  13  14
ENDBRANCH  12  13
ENDBRANCH  11  12
ENDBRANCH   1  11
TORSDOF 5
ENDMDL
