MODEL 1
REMARK VINA RESULT: -5.965840935      0.000      0.000
REMARK  16 active torsions:
REMARK  status: ('A' for Active; 'I' for Inactive)
REMARK    1  A    between atoms: C2_2  and  C3_3 
REMARK    2  A    between atoms: C3_3  and  C4_4 
REMARK    3  A    between atoms: C4_4  and  N1_5 
REMARK    4  A    between atoms: N1_5  and  C5_8 
REMARK    5  A    between atoms: C5_8  and  C6_9 
REMARK    6  A    between atoms: C6_9  and  N2_10 
REMARK       I    between atoms: N2_10  and  C7_12 
REMARK    7  A    between atoms: C7_12  and  C8_14 
REMARK    8  A    between atoms: C8_14  and  O2_15 
REMARK    9  A    between atoms: O2_15  and  C9_16 
REMARK   10  A    between atoms: C10_17  and  O3_18 
REMARK   11  A    between atoms: C11_20  and  C12_21 
REMARK   12  A    between atoms: C12_21  and  N3_22 
REMARK   13  A    between atoms: C13_27  and  N4_28 
REMARK   14  A    between atoms: N5_33  and  N6_34 
REMARK   15  A    between atoms: C17_38  and  N7_39 
REMARK   16  A    between atoms: C18_44  and  N9_45 
ROOT
HETATM    1  C9  UNL     1      13.669   3.074  -1.601  1.00  0.00     0.234 C 
HETATM    2  C10 UNL     1      15.192   3.119  -1.291  1.00  0.00     0.186 C 
HETATM    3  C11 UNL     1      15.399   1.696  -0.848  1.00  0.00     0.187 C 
HETATM    4  O4  UNL     1      14.236   1.237  -0.290  1.00  0.00    -0.327 OA
HETATM    5  C13 UNL     1      13.288   2.248  -0.422  1.00  0.00     0.162 C 
ENDROOT
BRANCH   5   6
HETATM    6  N4  UNL     1      11.968   1.953  -0.127  1.00  0.00    -0.237 N 
HETATM    7  C14 UNL     1      11.326   2.570   0.923  1.00  0.00     0.325 A 
HETATM    8  O5  UNL     1      11.983   3.434   1.583  1.00  0.00    -0.261 OA
HETATM    9  C15 UNL     1      10.033   2.295   1.280  1.00  0.00     0.335 A 
HETATM   10  O6  UNL     1       9.515   2.900   2.253  1.00  0.00    -0.260 OA
HETATM   11  N5  UNL     1       9.319   1.378   0.589  1.00  0.00    -0.215 N 
HETATM   12  C16 UNL     1       9.913   0.757  -0.441  1.00  0.00     0.148 A 
HETATM   13  C17 UNL     1       9.208  -0.163  -1.158  1.00  0.00     0.147 A 
HETATM   14  C19 UNL     1      11.227   1.054  -0.785  1.00  0.00     0.165 A 
HETATM   15  N8  UNL     1       9.753  -0.800  -2.203  1.00  0.00    -0.175 N 
HETATM   16  C18 UNL     1      11.015  -0.511  -2.533  1.00  0.00     0.679 A 
ATOM     17  H8  UNL     1       9.218  -1.487  -2.734  1.00  0.00     0.186 HD
HETATM   18  N10 UNL     1      11.748   0.395  -1.846  1.00  0.00    -0.174 N 
ATOM     19  H10 UNL     1      12.709   0.584  -2.132  1.00  0.00     0.186 HD
BRANCH  11  20
HETATM   20  N6  UNL     1       8.002   1.107   0.967  1.00  0.00    -0.335 N 
ATOM     21  H62 UNL     1       7.771   0.639   1.843  1.00  0.00     0.177 HD
ATOM     22  H61 UNL     1       7.237   1.383   0.351  1.00  0.00     0.177 HD
ENDBRANCH  11  20
BRANCH  13  23
HETATM   23  N7  UNL     1       7.995  -0.419  -0.816  1.00  0.00    -0.383 N 
ATOM     24  H72 UNL     1       7.810  -0.936   0.044  1.00  0.00     0.157 HD
ATOM     25  H71 UNL     1       7.236  -0.097  -1.416  1.00  0.00     0.157 HD
ENDBRANCH  13  23
BRANCH  16  26
HETATM   26  N9  UNL     1      11.564  -1.111  -3.534  1.00  0.00    -0.234 N 
ATOM     27  H92 UNL     1      11.151  -1.984  -3.862  1.00  0.00     0.174 HD
ATOM     28  H91 UNL     1      12.389  -0.703  -3.974  1.00  0.00     0.174 HD
ENDBRANCH  16  26
ENDBRANCH   5   6
BRANCH   1  29
HETATM   29  O2  UNL     1      13.119   4.301  -1.521  1.00  0.00    -0.341 OA
BRANCH  29  30
HETATM   30  C8  UNL     1      12.211   4.780  -2.357  1.00  0.00     0.209 C 
BRANCH  30  31
HETATM   31  C7  UNL     1      10.845   4.298  -2.386  1.00  0.00     0.263 C 
HETATM   32  N2  UNL     1       9.948   4.812  -1.410  1.00  0.00    -0.354 N 
ATOM     33  H2  UNL     1      10.247   5.496  -0.715  1.00  0.00     0.162 HD
HETATM   34  O1  UNL     1      10.441   3.472  -3.214  1.00  0.00    -0.267 OA
BRANCH  32  35
HETATM   35  C6  UNL     1       8.571   4.309  -1.450  1.00  0.00     0.150 C 
BRANCH  35  36
HETATM   36  C5  UNL     1       7.705   5.032  -2.428  1.00  0.00     0.251 C 
BRANCH  36  37
HETATM   37  N1  UNL     1       7.175   4.087  -3.379  1.00  0.00    -0.074 N 
ATOM     38  H12 UNL     1       7.789   4.008  -4.189  1.00  0.00     0.277 HD
ATOM     39  H11 UNL     1       6.342   4.461  -3.833  1.00  0.00     0.277 HD
BRANCH  37  40
HETATM   40  C4  UNL     1       6.907   2.787  -2.815  1.00  0.00     0.232 C 
BRANCH  40  41
HETATM   41  C3  UNL     1       5.695   2.180  -3.505  1.00  0.00     0.027 C 
BRANCH  41  42
HETATM   42  C2  UNL     1       5.707   0.672  -3.400  1.00  0.00    -0.003 C 
HETATM   43  C1  UNL     1       6.775   0.036  -4.219  1.00  0.00     0.005 C 
ENDBRANCH  41  42
ENDBRANCH  40  41
ENDBRANCH  37  40
ENDBRANCH  36  37
ENDBRANCH  35  36
ENDBRANCH  32  35
ENDBRANCH  30  31
ENDBRANCH  29  30
ENDBRANCH   1  29
BRANCH   2  44
HETATM   44  O3  UNL     1      15.459   3.959  -0.240  1.00  0.00    -0.390 OA
ATOM     45  H3  UNL     1      15.760   3.474   0.519  1.00  0.00     0.210 HD
ENDBRANCH   2  44
BRANCH   3  46
HETATM   46  C12 UNL     1      16.607   1.521   0.027  1.00  0.00     0.264 C 
BRANCH  46  47
HETATM   47  N3  UNL     1      16.131   1.278   1.374  1.00  0.00    -0.077 N 
ATOM     48  H33 UNL     1      16.513   1.932   2.057  1.00  0.00     0.274 HD
ATOM     49  H32 UNL     1      15.147   1.517   1.499  1.00  0.00     0.274 HD
ATOM     50  H31 UNL     1      16.336   0.303   1.596  1.00  0.00     0.274 HD
ENDBRANCH  46  47
ENDBRANCH   3  46
TORSDOF 16
ENDMDL
MODEL 2
REMARK VINA RESULT: -5.933891660      2.364      3.975
REMARK  16 active torsions:
REMARK  status: ('A' for Active; 'I' for Inactive)
REMARK    1  A    between atoms: C2_2  and  C3_3 
REMARK    2  A    between atoms: C3_3  and  C4_4 
REMARK    3  A    between atoms: C4_4  and  N1_5 
REMARK    4  A    between atoms: N1_5  and  C5_8 
REMARK    5  A    between atoms: C5_8  and  C6_9 
REMARK    6  A    between atoms: C6_9  and  N2_10 
REMARK       I    between atoms: N2_10  and  C7_12 
REMARK    7  A    between atoms: C7_12  and  C8_14 
REMARK    8  A    between atoms: C8_14  and  O2_15 
REMARK    9  A    between atoms: O2_15  and  C9_16 
REMARK   10  A    between atoms: C10_17  and  O3_18 
REMARK   11  A    between atoms: C11_20  and  C12_21 
REMARK   12  A    between atoms: C12_21  and  N3_22 
REMARK   13  A    between atoms: C13_27  and  N4_28 
REMARK   14  A    between atoms: N5_33  and  N6_34 
REMARK   15  A    between atoms: C17_38  and  N7_39 
REMARK   16  A    between atoms: C18_44  and  N9_45 
ROOT
HETATM    1  C9  UNL     1      12.197   0.899  -2.883  1.00  0.00     0.234 C 
HETATM    2  C10 UNL     1      13.222  -0.213  -3.247  1.00  0.00     0.186 C 
HETATM    3  C11 UNL     1      12.275  -1.362  -3.466  1.00  0.00     0.187 C 
HETATM    4  O4  UNL     1      11.173  -1.181  -2.673  1.00  0.00    -0.327 OA
HETATM    5  C13 UNL     1      11.327   0.044  -2.029  1.00  0.00     0.162 C 
ENDROOT
BRANCH   5   6
HETATM    6  N4  UNL     1      10.247   0.559  -1.332  1.00  0.00    -0.237 N 
HETATM    7  C14 UNL     1      10.370   0.920  -0.009  1.00  0.00     0.325 A 
HETATM    8  O5  UNL     1      11.513   0.788   0.529  1.00  0.00    -0.261 OA
HETATM    9  C15 UNL     1       9.329   1.405   0.738  1.00  0.00     0.335 A 
HETATM   10  O6  UNL     1       9.519   1.712   1.942  1.00  0.00    -0.260 OA
HETATM   11  N5  UNL     1       8.106   1.551   0.182  1.00  0.00    -0.215 N 
HETATM   12  C16 UNL     1       7.950   1.210  -1.107  1.00  0.00     0.148 A 
HETATM   13  C17 UNL     1       6.728   1.361  -1.690  1.00  0.00     0.147 A 
HETATM   14  C19 UNL     1       9.022   0.721  -1.845  1.00  0.00     0.165 A 
HETATM   15  N8  UNL     1       6.525   1.046  -2.977  1.00  0.00    -0.175 N 
HETATM   16  C18 UNL     1       7.557   0.578  -3.684  1.00  0.00     0.679 A 
ATOM     17  H8  UNL     1       5.607   1.162  -3.405  1.00  0.00     0.186 HD
HETATM   18  N10 UNL     1       8.785   0.414  -3.141  1.00  0.00    -0.174 N 
ATOM     19  H10 UNL     1       9.545   0.053  -3.718  1.00  0.00     0.186 HD
BRANCH  11  20
HETATM   20  N6  UNL     1       7.055   2.045   0.957  1.00  0.00    -0.335 N 
ATOM     21  H62 UNL     1       7.052   2.994   1.331  1.00  0.00     0.177 HD
ATOM     22  H61 UNL     1       6.257   1.443   1.161  1.00  0.00     0.177 HD
ENDBRANCH  11  20
BRANCH  13  23
HETATM   23  N7  UNL     1       5.753   1.813  -0.982  1.00  0.00    -0.383 N 
ATOM     24  H72 UNL     1       5.855   1.888   0.030  1.00  0.00     0.157 HD
ATOM     25  H71 UNL     1       4.892   2.091  -1.452  1.00  0.00     0.157 HD
ENDBRANCH  13  23
BRANCH  16  26
HETATM   26  N9  UNL     1       7.389   0.267  -4.924  1.00  0.00    -0.234 N 
ATOM     27  H92 UNL     1       6.822   0.884  -5.506  1.00  0.00     0.174 HD
ATOM     28  H91 UNL     1       7.824  -0.578  -5.294  1.00  0.00     0.174 HD
ENDBRANCH  16  26
ENDBRANCH   5   6
BRANCH   1  29
HETATM   29  O2  UNL     1      12.773   1.872  -2.153  1.00  0.00    -0.341 OA
BRANCH  29  30
HETATM   30  C8  UNL     1      12.814   3.151  -2.492  1.00  0.00     0.209 C 
BRANCH  30  31
HETATM   31  C7  UNL     1      12.307   4.203  -1.634  1.00  0.00     0.263 C 
HETATM   32  N2  UNL     1      13.138   5.338  -1.427  1.00  0.00    -0.354 N 
ATOM     33  H2  UNL     1      14.055   5.418  -1.867  1.00  0.00     0.162 HD
HETATM   34  O1  UNL     1      11.199   4.147  -1.085  1.00  0.00    -0.267 OA
BRANCH  32  35
HETATM   35  C6  UNL     1      12.612   6.390  -0.552  1.00  0.00     0.150 C 
BRANCH  35  36
HETATM   36  C5  UNL     1      11.985   7.522  -1.297  1.00  0.00     0.251 C 
BRANCH  36  37
HETATM   37  N1  UNL     1      10.594   7.223  -1.530  1.00  0.00    -0.074 N 
ATOM     38  H12 UNL     1       9.996   7.836  -0.977  1.00  0.00     0.277 HD
ATOM     39  H11 UNL     1      10.345   6.324  -1.117  1.00  0.00     0.277 HD
BRANCH  37  40
HETATM   40  C4  UNL     1      10.220   7.266  -2.922  1.00  0.00     0.232 C 
BRANCH  40  41
HETATM   41  C3  UNL     1       9.085   6.282  -3.168  1.00  0.00     0.027 C 
BRANCH  41  42
HETATM   42  C2  UNL     1       8.084   6.311  -2.036  1.00  0.00    -0.003 C 
HETATM   43  C1  UNL     1       7.758   4.958  -1.508  1.00  0.00     0.005 C 
ENDBRANCH  41  42
ENDBRANCH  40  41
ENDBRANCH  37  40
ENDBRANCH  36  37
ENDBRANCH  35  36
ENDBRANCH  32  35
ENDBRANCH  30  31
ENDBRANCH  29  30
ENDBRANCH   1  29
BRANCH   2  44
HETATM   44  O3  UNL     1      14.038  -0.501  -2.184  1.00  0.00    -0.390 OA
ATOM     45  H3  UNL     1      13.586  -1.028  -1.536  1.00  0.00     0.210 HD
ENDBRANCH   2  44
BRANCH   3  46
HETATM   46  C12 UNL     1      12.931  -2.704  -3.303  1.00  0.00     0.264 C 
BRANCH  46  47
HETATM   47  N3  UNL     1      14.051  -2.749  -4.222  1.00  0.00    -0.077 N 
ATOM     48  H33 UNL     1      14.385  -3.696  -4.397  1.00  0.00     0.274 HD
ATOM     49  H32 UNL     1      13.790  -2.522  -5.181  1.00  0.00     0.274 HD
ATOM     50  H31 UNL     1      14.774  -2.134  -3.848  1.00  0.00     0.274 HD
ENDBRANCH  46  47
ENDBRANCH   3  46
TORSDOF 16
ENDMDL
MODEL 3
REMARK VINA RESULT: -5.905222681      3.865      6.110
REMARK  16 active torsions:
REMARK  status: ('A' for Active; 'I' for Inactive)
REMARK    1  A    between atoms: C2_2  and  C3_3 
REMARK    2  A    between atoms: C3_3  and  C4_4 
REMARK    3  A    between atoms: C4_4  and  N1_5 
REMARK    4  A    between atoms: N1_5  and  C5_8 
REMARK    5  A    between atoms: C5_8  and  C6_9 
REMARK    6  A    between atoms: C6_9  and  N2_10 
REMARK       I    between atoms: N2_10  and  C7_12 
REMARK    7  A    between atoms: C7_12  and  C8_14 
REMARK    8  A    between atoms: C8_14  and  O2_15 
REMARK    9  A    between atoms: O2_15  and  C9_16 
REMARK   10  A    between atoms: C10_17  and  O3_18 
REMARK   11  A    between atoms: C11_20  and  C12_21 
REMARK   12  A    between atoms: C12_21  and  N3_22 
REMARK   13  A    between atoms: C13_27  and  N4_28 
REMARK   14  A    between atoms: N5_33  and  N6_34 
REMARK   15  A    between atoms: C17_38  and  N7_39 
REMARK   16  A    between atoms: C18_44  and  N9_45 
ROOT
HETATM    1  C9  UNL     1       9.878   4.734  -4.836  1.00  0.00     0.234 C 
HETATM    2  C10 UNL     1      10.062   6.136  -5.484  1.00  0.00     0.186 C 
HETATM    3  C11 UNL     1       9.970   6.994  -4.251  1.00  0.00     0.187 C 
HETATM    4  O4  UNL     1       9.164   6.367  -3.339  1.00  0.00    -0.327 OA
HETATM    5  C13 UNL     1       8.806   5.137  -3.882  1.00  0.00     0.162 C 
ENDROOT
BRANCH   5   6
HETATM    6  N4  UNL     1       8.167   4.218  -3.066  1.00  0.00    -0.237 N 
HETATM    7  C14 UNL     1       6.942   3.698  -3.417  1.00  0.00     0.325 A 
HETATM    8  O5  UNL     1       6.445   4.070  -4.525  1.00  0.00    -0.261 OA
HETATM    9  C15 UNL     1       6.250   2.812  -2.635  1.00  0.00     0.335 A 
HETATM   10  O6  UNL     1       5.134   2.381  -3.023  1.00  0.00    -0.260 OA
HETATM   11  N5  UNL     1       6.764   2.406  -1.453  1.00  0.00    -0.215 N 
HETATM   12  C16 UNL     1       7.958   2.893  -1.079  1.00  0.00     0.148 A 
HETATM   13  C17 UNL     1       8.500   2.487   0.104  1.00  0.00     0.147 A 
HETATM   14  C19 UNL     1       8.642   3.790  -1.891  1.00  0.00     0.165 A 
HETATM   15  N8  UNL     1       9.694   2.935   0.514  1.00  0.00    -0.175 N 
HETATM   16  C18 UNL     1      10.350   3.796  -0.269  1.00  0.00     0.679 A 
ATOM     17  H8  UNL     1      10.092   2.626   1.401  1.00  0.00     0.186 HD
HETATM   18  N10 UNL     1       9.845   4.223  -1.449  1.00  0.00    -0.174 N 
ATOM     19  H10 UNL     1      10.380   4.881  -2.015  1.00  0.00     0.186 HD
BRANCH  11  20
HETATM   20  N6  UNL     1       6.045   1.504  -0.665  1.00  0.00    -0.335 N 
ATOM     21  H62 UNL     1       5.868   0.544  -0.960  1.00  0.00     0.177 HD
ATOM     22  H61 UNL     1       5.681   1.807   0.238  1.00  0.00     0.177 HD
ENDBRANCH  11  20
BRANCH  13  23
HETATM   23  N7  UNL     1       7.843   1.658   0.836  1.00  0.00    -0.383 N 
ATOM     24  H72 UNL     1       7.994   0.655   0.725  1.00  0.00     0.157 HD
ATOM     25  H71 UNL     1       7.178   2.023   1.518  1.00  0.00     0.157 HD
ENDBRANCH  13  23
BRANCH  16  26
HETATM   26  N9  UNL     1      11.501   4.244   0.103  1.00  0.00    -0.234 N 
ATOM     27  H92 UNL     1      11.542   5.157   0.557  1.00  0.00     0.174 HD
ATOM     28  H91 UNL     1      12.336   3.682  -0.061  1.00  0.00     0.174 HD
ENDBRANCH  16  26
ENDBRANCH   5   6
BRANCH   1  29
HETATM   29  O2  UNL     1       9.410   3.842  -5.730  1.00  0.00    -0.341 OA
BRANCH  29  30
HETATM   30  C8  UNL     1       9.723   2.556  -5.753  1.00  0.00     0.209 C 
BRANCH  30  31
HETATM   31  C7  UNL     1       8.812   1.523  -5.304  1.00  0.00     0.263 C 
HETATM   32  N2  UNL     1       7.564   1.412  -5.976  1.00  0.00    -0.354 N 
ATOM     33  H2  UNL     1       7.314   2.031  -6.748  1.00  0.00     0.162 HD
HETATM   34  O1  UNL     1       9.078   0.750  -4.374  1.00  0.00    -0.267 OA
BRANCH  32  35
HETATM   35  C6  UNL     1       6.652   0.365  -5.505  1.00  0.00     0.150 C 
BRANCH  35  36
HETATM   36  C5  UNL     1       5.269   0.495  -6.051  1.00  0.00     0.251 C 
BRANCH  36  37
HETATM   37  N1  UNL     1       4.868   1.879  -6.001  1.00  0.00    -0.074 N 
ATOM     38  H12 UNL     1       5.402   2.433  -6.671  1.00  0.00     0.277 HD
ATOM     39  H11 UNL     1       5.182   2.313  -5.133  1.00  0.00     0.277 HD
BRANCH  37  40
HETATM   40  C4  UNL     1       3.453   2.077  -6.189  1.00  0.00     0.232 C 
BRANCH  40  41
HETATM   41  C3  UNL     1       3.094   3.512  -5.832  1.00  0.00     0.027 C 
BRANCH  41  42
HETATM   42  C2  UNL     1       1.602   3.672  -5.650  1.00  0.00    -0.003 C 
HETATM   43  C1  UNL     1       1.241   4.757  -4.698  1.00  0.00     0.005 C 
ENDBRANCH  41  42
ENDBRANCH  40  41
ENDBRANCH  37  40
ENDBRANCH  36  37
ENDBRANCH  35  36
ENDBRANCH  32  35
ENDBRANCH  30  31
ENDBRANCH  29  30
ENDBRANCH   1  29
BRANCH   2  44
HETATM   44  O3  UNL     1       9.017   6.437  -6.319  1.00  0.00    -0.390 OA
ATOM     45  H3  UNL     1       9.157   6.078  -7.187  1.00  0.00     0.210 HD
ENDBRANCH   2  44
BRANCH   3  46
HETATM   46  C12 UNL     1       9.568   8.411  -4.549  1.00  0.00     0.264 C 
BRANCH  46  47
HETATM   47  N3  UNL     1      10.528   8.939  -5.498  1.00  0.00    -0.077 N 
ATOM     48  H33 UNL     1      10.416   9.939  -5.664  1.00  0.00     0.274 HD
ATOM     49  H32 UNL     1      11.478   8.972  -5.129  1.00  0.00     0.274 HD
ATOM     50  H31 UNL     1      10.449   8.382  -6.350  1.00  0.00     0.274 HD
ENDBRANCH  46  47
ENDBRANCH   3  46
TORSDOF 16
ENDMDL
MODEL 4
REMARK VINA RESULT: -5.878963570      3.037      7.226
REMARK  16 active torsions:
REMARK  status: ('A' for Active; 'I' for Inactive)
REMARK    1  A    between atoms: C2_2  and  C3_3 
REMARK    2  A    between atoms: C3_3  and  C4_4 
REMARK    3  A    between atoms: C4_4  and  N1_5 
REMARK    4  A    between atoms: N1_5  and  C5_8 
REMARK    5  A    between atoms: C5_8  and  C6_9 
REMARK    6  A    between atoms: C6_9  and  N2_10 
REMARK       I    between atoms: N2_10  and  C7_12 
REMARK    7  A    between atoms: C7_12  and  C8_14 
REMARK    8  A    between atoms: C8_14  and  O2_15 
REMARK    9  A    between atoms: O2_15  and  C9_16 
REMARK   10  A    between atoms: C10_17  and  O3_18 
REMARK   11  A    between atoms: C11_20  and  C12_21 
REMARK   12  A    between atoms: C12_21  and  N3_22 
REMARK   13  A    between atoms: C13_27  and  N4_28 
REMARK   14  A    between atoms: N5_33  and  N6_34 
REMARK   15  A    between atoms: C17_38  and  N7_39 
REMARK   16  A    between atoms: C18_44  and  N9_45 
ROOT
HETATM    1  C9  UNL     1       8.114   0.534  -5.061  1.00  0.00     0.234 C 
HETATM    2  C10 UNL     1       7.231  -0.295  -6.037  1.00  0.00     0.186 C 
HETATM    3  C11 UNL     1       6.287   0.784  -6.495  1.00  0.00     0.187 C 
HETATM    4  O4  UNL     1       6.147   1.702  -5.489  1.00  0.00    -0.327 OA
HETATM    5  C13 UNL     1       6.998   1.315  -4.458  1.00  0.00     0.162 C 
ENDROOT
BRANCH   5   6
HETATM    6  N4  UNL     1       7.202   2.197  -3.409  1.00  0.00    -0.237 N 
HETATM    7  C14 UNL     1       6.815   1.869  -2.129  1.00  0.00     0.325 A 
HETATM    8  O5  UNL     1       6.296   0.723  -1.950  1.00  0.00    -0.261 OA
HETATM    9  C15 UNL     1       6.962   2.712  -1.060  1.00  0.00     0.335 A 
HETATM   10  O6  UNL     1       6.583   2.342   0.080  1.00  0.00    -0.260 OA
HETATM   11  N5  UNL     1       7.512   3.935  -1.232  1.00  0.00    -0.215 N 
HETATM   12  C16 UNL     1       7.902   4.287  -2.467  1.00  0.00     0.148 A 
HETATM   13  C17 UNL     1       8.470   5.511  -2.660  1.00  0.00     0.147 A 
HETATM   14  C19 UNL     1       7.743   3.413  -3.536  1.00  0.00     0.165 A 
HETATM   15  N8  UNL     1       8.887   5.903  -3.871  1.00  0.00    -0.175 N 
HETATM   16  C18 UNL     1       8.735   5.061  -4.897  1.00  0.00     0.679 A 
ATOM     17  H8  UNL     1       9.310   6.822  -4.007  1.00  0.00     0.186 HD
HETATM   18  N10 UNL     1       8.175   3.839  -4.746  1.00  0.00    -0.174 N 
ATOM     19  H10 UNL     1       8.078   3.227  -5.556  1.00  0.00     0.186 HD
BRANCH  11  20
HETATM   20  N6  UNL     1       7.654   4.784  -0.132  1.00  0.00    -0.335 N 
ATOM     21  H62 UNL     1       6.923   4.894   0.570  1.00  0.00     0.177 HD
ATOM     22  H61 UNL     1       8.516   5.318  -0.019  1.00  0.00     0.177 HD
ENDBRANCH  11  20
BRANCH  13  23
HETATM   23  N7  UNL     1       8.602   6.300  -1.652  1.00  0.00    -0.383 N 
ATOM     24  H72 UNL     1       8.801   5.914  -0.730  1.00  0.00     0.157 HD
ATOM     25  H71 UNL     1       8.505   7.305  -1.798  1.00  0.00     0.157 HD
ENDBRANCH  13  23
BRANCH  16  26
HETATM   26  N9  UNL     1       9.126   5.414  -6.074  1.00  0.00    -0.234 N 
ATOM     27  H92 UNL     1       9.914   6.059  -6.149  1.00  0.00     0.174 HD
ATOM     28  H91 UNL     1       8.648   5.045  -6.895  1.00  0.00     0.174 HD
ENDBRANCH  16  26
ENDBRANCH   5   6
BRANCH   1  29
HETATM   29  O2  UNL     1       8.694  -0.258  -4.138  1.00  0.00    -0.341 OA
BRANCH  29  30
HETATM   30  C8  UNL     1       9.937  -0.128  -3.702  1.00  0.00     0.209 C 
BRANCH  30  31
HETATM   31  C7  UNL     1      10.312  -0.383  -2.327  1.00  0.00     0.263 C 
HETATM   32  N2  UNL     1       9.282  -0.343  -1.348  1.00  0.00    -0.354 N 
ATOM     33  H2  UNL     1       8.313  -0.146  -1.598  1.00  0.00     0.162 HD
HETATM   34  O1  UNL     1      11.476  -0.631  -1.981  1.00  0.00    -0.267 OA
BRANCH  32  35
HETATM   35  C6  UNL     1       9.680  -0.598   0.040  1.00  0.00     0.150 C 
BRANCH  35  36
HETATM   36  C5  UNL     1       8.872   0.164   1.037  1.00  0.00     0.251 C 
BRANCH  36  37
HETATM   37  N1  UNL     1       9.437   1.481   1.196  1.00  0.00    -0.074 N 
ATOM     38  H12 UNL     1       8.830   2.067   1.769  1.00  0.00     0.277 HD
ATOM     39  H11 UNL     1       9.396   1.999   0.319  1.00  0.00     0.277 HD
BRANCH  37  40
HETATM   40  C4  UNL     1      10.780   1.474   1.722  1.00  0.00     0.232 C 
BRANCH  40  41
HETATM   41  C3  UNL     1      11.672   2.330   0.834  1.00  0.00     0.027 C 
BRANCH  41  42
HETATM   42  C2  UNL     1      10.848   3.201  -0.087  1.00  0.00    -0.003 C 
HETATM   43  C1  UNL     1      11.265   3.104  -1.512  1.00  0.00     0.005 C 
ENDBRANCH  41  42
ENDBRANCH  40  41
ENDBRANCH  37  40
ENDBRANCH  36  37
ENDBRANCH  35  36
ENDBRANCH  32  35
ENDBRANCH  30  31
ENDBRANCH  29  30
ENDBRANCH   1  29
BRANCH   2  44
HETATM   44  O3  UNL     1       6.520  -1.257  -5.367  1.00  0.00    -0.390 OA
ATOM     45  H3  UNL     1       6.407  -2.035  -5.901  1.00  0.00     0.210 HD
ENDBRANCH   2  44
BRANCH   3  46
HETATM   46  C12 UNL     1       4.985   0.245  -7.016  1.00  0.00     0.264 C 
BRANCH  46  47
HETATM   47  N3  UNL     1       4.019   0.342  -5.940  1.00  0.00    -0.077 N 
ATOM     48  H33 UNL     1       4.153   1.167  -5.356  1.00  0.00     0.274 HD
ATOM     49  H32 UNL     1       3.078   0.564  -6.266  1.00  0.00     0.274 HD
ATOM     50  H31 UNL     1       4.063  -0.531  -5.413  1.00  0.00     0.274 HD
ENDBRANCH  46  47
ENDBRANCH   3  46
TORSDOF 16
ENDMDL
MODEL 5
REMARK VINA RESULT: -5.782297026      3.252      5.137
REMARK  16 active torsions:
REMARK  status: ('A' for Active; 'I' for Inactive)
REMARK    1  A    between atoms: C2_2  and  C3_3 
REMARK    2  A    between atoms: C3_3  and  C4_4 
REMARK    3  A    between atoms: C4_4  and  N1_5 
REMARK    4  A    between atoms: N1_5  and  C5_8 
REMARK    5  A    between atoms: C5_8  and  C6_9 
REMARK    6  A    between atoms: C6_9  and  N2_10 
REMARK       I    between atoms: N2_10  and  C7_12 
REMARK    7  A    between atoms: C7_12  and  C8_14 
REMARK    8  A    between atoms: C8_14  and  O2_15 
REMARK    9  A    between atoms: O2_15  and  C9_16 
REMARK   10  A    between atoms: C10_17  and  O3_18 
REMARK   11  A    between atoms: C11_20  and  C12_21 
REMARK   12  A    between atoms: C12_21  and  N3_22 
REMARK   13  A    between atoms: C13_27  and  N4_28 
REMARK   14  A    between atoms: N5_33  and  N6_34 
REMARK   15  A    between atoms: C17_38  and  N7_39 
REMARK   16  A    between atoms: C18_44  and  N9_45 
ROOT
HETATM    1  C9  UNL     1       9.608   2.008  -4.810  1.00  0.00     0.234 C 
HETATM    2  C10 UNL     1      10.557   1.236  -5.770  1.00  0.00     0.186 C 
HETATM    3  C11 UNL     1      10.681  -0.057  -5.011  1.00  0.00     0.187 C 
HETATM    4  O4  UNL     1      10.538   0.202  -3.674  1.00  0.00    -0.327 OA
HETATM    5  C13 UNL     1      10.256   1.559  -3.546  1.00  0.00     0.162 C 
ENDROOT
BRANCH   5   6
HETATM    6  N4  UNL     1       9.856   2.033  -2.308  1.00  0.00    -0.237 N 
HETATM    7  C14 UNL     1      10.748   2.678  -1.480  1.00  0.00     0.325 A 
HETATM    8  O5  UNL     1      11.931   2.843  -1.911  1.00  0.00    -0.261 OA
HETATM    9  C15 UNL     1      10.417   3.138  -0.233  1.00  0.00     0.335 A 
HETATM   10  O6  UNL     1      11.287   3.717   0.466  1.00  0.00    -0.260 OA
HETATM   11  N5  UNL     1       9.163   2.971   0.241  1.00  0.00    -0.215 N 
HETATM   12  C16 UNL     1       8.267   2.347  -0.540  1.00  0.00     0.148 A 
HETATM   13  C17 UNL     1       6.994   2.178  -0.085  1.00  0.00     0.147 A 
HETATM   14  C19 UNL     1       8.626   1.889  -1.802  1.00  0.00     0.165 A 
HETATM   15  N8  UNL     1       6.061   1.573  -0.833  1.00  0.00    -0.175 N 
HETATM   16  C18 UNL     1       6.407   1.135  -2.046  1.00  0.00     0.679 A 
ATOM     17  H8  UNL     1       5.110   1.450  -0.484  1.00  0.00     0.186 HD
HETATM   18  N10 UNL     1       7.661   1.283  -2.532  1.00  0.00    -0.174 N 
ATOM     19  H10 UNL     1       7.883   0.934  -3.465  1.00  0.00     0.186 HD
BRANCH  11  20
HETATM   20  N6  UNL     1       8.842   3.445   1.515  1.00  0.00    -0.335 N 
ATOM     21  H62 UNL     1       9.286   3.084   2.359  1.00  0.00     0.177 HD
ATOM     22  H61 UNL     1       8.140   4.178   1.615  1.00  0.00     0.177 HD
ENDBRANCH  11  20
BRANCH  13  23
HETATM   23  N7  UNL     1       6.691   2.610   1.088  1.00  0.00    -0.383 N 
ATOM     24  H72 UNL     1       7.429   2.923   1.719  1.00  0.00     0.157 HD
ATOM     25  H71 UNL     1       5.710   2.632   1.366  1.00  0.00     0.157 HD
ENDBRANCH  13  23
BRANCH  16  26
HETATM   26  N9  UNL     1       5.529   0.548  -2.786  1.00  0.00    -0.234 N 
ATOM     27  H92 UNL     1       5.857  -0.059  -3.538  1.00  0.00     0.174 HD
ATOM     28  H91 UNL     1       4.537   0.700  -2.605  1.00  0.00     0.174 HD
ENDBRANCH  16  26
ENDBRANCH   5   6
BRANCH   1  29
HETATM   29  O2  UNL     1       9.736   3.339  -4.965  1.00  0.00    -0.341 OA
BRANCH  29  30
HETATM   30  C8  UNL     1       8.732   4.182  -5.150  1.00  0.00     0.209 C 
BRANCH  30  31
HETATM   31  C7  UNL     1       7.361   3.844  -4.826  1.00  0.00     0.263 C 
HETATM   32  N2  UNL     1       6.615   3.122  -5.798  1.00  0.00    -0.354 N 
ATOM     33  H2  UNL     1       7.025   2.846  -6.690  1.00  0.00     0.162 HD
HETATM   34  O1  UNL     1       6.827   4.157  -3.753  1.00  0.00    -0.267 OA
BRANCH  32  35
HETATM   35  C6  UNL     1       5.228   2.794  -5.455  1.00  0.00     0.150 C 
BRANCH  35  36
HETATM   36  C5  UNL     1       4.227   3.444  -6.352  1.00  0.00     0.251 C 
BRANCH  36  37
HETATM   37  N1  UNL     1       3.351   4.272  -5.562  1.00  0.00    -0.074 N 
ATOM     38  H12 UNL     1       3.282   5.208  -5.962  1.00  0.00     0.277 HD
ATOM     39  H11 UNL     1       3.782   4.502  -4.667  1.00  0.00     0.277 HD
BRANCH  37  40
HETATM   40  C4  UNL     1       2.040   3.704  -5.366  1.00  0.00     0.232 C 
BRANCH  40  41
HETATM   41  C3  UNL     1       1.127   4.750  -4.742  1.00  0.00     0.027 C 
BRANCH  41  42
HETATM   42  C2  UNL     1      -0.268   4.668  -5.318  1.00  0.00    -0.003 C 
HETATM   43  C1  UNL     1      -1.010   3.454  -4.885  1.00  0.00     0.005 C 
ENDBRANCH  41  42
ENDBRANCH  40  41
ENDBRANCH  37  40
ENDBRANCH  36  37
ENDBRANCH  35  36
ENDBRANCH  32  35
ENDBRANCH  30  31
ENDBRANCH  29  30
ENDBRANCH   1  29
BRANCH   2  44
HETATM   44  O3  UNL     1      11.789   1.835  -5.837  1.00  0.00    -0.390 OA
ATOM     45  H3  UNL     1      12.483   1.189  -5.896  1.00  0.00     0.210 HD
ENDBRANCH   2  44
BRANCH   3  46
HETATM   46  C12 UNL     1      11.926  -0.825  -5.355  1.00  0.00     0.264 C 
BRANCH  46  47
HETATM   47  N3  UNL     1      11.908  -1.052  -6.786  1.00  0.00    -0.077 N 
ATOM     48  H33 UNL     1      11.032  -0.771  -7.225  1.00  0.00     0.274 HD
ATOM     49  H32 UNL     1      12.521  -0.418  -7.298  1.00  0.00     0.274 HD
ATOM     50  H31 UNL     1      12.133  -2.036  -6.939  1.00  0.00     0.274 HD
ENDBRANCH  46  47
ENDBRANCH   3  46
TORSDOF 16
ENDMDL
