MODEL 1
REMARK VINA RESULT: -6.853635990      0.000      0.000
REMARK  13 active torsions:
REMARK  status: ('A' for Active; 'I' for Inactive)
REMARK       I    between atoms: C2_2  and  N1_4 
REMARK    1  A    between atoms: N1_4  and  C3_5 
REMARK    2  A    between atoms: N1_4  and  C6_14 
REMARK    3  A    between atoms: C3_5  and  C4_6 
REMARK    4  A    between atoms: C4_6  and  N2_7 
REMARK       I    between atoms: N2_7  and  C5_9 
REMARK    5  A    between atoms: C10_23  and  N7_24 
REMARK    6  A    between atoms: N7_24  and  C11_26 
REMARK    7  A    between atoms: C11_26  and  C12_27 
REMARK    8  A    between atoms: C12_27  and  N8_28 
REMARK    9  A    between atoms: N10_35  and  C15_36 
REMARK   10  A    between atoms: C16_38  and  C17_39 
REMARK   11  A    between atoms: C17_39  and  O4_40 
REMARK   12  A    between atoms: C18_42  and  N11_43 
REMARK   13  A    between atoms: C19_47  and  N12_48 
ROOT
HETATM    1  C6  UNL     1       4.619   2.475  -5.172  1.00  0.00     0.690 A 
HETATM    2  N5  UNL     1       4.689   2.406  -3.842  1.00  0.00    -0.154 N 
ATOM      3  H5  UNL     1       3.836   2.278  -3.299  1.00  0.00     0.187 HD
HETATM    4  C7  UNL     1       5.896   2.506  -3.198  1.00  0.00     0.290 A 
HETATM    5  O2  UNL     1       5.896   2.438  -1.952  1.00  0.00    -0.265 OA
HETATM    6  C8  UNL     1       7.066   2.677  -3.880  1.00  0.00     0.156 A 
HETATM    7  C9  UNL     1       6.985   2.751  -5.296  1.00  0.00     0.111 A 
HETATM    8  N6  UNL     1       5.765   2.644  -5.840  1.00  0.00    -0.186 N 
ATOM      9  H6  UNL     1       5.705   2.697  -6.857  1.00  0.00     0.184 HD
HETATM   10  C10 UNL     1       8.170   2.946  -6.096  1.00  0.00     0.075 A 
HETATM   11  C13 UNL     1       9.316   3.055  -5.512  1.00  0.00     0.142 A 
HETATM   12  N9  UNL     1       9.439   2.987  -4.108  1.00  0.00    -0.296 N 
HETATM   13  C14 UNL     1      10.745   3.203  -3.519  1.00  0.00     0.177 C 
HETATM   14  N10 UNL     1       8.333   2.792  -3.212  1.00  0.00    -0.226 N 
ENDROOT
BRANCH  14  15
HETATM   15  C15 UNL     1       8.459   2.691  -1.829  1.00  0.00     0.167 C 
HETATM   16  O3  UNL     1       8.863   1.513  -1.221  1.00  0.00    -0.326 OA
HETATM   17  C16 UNL     1       8.587   1.706   0.117  1.00  0.00     0.186 C 
HETATM   18  C18 UNL     1       8.756   3.157   0.419  1.00  0.00     0.246 C 
HETATM   19  C19 UNL     1       8.734   3.864  -0.956  1.00  0.00     0.208 C 
BRANCH  17  20
HETATM   20  C17 UNL     1       7.305   1.096   0.582  1.00  0.00     0.198 C 
BRANCH  20  21
HETATM   21  O4  UNL     1       6.605   1.943   1.452  1.00  0.00    -0.398 OA
ATOM     22  H4  UNL     1       5.738   1.611   1.651  1.00  0.00     0.209 HD
ENDBRANCH  20  21
ENDBRANCH  17  20
BRANCH  18  23
HETATM   23  N11 UNL     1      10.023   3.458   1.055  1.00  0.00    -0.070 N 
ATOM     24 3H11 UNL     1      10.437   2.617   1.457  1.00  0.00     0.274 HD
ATOM     25 2H11 UNL     1      10.736   3.679   0.359  1.00  0.00     0.274 HD
ATOM     26 1H11 UNL     1       9.952   4.199   1.752  1.00  0.00     0.274 HD
ENDBRANCH  18  23
BRANCH  19  27
HETATM   27  N12 UNL     1       7.660   4.816  -0.851  1.00  0.00    -0.328 N 
HETATM   28  N13 UNL     1       7.738   5.997  -1.210  1.00  0.00    -0.349 N 
ATOM     29 2H13 UNL     1       8.629   6.300  -1.604  1.00  0.00     0.176 HD
ATOM     30 1H13 UNL     1       6.977   6.672  -1.135  1.00  0.00     0.176 HD
ATOM     31  H12 UNL     1       6.777   4.496  -0.455  1.00  0.00     0.180 HD
ENDBRANCH  19  27
ENDBRANCH  14  15
BRANCH  10  32
HETATM   32  N7  UNL     1       8.116   3.011  -7.503  1.00  0.00    -0.385 N 
ATOM     33  H7  UNL     1       7.668   3.819  -7.934  1.00  0.00     0.159 HD
BRANCH  32  34
HETATM   34  C11 UNL     1       8.665   1.985  -8.366  1.00  0.00     0.147 C 
BRANCH  34  35
HETATM   35  C12 UNL     1       7.740   0.804  -8.483  1.00  0.00     0.249 C 
BRANCH  35  36
HETATM   36  N8  UNL     1       8.415  -0.463  -8.298  1.00  0.00    -0.078 N 
ATOM     37  H83 UNL     1       9.401  -0.390  -8.549  1.00  0.00     0.274 HD
ATOM     38  H82 UNL     1       8.511  -0.683  -7.306  1.00  0.00     0.274 HD
ATOM     39  H81 UNL     1       7.967  -1.230  -8.799  1.00  0.00     0.274 HD
ENDBRANCH  35  36
ENDBRANCH  34  35
ENDBRANCH  32  34
ENDBRANCH  10  32
BRANCH   1  40
HETATM   40  N1  UNL     1       3.361   2.357  -5.855  1.00  0.00    -0.150 N 
HETATM   41  C2  UNL     1       2.381   3.344  -5.682  1.00  0.00     0.234 C 
HETATM   42  C1  UNL     1       1.087   3.274  -6.370  1.00  0.00     0.118 C 
HETATM   43  O1  UNL     1       2.604   4.313  -4.922  1.00  0.00    -0.273 OA
BRANCH  40  44
HETATM   44  C3  UNL     1       3.092   1.215  -6.715  1.00  0.00     0.170 C 
BRANCH  44  45
HETATM   45  C4  UNL     1       3.456  -0.084  -6.016  1.00  0.00     0.143 C 
BRANCH  45  46
HETATM   46  N2  UNL     1       4.261  -0.913  -6.857  1.00  0.00    -0.363 N 
HETATM   47  C5  UNL     1       5.534  -1.354  -6.428  1.00  0.00     0.181 C 
HETATM   48  N3  UNL     1       6.218  -0.727  -5.542  1.00  0.00    -0.374 N 
HETATM   49  N4  UNL     1       6.075  -2.538  -7.002  1.00  0.00    -0.064 NA
ATOM     50  H32 UNL     1       5.829   0.121  -5.130  1.00  0.00     0.158 HD
ATOM     51  H31 UNL     1       7.137  -1.046  -5.233  1.00  0.00     0.158 HD
ATOM     52  H2  UNL     1       3.913  -1.190  -7.775  1.00  0.00     0.162 HD
ENDBRANCH  45  46
ENDBRANCH  44  45
ENDBRANCH  40  44
ENDBRANCH   1  40
TORSDOF 13
ENDMDL
MODEL 2
REMARK VINA RESULT: -6.649853332      1.478      2.139
REMARK  13 active torsions:
REMARK  status: ('A' for Active; 'I' for Inactive)
REMARK       I    between atoms: C2_2  and  N1_4 
REMARK    1  A    between atoms: N1_4  and  C3_5 
REMARK    2  A    between atoms: N1_4  and  C6_14 
REMARK    3  A    between atoms: C3_5  and  C4_6 
REMARK    4  A    between atoms: C4_6  and  N2_7 
REMARK       I    between atoms: N2_7  and  C5_9 
REMARK    5  A    between atoms: C10_23  and  N7_24 
REMARK    6  A    between atoms: N7_24  and  C11_26 
REMARK    7  A    between atoms: C11_26  and  C12_27 
REMARK    8  A    between atoms: C12_27  and  N8_28 
REMARK    9  A    between atoms: N10_35  and  C15_36 
REMARK   10  A    between atoms: C16_38  and  C17_39 
REMARK   11  A    between atoms: C17_39  and  O4_40 
REMARK   12  A    between atoms: C18_42  and  N11_43 
REMARK   13  A    between atoms: C19_47  and  N12_48 
ROOT
HETATM    1  C6  UNL     1       4.668   2.407  -5.065  1.00  0.00     0.690 A 
HETATM    2  N5  UNL     1       4.750   2.342  -3.736  1.00  0.00    -0.154 N 
ATOM      3  H5  UNL     1       3.903   2.212  -3.184  1.00  0.00     0.187 HD
HETATM    4  C7  UNL     1       5.962   2.449  -3.103  1.00  0.00     0.290 A 
HETATM    5  O2  UNL     1       5.973   2.385  -1.857  1.00  0.00    -0.265 OA
HETATM    6  C8  UNL     1       7.125   2.624  -3.795  1.00  0.00     0.156 A 
HETATM    7  C9  UNL     1       7.032   2.694  -5.211  1.00  0.00     0.111 A 
HETATM    8  N6  UNL     1       5.807   2.580  -5.743  1.00  0.00    -0.186 N 
ATOM      9  H6  UNL     1       5.738   2.631  -6.760  1.00  0.00     0.184 HD
HETATM   10  C10 UNL     1       8.209   2.893  -6.021  1.00  0.00     0.075 A 
HETATM   11  C13 UNL     1       9.359   3.008  -5.448  1.00  0.00     0.142 A 
HETATM   12  N9  UNL     1       9.495   2.945  -4.045  1.00  0.00    -0.296 N 
HETATM   13  C14 UNL     1      10.805   3.168  -3.468  1.00  0.00     0.177 C 
HETATM   14  N10 UNL     1       8.398   2.746  -3.139  1.00  0.00    -0.226 N 
ENDROOT
BRANCH  14  15
HETATM   15  C15 UNL     1       8.536   2.650  -1.757  1.00  0.00     0.167 C 
HETATM   16  O3  UNL     1       8.977   1.483  -1.151  1.00  0.00    -0.326 OA
HETATM   17  C16 UNL     1       8.705   1.669   0.188  1.00  0.00     0.186 C 
HETATM   18  C18 UNL     1       8.836   3.125   0.489  1.00  0.00     0.246 C 
HETATM   19  C19 UNL     1       8.786   3.830  -0.886  1.00  0.00     0.208 C 
BRANCH  17  20
HETATM   20  C17 UNL     1       7.444   1.025   0.663  1.00  0.00     0.198 C 
BRANCH  20  21
HETATM   21  O4  UNL     1       6.617   1.927   1.344  1.00  0.00    -0.398 OA
ATOM     22  H4  UNL     1       6.709   1.853   2.287  1.00  0.00     0.209 HD
ENDBRANCH  20  21
ENDBRANCH  17  20
BRANCH  18  23
HETATM   23  N11 UNL     1      10.099   3.461   1.115  1.00  0.00    -0.070 N 
ATOM     24 3H11 UNL     1      10.770   3.799   0.425  1.00  0.00     0.274 HD
ATOM     25 2H11 UNL     1      10.010   4.301   1.686  1.00  0.00     0.274 HD
ATOM     26 1H11 UNL     1      10.491   2.691   1.658  1.00  0.00     0.274 HD
ENDBRANCH  18  23
BRANCH  19  27
HETATM   27  N12 UNL     1       7.687   4.752  -0.773  1.00  0.00    -0.328 N 
HETATM   28  N13 UNL     1       7.740   5.944  -1.101  1.00  0.00    -0.349 N 
ATOM     29 2H13 UNL     1       8.629   6.278  -1.474  1.00  0.00     0.176 HD
ATOM     30 1H13 UNL     1       6.961   6.597  -1.022  1.00  0.00     0.176 HD
ATOM     31  H12 UNL     1       6.806   4.401  -0.399  1.00  0.00     0.180 HD
ENDBRANCH  19  27
ENDBRANCH  14  15
BRANCH  10  32
HETATM   32  N7  UNL     1       8.142   2.953  -7.428  1.00  0.00    -0.385 N 
ATOM     33  H7  UNL     1       7.224   3.023  -7.867  1.00  0.00     0.159 HD
BRANCH  32  34
HETATM   34  C11 UNL     1       9.312   2.922  -8.280  1.00  0.00     0.147 C 
BRANCH  34  35
HETATM   35  C12 UNL     1       9.393   4.140  -9.159  1.00  0.00     0.249 C 
BRANCH  35  36
HETATM   36  N8  UNL     1       8.457   4.104 -10.262  1.00  0.00    -0.078 N 
ATOM     37  H83 UNL     1       8.554   3.239 -10.794  1.00  0.00     0.274 HD
ATOM     38  H82 UNL     1       7.501   3.986  -9.925  1.00  0.00     0.274 HD
ATOM     39  H81 UNL     1       8.529   4.919 -10.873  1.00  0.00     0.274 HD
ENDBRANCH  35  36
ENDBRANCH  34  35
ENDBRANCH  32  34
ENDBRANCH  10  32
BRANCH   1  40
HETATM   40  N1  UNL     1       3.404   2.282  -5.737  1.00  0.00    -0.150 N 
HETATM   41  C2  UNL     1       2.497   3.350  -5.715  1.00  0.00     0.234 C 
HETATM   42  C1  UNL     1       1.201   3.274  -6.399  1.00  0.00     0.118 C 
HETATM   43  O1  UNL     1       2.789   4.400  -5.099  1.00  0.00    -0.273 OA
BRANCH  40  44
HETATM   44  C3  UNL     1       3.054   1.051  -6.427  1.00  0.00     0.170 C 
BRANCH  44  45
HETATM   45  C4  UNL     1       2.924   1.287  -7.921  1.00  0.00     0.143 C 
BRANCH  45  46
HETATM   46  N2  UNL     1       4.181   1.648  -8.498  1.00  0.00    -0.363 N 
HETATM   47  C5  UNL     1       4.397   2.953  -8.997  1.00  0.00     0.181 C 
HETATM   48  N3  UNL     1       3.436   3.714  -9.376  1.00  0.00    -0.374 N 
HETATM   49  N4  UNL     1       5.732   3.440  -9.080  1.00  0.00    -0.064 NA
ATOM     50  H32 UNL     1       2.480   3.365  -9.316  1.00  0.00     0.158 HD
ATOM     51  H31 UNL     1       3.593   4.656  -9.735  1.00  0.00     0.158 HD
ATOM     52  H2  UNL     1       4.929   0.956  -8.551  1.00  0.00     0.162 HD
ENDBRANCH  45  46
ENDBRANCH  44  45
ENDBRANCH  40  44
ENDBRANCH   1  40
TORSDOF 13
ENDMDL
MODEL 3
REMARK VINA RESULT: -6.501038879      0.948      1.135
REMARK  13 active torsions:
REMARK  status: ('A' for Active; 'I' for Inactive)
REMARK       I    between atoms: C2_2  and  N1_4 
REMARK    1  A    between atoms: N1_4  and  C3_5 
REMARK    2  A    between atoms: N1_4  and  C6_14 
REMARK    3  A    between atoms: C3_5  and  C4_6 
REMARK    4  A    between atoms: C4_6  and  N2_7 
REMARK       I    between atoms: N2_7  and  C5_9 
REMARK    5  A    between atoms: C10_23  and  N7_24 
REMARK    6  A    between atoms: N7_24  and  C11_26 
REMARK    7  A    between atoms: C11_26  and  C12_27 
REMARK    8  A    between atoms: C12_27  and  N8_28 
REMARK    9  A    between atoms: N10_35  and  C15_36 
REMARK   10  A    between atoms: C16_38  and  C17_39 
REMARK   11  A    between atoms: C17_39  and  O4_40 
REMARK   12  A    between atoms: C18_42  and  N11_43 
REMARK   13  A    between atoms: C19_47  and  N12_48 
ROOT
HETATM    1  C6  UNL     1       4.924   2.075  -4.967  1.00  0.00     0.690 A 
HETATM    2  N5  UNL     1       5.008   2.146  -3.638  1.00  0.00    -0.154 N 
ATOM      3  H5  UNL     1       4.155   2.157  -3.079  1.00  0.00     0.187 HD
HETATM    4  C7  UNL     1       6.229   2.205  -3.015  1.00  0.00     0.290 A 
HETATM    5  O2  UNL     1       6.241   2.274  -1.769  1.00  0.00    -0.265 OA
HETATM    6  C8  UNL     1       7.398   2.194  -3.718  1.00  0.00     0.156 A 
HETATM    7  C9  UNL     1       7.303   2.120  -5.133  1.00  0.00     0.111 A 
HETATM    8  N6  UNL     1       6.070   2.066  -5.655  1.00  0.00    -0.186 N 
ATOM      9  H6  UNL     1       5.999   2.013  -6.671  1.00  0.00     0.184 HD
HETATM   10  C10 UNL     1       8.488   2.117  -5.956  1.00  0.00     0.075 A 
HETATM   11  C13 UNL     1       9.648   2.184  -5.393  1.00  0.00     0.142 A 
HETATM   12  N9  UNL     1       9.786   2.259  -3.992  1.00  0.00    -0.296 N 
HETATM   13  C14 UNL     1      11.115   2.418  -3.437  1.00  0.00     0.177 C 
HETATM   14  N10 UNL     1       8.681   2.265  -3.073  1.00  0.00    -0.226 N 
ENDROOT
BRANCH  14  15
HETATM   15  C15 UNL     1       8.818   2.304  -1.689  1.00  0.00     0.167 C 
HETATM   16  O3  UNL     1       9.188   1.183  -0.963  1.00  0.00    -0.326 OA
HETATM   17  C16 UNL     1       8.934   1.524   0.349  1.00  0.00     0.186 C 
HETATM   18  C18 UNL     1       9.156   2.992   0.496  1.00  0.00     0.246 C 
HETATM   19  C19 UNL     1       9.144   3.551  -0.945  1.00  0.00     0.208 C 
BRANCH  17  20
HETATM   20  C17 UNL     1       7.637   1.012   0.885  1.00  0.00     0.198 C 
BRANCH  20  21
HETATM   21  O4  UNL     1       6.816   2.047   1.352  1.00  0.00    -0.398 OA
ATOM     22  H4  UNL     1       6.019   2.128   0.842  1.00  0.00     0.209 HD
ENDBRANCH  20  21
ENDBRANCH  17  20
BRANCH  18  23
HETATM   23  N11 UNL     1      10.440   3.312   1.087  1.00  0.00    -0.070 N 
ATOM     24 3H11 UNL     1      10.798   2.525   1.627  1.00  0.00     0.274 HD
ATOM     25 2H11 UNL     1      11.166   3.369   0.373  1.00  0.00     0.274 HD
ATOM     26 1H11 UNL     1      10.417   4.161   1.652  1.00  0.00     0.274 HD
ENDBRANCH  18  23
BRANCH  19  27
HETATM   27  N12 UNL     1       8.105   4.547  -0.933  1.00  0.00    -0.328 N 
HETATM   28  N13 UNL     1       7.317   4.721   0.005  1.00  0.00    -0.349 N 
ATOM     29 2H13 UNL     1       7.425   4.111   0.815  1.00  0.00     0.176 HD
ATOM     30 1H13 UNL     1       6.581   5.427   0.013  1.00  0.00     0.176 HD
ATOM     31  H12 UNL     1       8.012   5.149  -1.751  1.00  0.00     0.180 HD
ENDBRANCH  19  27
ENDBRANCH  14  15
BRANCH  10  32
HETATM   32  N7  UNL     1       8.418   2.032  -7.361  1.00  0.00    -0.385 N 
ATOM     33  H7  UNL     1       8.376   1.108  -7.790  1.00  0.00     0.159 HD
BRANCH  32  34
HETATM   34  C11 UNL     1       8.403   3.194  -8.226  1.00  0.00     0.147 C 
BRANCH  34  35
HETATM   35  C12 UNL     1       7.505   2.989  -9.416  1.00  0.00     0.249 C 
BRANCH  35  36
HETATM   36  N8  UNL     1       6.118   2.795  -9.050  1.00  0.00    -0.078 N 
ATOM     37  H83 UNL     1       5.965   1.855  -8.684  1.00  0.00     0.274 HD
ATOM     38  H82 UNL     1       5.881   3.338  -8.219  1.00  0.00     0.274 HD
ATOM     39  H81 UNL     1       5.472   2.999  -9.814  1.00  0.00     0.274 HD
ENDBRANCH  35  36
ENDBRANCH  34  35
ENDBRANCH  32  34
ENDBRANCH  10  32
BRANCH   1  40
HETATM   40  N1  UNL     1       3.649   1.999  -5.626  1.00  0.00    -0.150 N 
HETATM   41  C2  UNL     1       2.929   3.173  -5.884  1.00  0.00     0.234 C 
HETATM   42  C1  UNL     1       1.632   3.146  -6.568  1.00  0.00     0.118 C 
HETATM   43  O1  UNL     1       3.396   4.279  -5.526  1.00  0.00    -0.273 OA
BRANCH  40  44
HETATM   44  C3  UNL     1       3.096   0.711  -6.014  1.00  0.00     0.170 C 
BRANCH  44  45
HETATM   45  C4  UNL     1       3.756   0.201  -7.283  1.00  0.00     0.143 C 
BRANCH  45  46
HETATM   46  N2  UNL     1       4.156  -1.164  -7.143  1.00  0.00    -0.363 N 
HETATM   47  C5  UNL     1       5.522  -1.523  -7.187  1.00  0.00     0.181 C 
HETATM   48  N3  UNL     1       6.406  -0.800  -7.774  1.00  0.00    -0.374 N 
HETATM   49  N4  UNL     1       5.932  -2.730  -6.556  1.00  0.00    -0.064 NA
ATOM     50  H32 UNL     1       6.112   0.065  -8.225  1.00  0.00     0.158 HD
ATOM     51  H31 UNL     1       7.392  -1.059  -7.805  1.00  0.00     0.158 HD
ATOM     52  H2  UNL     1       3.448  -1.887  -7.010  1.00  0.00     0.162 HD
ENDBRANCH  45  46
ENDBRANCH  44  45
ENDBRANCH  40  44
ENDBRANCH   1  40
TORSDOF 13
ENDMDL
MODEL 4
REMARK VINA RESULT: -6.444010204      1.195      1.679
REMARK  13 active torsions:
REMARK  status: ('A' for Active; 'I' for Inactive)
REMARK       I    between atoms: C2_2  and  N1_4 
REMARK    1  A    between atoms: N1_4  and  C3_5 
REMARK    2  A    between atoms: N1_4  and  C6_14 
REMARK    3  A    between atoms: C3_5  and  C4_6 
REMARK    4  A    between atoms: C4_6  and  N2_7 
REMARK       I    between atoms: N2_7  and  C5_9 
REMARK    5  A    between atoms: C10_23  and  N7_24 
REMARK    6  A    between atoms: N7_24  and  C11_26 
REMARK    7  A    between atoms: C11_26  and  C12_27 
REMARK    8  A    between atoms: C12_27  and  N8_28 
REMARK    9  A    between atoms: N10_35  and  C15_36 
REMARK   10  A    between atoms: C16_38  and  C17_39 
REMARK   11  A    between atoms: C17_39  and  O4_40 
REMARK   12  A    between atoms: C18_42  and  N11_43 
REMARK   13  A    between atoms: C19_47  and  N12_48 
ROOT
HETATM    1  C6  UNL     1       4.638   2.577  -5.229  1.00  0.00     0.690 A 
HETATM    2  N5  UNL     1       4.679   2.508  -3.898  1.00  0.00    -0.154 N 
ATOM      3  H5  UNL     1       3.812   2.404  -3.372  1.00  0.00     0.187 HD
HETATM    4  C7  UNL     1       5.875   2.577  -3.230  1.00  0.00     0.290 A 
HETATM    5  O2  UNL     1       5.847   2.511  -1.984  1.00  0.00    -0.265 OA
HETATM    6  C8  UNL     1       7.062   2.716  -3.888  1.00  0.00     0.156 A 
HETATM    7  C9  UNL     1       7.012   2.790  -5.306  1.00  0.00     0.111 A 
HETATM    8  N6  UNL     1       5.800   2.715  -5.874  1.00  0.00    -0.186 N 
ATOM      9  H6  UNL     1       5.763   2.768  -6.892  1.00  0.00     0.184 HD
HETATM   10  C10 UNL     1       8.218   2.952  -6.081  1.00  0.00     0.075 A 
HETATM   11  C13 UNL     1       9.354   3.031  -5.475  1.00  0.00     0.142 A 
HETATM   12  N9  UNL     1       9.447   2.962  -4.069  1.00  0.00    -0.296 N 
HETATM   13  C14 UNL     1      10.746   3.144  -3.453  1.00  0.00     0.177 C 
HETATM   14  N10 UNL     1       8.318   2.798  -3.195  1.00  0.00    -0.226 N 
ENDROOT
BRANCH  14  15
HETATM   15  C15 UNL     1       8.413   2.696  -1.810  1.00  0.00     0.167 C 
HETATM   16  O3  UNL     1       8.778   1.510  -1.192  1.00  0.00    -0.326 OA
HETATM   17  C16 UNL     1       8.479   1.710   0.139  1.00  0.00     0.186 C 
HETATM   18  C18 UNL     1       8.675   3.158   0.443  1.00  0.00     0.246 C 
HETATM   19  C19 UNL     1       8.698   3.863  -0.932  1.00  0.00     0.208 C 
BRANCH  17  20
HETATM   20  C17 UNL     1       7.175   1.131   0.579  1.00  0.00     0.198 C 
BRANCH  20  21
HETATM   21  O4  UNL     1       6.500   1.972   1.473  1.00  0.00    -0.398 OA
ATOM     22  H4  UNL     1       5.794   1.523   1.922  1.00  0.00     0.209 HD
ENDBRANCH  20  21
ENDBRANCH  17  20
BRANCH  18  23
HETATM   23  N11 UNL     1       9.936   3.431   1.105  1.00  0.00    -0.070 N 
ATOM     24 3H11 UNL     1      10.098   2.770   1.864  1.00  0.00     0.274 HD
ATOM     25 2H11 UNL     1      10.722   3.189   0.502  1.00  0.00     0.274 HD
ATOM     26 1H11 UNL     1      10.011   4.392   1.436  1.00  0.00     0.274 HD
ENDBRANCH  18  23
BRANCH  19  27
HETATM   27  N12 UNL     1       7.644   4.840  -0.850  1.00  0.00    -0.328 N 
HETATM   28  N13 UNL     1       7.738   6.003  -1.259  1.00  0.00    -0.349 N 
ATOM     29 2H13 UNL     1       8.628   6.271  -1.680  1.00  0.00     0.176 HD
ATOM     30 1H13 UNL     1       6.991   6.695  -1.201  1.00  0.00     0.176 HD
ATOM     31  H12 UNL     1       6.761   4.554  -0.426  1.00  0.00     0.180 HD
ENDBRANCH  19  27
ENDBRANCH  14  15
BRANCH  10  32
HETATM   32  N7  UNL     1       8.193   3.015  -7.489  1.00  0.00    -0.385 N 
ATOM     33  H7  UNL     1       8.026   3.919  -7.931  1.00  0.00     0.159 HD
BRANCH  32  34
HETATM   34  C11 UNL     1       8.395   1.860  -8.339  1.00  0.00     0.147 C 
BRANCH  34  35
HETATM   35  C12 UNL     1       7.103   1.386  -8.948  1.00  0.00     0.249 C 
BRANCH  35  36
HETATM   36  N8  UNL     1       6.540   0.244  -8.259  1.00  0.00    -0.078 N 
ATOM     37  H83 UNL     1       7.050  -0.609  -8.491  1.00  0.00     0.274 HD
ATOM     38  H82 UNL     1       6.735   0.289  -7.259  1.00  0.00     0.274 HD
ATOM     39  H81 UNL     1       5.540   0.129  -8.431  1.00  0.00     0.274 HD
ENDBRANCH  35  36
ENDBRANCH  34  35
ENDBRANCH  32  34
ENDBRANCH  10  32
BRANCH   1  40
HETATM   40  N1  UNL     1       3.390   2.491  -5.938  1.00  0.00    -0.150 N 
HETATM   41  C2  UNL     1       2.305   3.280  -5.531  1.00  0.00     0.234 C 
HETATM   42  C1  UNL     1       1.017   3.238  -6.233  1.00  0.00     0.118 C 
HETATM   43  O1  UNL     1       2.427   4.043  -4.546  1.00  0.00    -0.273 OA
BRANCH  40  44
HETATM   44  C3  UNL     1       3.242   1.583  -7.064  1.00  0.00     0.170 C 
BRANCH  44  45
HETATM   45  C4  UNL     1       3.083   0.151  -6.585  1.00  0.00     0.143 C 
BRANCH  45  46
HETATM   46  N2  UNL     1       2.640  -0.701  -7.643  1.00  0.00    -0.363 N 
HETATM   47  C5  UNL     1       1.268  -0.783  -7.975  1.00  0.00     0.181 C 
HETATM   48  N3  UNL     1       0.337  -0.501  -7.137  1.00  0.00    -0.374 N 
HETATM   49  N4  UNL     1       0.906  -1.194  -9.289  1.00  0.00    -0.064 NA
ATOM     50  H32 UNL     1       0.597  -0.206  -6.196  1.00  0.00     0.158 HD
ATOM     51  H31 UNL     1      -0.652  -0.561  -7.377  1.00  0.00     0.158 HD
ATOM     52  H2  UNL     1       3.320  -1.254  -8.164  1.00  0.00     0.162 HD
ENDBRANCH  45  46
ENDBRANCH  44  45
ENDBRANCH  40  44
ENDBRANCH   1  40
TORSDOF 13
ENDMDL
MODEL 5
REMARK VINA RESULT: -6.385091017      1.362      1.749
REMARK  13 active torsions:
REMARK  status: ('A' for Active; 'I' for Inactive)
REMARK       I    between atoms: C2_2  and  N1_4 
REMARK    1  A    between atoms: N1_4  and  C3_5 
REMARK    2  A    between atoms: N1_4  and  C6_14 
REMARK    3  A    between atoms: C3_5  and  C4_6 
REMARK    4  A    between atoms: C4_6  and  N2_7 
REMARK       I    between atoms: N2_7  and  C5_9 
REMARK    5  A    between atoms: C10_23  and  N7_24 
REMARK    6  A    between atoms: N7_24  and  C11_26 
REMARK    7  A    between atoms: C11_26  and  C12_27 
REMARK    8  A    between atoms: C12_27  and  N8_28 
REMARK    9  A    between atoms: N10_35  and  C15_36 
REMARK   10  A    between atoms: C16_38  and  C17_39 
REMARK   11  A    between atoms: C17_39  and  O4_40 
REMARK   12  A    between atoms: C18_42  and  N11_43 
REMARK   13  A    between atoms: C19_47  and  N12_48 
ROOT
HETATM    1  C6  UNL     1       4.753   2.359  -4.975  1.00  0.00     0.690 A 
HETATM    2  N5  UNL     1       4.836   2.270  -3.647  1.00  0.00    -0.154 N 
ATOM      3  H5  UNL     1       3.993   2.103  -3.099  1.00  0.00     0.187 HD
HETATM    4  C7  UNL     1       6.044   2.401  -3.010  1.00  0.00     0.290 A 
HETATM    5  O2  UNL     1       6.056   2.313  -1.766  1.00  0.00    -0.265 OA
HETATM    6  C8  UNL     1       7.201   2.626  -3.698  1.00  0.00     0.156 A 
HETATM    7  C9  UNL     1       7.106   2.721  -5.112  1.00  0.00     0.111 A 
HETATM    8  N6  UNL     1       5.886   2.580  -5.648  1.00  0.00    -0.186 N 
ATOM      9  H6  UNL     1       5.816   2.649  -6.663  1.00  0.00     0.184 HD
HETATM   10  C10 UNL     1       8.277   2.972  -5.917  1.00  0.00     0.075 A 
HETATM   11  C13 UNL     1       9.423   3.111  -5.340  1.00  0.00     0.142 A 
HETATM   12  N9  UNL     1       9.560   3.025  -3.939  1.00  0.00    -0.296 N 
HETATM   13  C14 UNL     1      10.862   3.276  -3.357  1.00  0.00     0.177 C 
HETATM   14  N10 UNL     1       8.469   2.774  -3.038  1.00  0.00    -0.226 N 
ENDROOT
BRANCH  14  15
HETATM   15  C15 UNL     1       8.610   2.655  -1.658  1.00  0.00     0.167 C 
HETATM   16  O3  UNL     1       9.063   1.483  -1.073  1.00  0.00    -0.326 OA
HETATM   17  C16 UNL     1       8.791   1.642   0.269  1.00  0.00     0.186 C 
HETATM   18  C18 UNL     1       8.908   3.093   0.595  1.00  0.00     0.246 C 
HETATM   19  C19 UNL     1       8.849   3.822  -0.767  1.00  0.00     0.208 C 
BRANCH  17  20
HETATM   20  C17 UNL     1       7.537   0.976   0.734  1.00  0.00     0.198 C 
BRANCH  20  21
HETATM   21  O4  UNL     1       6.661   1.878   1.352  1.00  0.00    -0.398 OA
ATOM     22  H4  UNL     1       6.652   1.777   2.296  1.00  0.00     0.209 HD
ENDBRANCH  20  21
ENDBRANCH  17  20
BRANCH  18  23
HETATM   23  N11 UNL     1      10.168   3.431   1.227  1.00  0.00    -0.070 N 
ATOM     24 3H11 UNL     1      10.950   3.249   0.598  1.00  0.00     0.274 HD
ATOM     25 2H11 UNL     1      10.266   4.441   1.327  1.00  0.00     0.274 HD
ATOM     26 1H11 UNL     1      10.302   2.961   2.122  1.00  0.00     0.274 HD
ENDBRANCH  18  23
BRANCH  19  27
HETATM   27  N12 UNL     1       7.740   4.731  -0.637  1.00  0.00    -0.328 N 
HETATM   28  N13 UNL     1       7.713   5.871  -1.117  1.00  0.00    -0.349 N 
ATOM     29 2H13 UNL     1       8.539   6.169  -1.636  1.00  0.00     0.176 HD
ATOM     30 1H13 UNL     1       6.928   6.515  -1.025  1.00  0.00     0.176 HD
ATOM     31  H12 UNL     1       6.923   4.415  -0.115  1.00  0.00     0.180 HD
ENDBRANCH  19  27
ENDBRANCH  14  15
BRANCH  10  32
HETATM   32  N7  UNL     1       8.208   3.058  -7.322  1.00  0.00    -0.385 N 
ATOM     33  H7  UNL     1       7.461   2.557  -7.803  1.00  0.00     0.159 HD
BRANCH  32  34
HETATM   34  C11 UNL     1       9.146   3.824  -8.117  1.00  0.00     0.147 C 
BRANCH  34  35
HETATM   35  C12 UNL     1       8.744   3.864  -9.566  1.00  0.00     0.249 C 
BRANCH  35  36
HETATM   36  N8  UNL     1       7.410   3.352  -9.797  1.00  0.00    -0.078 N 
ATOM     37  H83 UNL     1       7.435   2.353 -10.005  1.00  0.00     0.274 HD
ATOM     38  H82 UNL     1       6.874   3.328  -8.930  1.00  0.00     0.274 HD
ATOM     39  H81 UNL     1       6.907   3.864 -10.523  1.00  0.00     0.274 HD
ENDBRANCH  35  36
ENDBRANCH  34  35
ENDBRANCH  32  34
ENDBRANCH  10  32
BRANCH   1  40
HETATM   40  N1  UNL     1       3.493   2.208  -5.650  1.00  0.00    -0.150 N 
HETATM   41  C2  UNL     1       2.632   3.307  -5.768  1.00  0.00     0.234 C 
HETATM   42  C1  UNL     1       1.344   3.205  -6.462  1.00  0.00     0.118 C 
HETATM   43  O1  UNL     1       2.961   4.409  -5.273  1.00  0.00    -0.273 OA
BRANCH  40  44
HETATM   44  C3  UNL     1       3.100   0.920  -6.199  1.00  0.00     0.170 C 
BRANCH  44  45
HETATM   45  C4  UNL     1       3.714   0.708  -7.571  1.00  0.00     0.143 C 
BRANCH  45  46
HETATM   46  N2  UNL     1       2.725   0.314  -8.524  1.00  0.00    -0.363 N 
HETATM   47  C5  UNL     1       2.356  -1.044  -8.660  1.00  0.00     0.181 C 
HETATM   48  N3  UNL     1       3.133  -2.007  -8.318  1.00  0.00    -0.374 N 
HETATM   49  N4  UNL     1       1.075  -1.354  -9.196  1.00  0.00    -0.064 NA
ATOM     50  H32 UNL     1       4.051  -1.785  -7.933  1.00  0.00     0.158 HD
ATOM     51  H31 UNL     1       2.866  -2.987  -8.416  1.00  0.00     0.158 HD
ATOM     52  H2  UNL     1       2.281   1.019  -9.112  1.00  0.00     0.162 HD
ENDBRANCH  45  46
ENDBRANCH  44  45
ENDBRANCH  40  44
ENDBRANCH   1  40
TORSDOF 13
ENDMDL
