MODEL 1
REMARK VINA RESULT: -6.376698287      0.000      0.000
REMARK  14 active torsions:
REMARK  status: ('A' for Active; 'I' for Inactive)
REMARK    1  A    between atoms: S1_2  and  N1_5 
REMARK       I    between atoms: N1_5  and  C2_7 
REMARK    2  A    between atoms: N3_9  and  C3_11 
REMARK    3  A    between atoms: C3_11  and  C4_12 
REMARK    4  A    between atoms: C4_12  and  C5_13 
REMARK    5  A    between atoms: C5_13  and  N4_14 
REMARK    6  A    between atoms: N4_14  and  C6_17 
REMARK    7  A    between atoms: C6_17  and  C7_18 
REMARK    8  A    between atoms: C7_18  and  C8_19 
REMARK    9  A    between atoms: C8_19  and  N5_20 
REMARK       I    between atoms: N5_20  and  C9_22 
REMARK       I    between atoms: C9_22  and  N6_24 
REMARK   10  A    between atoms: N6_24  and  C10_26 
REMARK   11  A    between atoms: C12_35  and  C13_36 
REMARK   12  A    between atoms: C13_36  and  N10_37 
REMARK   13  A    between atoms: C13_36  and  N11_41 
REMARK   14  A    between atoms: N12_45  and  C14_46 
ROOT
HETATM    1  C10 UNL     1       7.462   3.886  -1.563  1.00  0.00     0.710 A 
HETATM    2  N7  UNL     1       6.500   3.621  -2.475  1.00  0.00    -0.022 N 
ATOM      3  H7  UNL     1       6.039   4.402  -2.941  1.00  0.00     0.203 HD
HETATM    4  C11 UNL     1       6.123   2.355  -2.796  1.00  0.00     0.691 A 
HETATM    5  N8  UNL     1       5.207   2.126  -3.664  1.00  0.00    -0.234 N 
ATOM      6  H81 UNL     1       4.923   1.176  -3.905  1.00  0.00     0.174 HD
ATOM      7  H82 UNL     1       4.727   2.885  -4.147  1.00  0.00     0.174 HD
HETATM    8  N9  UNL     1       6.756   1.355  -2.159  1.00  0.00    -0.175 N 
ATOM      9  H9  UNL     1       6.498   0.392  -2.374  1.00  0.00     0.185 HD
HETATM   10  C12 UNL     1       7.728   1.585  -1.236  1.00  0.00     0.180 A 
HETATM   11  N12 UNL     1       8.076   2.844  -0.943  1.00  0.00    -0.108 N 
ENDROOT
BRANCH   1  12
HETATM   12  N6  UNL     1       7.859   5.054  -1.226  1.00  0.00    -0.140 N 
HETATM   13  C9  UNL     1       8.401   5.914  -2.248  1.00  0.00     0.334 C 
HETATM   14  N5  UNL     1       9.763   6.306  -2.212  1.00  0.00    -0.342 N 
HETATM   15  O3  UNL     1       7.690   6.338  -3.190  1.00  0.00    -0.247 OA
ATOM     16  H5  UNL     1      10.360   5.979  -1.454  1.00  0.00     0.164 HD
ATOM     17  H6  UNL     1       7.795   5.369  -0.258  1.00  0.00     0.189 HD
BRANCH  14  18
HETATM   18  C8  UNL     1      10.309   7.155  -3.228  1.00  0.00     0.126 C 
BRANCH  18  19
HETATM   19  C7  UNL     1      11.226   6.391  -4.168  1.00  0.00     0.047 C 
BRANCH  19  20
HETATM   20  C6  UNL     1      10.779   6.579  -5.606  1.00  0.00     0.234 C 
BRANCH  20  21
HETATM   21  N4  UNL     1       9.435   6.082  -5.761  1.00  0.00    -0.075 N 
ATOM     22  H42 UNL     1       8.847   6.782  -6.214  1.00  0.00     0.277 HD
ATOM     23  H41 UNL     1       8.970   6.024  -4.855  1.00  0.00     0.277 HD
BRANCH  21  24
HETATM   24  C5  UNL     1       9.345   4.828  -6.453  1.00  0.00     0.237 C 
BRANCH  24  25
HETATM   25  C4  UNL     1       8.354   3.942  -5.662  1.00  0.00     0.072 C 
BRANCH  25  26
HETATM   26  C3  UNL     1       8.860   2.546  -5.790  1.00  0.00     0.065 C 
BRANCH  26  27
HETATM   27  N3  UNL     1       9.707   2.052  -4.785  1.00  0.00    -0.344 N 
HETATM   28  C2  UNL     1       9.747   0.994  -4.126  1.00  0.00     0.201 C 
HETATM   29  N1  UNL     1      10.764   0.801  -3.155  1.00  0.00    -0.258 N 
HETATM   30  N2  UNL     1       8.807  -0.043  -4.310  1.00  0.00    -0.063 NA
ATOM     31  H1  UNL     1      10.962   1.514  -2.453  1.00  0.00     0.181 HD
ATOM     32  H3  UNL     1      10.455   2.702  -4.540  1.00  0.00     0.167 HD
BRANCH  29  33
HETATM   33  S1  UNL     1      11.658  -0.672  -3.196  1.00  0.00     0.229 S 
HETATM   34  C1  UNL     1      12.135  -1.068  -4.848  1.00  0.00     0.186 C 
HETATM   35  O1  UNL     1      10.870  -1.792  -2.553  1.00  0.00    -0.206 OA
HETATM   36  O2  UNL     1      12.911  -0.437  -2.365  1.00  0.00    -0.206 OA
ENDBRANCH  29  33
ENDBRANCH  26  27
ENDBRANCH  25  26
ENDBRANCH  24  25
ENDBRANCH  21  24
ENDBRANCH  20  21
ENDBRANCH  19  20
ENDBRANCH  18  19
ENDBRANCH  14  18
ENDBRANCH   1  12
BRANCH  11  37
HETATM   37  C14 UNL     1       9.085   3.094   0.015  1.00  0.00     0.222 A 
HETATM   38  N13 UNL     1       8.994   3.180   1.353  1.00  0.00    -0.219 N 
HETATM   39  O4  UNL     1      10.155   3.423   1.856  1.00  0.00    -0.152 OA
ATOM     40  H13 UNL     1       8.134   3.069   1.891  1.00  0.00     0.198 HD
HETATM   41  N14 UNL     1      11.050   3.509   0.918  1.00  0.00    -0.203 N 
HETATM   42  C15 UNL     1      10.434   3.310  -0.261  1.00  0.00     0.314 A 
ATOM     43  H14 UNL     1      12.044   3.694   1.053  1.00  0.00     0.200 HD
HETATM   44  O5  UNL     1      10.993   3.323  -1.398  1.00  0.00    -0.262 OA
ENDBRANCH  11  37
BRANCH  10  45
HETATM   45  C13 UNL     1       8.418   0.463  -0.545  1.00  0.00     0.446 C 
BRANCH  45  46
HETATM   46  N10 UNL     1       8.227  -0.706  -1.419  1.00  0.00    -0.043 N 
ATOM     47 3H10 UNL     1       8.262  -1.598  -0.926  1.00  0.00     0.277 HD
ATOM     48 2H10 UNL     1       7.275  -0.804  -1.773  1.00  0.00     0.277 HD
ATOM     49 1H10 UNL     1       8.931  -0.613  -2.151  1.00  0.00     0.277 HD
ENDBRANCH  45  46
BRANCH  45  50
HETATM   50  N11 UNL     1       7.825   0.210   0.761  1.00  0.00    -0.043 N 
ATOM     51 3H11 UNL     1       7.667   1.076   1.276  1.00  0.00     0.277 HD
ATOM     52 2H11 UNL     1       6.857  -0.102   0.681  1.00  0.00     0.277 HD
ATOM     53 1H11 UNL     1       8.389  -0.450   1.297  1.00  0.00     0.277 HD
ENDBRANCH  45  50
ENDBRANCH  10  45
TORSDOF 14
ENDMDL
MODEL 2
REMARK VINA RESULT: -6.286743647      2.505      6.044
REMARK  14 active torsions:
REMARK  status: ('A' for Active; 'I' for Inactive)
REMARK    1  A    between atoms: S1_2  and  N1_5 
REMARK       I    between atoms: N1_5  and  C2_7 
REMARK    2  A    between atoms: N3_9  and  C3_11 
REMARK    3  A    between atoms: C3_11  and  C4_12 
REMARK    4  A    between atoms: C4_12  and  C5_13 
REMARK    5  A    between atoms: C5_13  and  N4_14 
REMARK    6  A    between atoms: N4_14  and  C6_17 
REMARK    7  A    between atoms: C6_17  and  C7_18 
REMARK    8  A    between atoms: C7_18  and  C8_19 
REMARK    9  A    between atoms: C8_19  and  N5_20 
REMARK       I    between atoms: N5_20  and  C9_22 
REMARK       I    between atoms: C9_22  and  N6_24 
REMARK   10  A    between atoms: N6_24  and  C10_26 
REMARK   11  A    between atoms: C12_35  and  C13_36 
REMARK   12  A    between atoms: C13_36  and  N10_37 
REMARK   13  A    between atoms: C13_36  and  N11_41 
REMARK   14  A    between atoms: N12_45  and  C14_46 
ROOT
HETATM    1  C10 UNL     1       7.948   2.955  -0.658  1.00  0.00     0.710 A 
HETATM    2  N7  UNL     1       7.918   4.290  -0.452  1.00  0.00    -0.022 N 
ATOM      3  H7  UNL     1       8.150   4.648   0.474  1.00  0.00     0.203 HD
HETATM    4  C11 UNL     1       7.592   5.176  -1.430  1.00  0.00     0.691 A 
HETATM    5  N8  UNL     1       7.570   6.440  -1.212  1.00  0.00    -0.234 N 
ATOM      6  H81 UNL     1       7.326   7.106  -1.946  1.00  0.00     0.174 HD
ATOM      7  H82 UNL     1       7.797   6.829  -0.297  1.00  0.00     0.174 HD
HETATM    8  N9  UNL     1       7.294   4.664  -2.636  1.00  0.00    -0.175 N 
ATOM      9  H9  UNL     1       7.044   5.300  -3.394  1.00  0.00     0.185 HD
HETATM   10  C12 UNL     1       7.313   3.326  -2.879  1.00  0.00     0.180 A 
HETATM   11  N12 UNL     1       7.639   2.480  -1.894  1.00  0.00    -0.108 N 
ENDROOT
BRANCH   1  12
HETATM   12  N6  UNL     1       8.251   2.078   0.222  1.00  0.00    -0.140 N 
HETATM   13  C9  UNL     1       9.452   2.269   0.993  1.00  0.00     0.334 C 
HETATM   14  N5  UNL     1      10.539   1.368   0.869  1.00  0.00    -0.342 N 
HETATM   15  O3  UNL     1       9.571   3.230   1.791  1.00  0.00    -0.247 OA
ATOM     16  H5  UNL     1      10.466   0.576   0.231  1.00  0.00     0.164 HD
ATOM     17  H6  UNL     1       7.656   1.263   0.373  1.00  0.00     0.189 HD
BRANCH  14  18
HETATM   18  C8  UNL     1      11.740   1.556   1.628  1.00  0.00     0.126 C 
BRANCH  18  19
HETATM   19  C7  UNL     1      12.846   2.172   0.790  1.00  0.00     0.047 C 
BRANCH  19  20
HETATM   20  C6  UNL     1      12.960   3.657   1.081  1.00  0.00     0.234 C 
BRANCH  20  21
HETATM   21  N4  UNL     1      11.986   4.377   0.301  1.00  0.00    -0.075 N 
ATOM     22  H42 UNL     1      11.417   4.972   0.903  1.00  0.00     0.277 HD
ATOM     23  H41 UNL     1      11.267   3.742  -0.046  1.00  0.00     0.277 HD
BRANCH  21  24
HETATM   24  C5  UNL     1      12.542   5.143  -0.778  1.00  0.00     0.237 C 
BRANCH  24  25
HETATM   25  C4  UNL     1      12.799   6.570  -0.238  1.00  0.00     0.072 C 
BRANCH  25  26
HETATM   26  C3  UNL     1      12.451   7.498  -1.352  1.00  0.00     0.065 C 
BRANCH  26  27
HETATM   27  N3  UNL     1      11.293   7.231  -2.100  1.00  0.00    -0.344 N 
HETATM   28  C2  UNL     1      10.832   7.671  -3.172  1.00  0.00     0.201 C 
HETATM   29  N1  UNL     1       9.598   7.176  -3.670  1.00  0.00    -0.258 N 
HETATM   30  N2  UNL     1      11.500   8.658  -3.930  1.00  0.00    -0.063 NA
ATOM     31  H1  UNL     1       8.774   7.125  -3.072  1.00  0.00     0.181 HD
ATOM     32  H3  UNL     1      10.698   6.522  -1.672  1.00  0.00     0.167 HD
BRANCH  29  33
HETATM   33  S1  UNL     1       9.533   6.663  -5.314  1.00  0.00     0.229 S 
HETATM   34  C1  UNL     1      10.991   5.769  -5.748  1.00  0.00     0.186 C 
HETATM   35  O1  UNL     1       9.299   7.841  -6.232  1.00  0.00    -0.206 OA
HETATM   36  O2  UNL     1       8.334   5.731  -5.425  1.00  0.00    -0.206 OA
ENDBRANCH  29  33
ENDBRANCH  26  27
ENDBRANCH  25  26
ENDBRANCH  24  25
ENDBRANCH  21  24
ENDBRANCH  20  21
ENDBRANCH  19  20
ENDBRANCH  18  19
ENDBRANCH  14  18
ENDBRANCH   1  12
BRANCH  11  37
HETATM   37  C14 UNL     1       7.661   1.088  -2.136  1.00  0.00     0.222 A 
HETATM   38  N13 UNL     1       6.640   0.227  -2.283  1.00  0.00    -0.219 N 
HETATM   39  O4  UNL     1       7.095  -0.960  -2.490  1.00  0.00    -0.152 OA
ATOM     40  H13 UNL     1       5.652   0.476  -2.239  1.00  0.00     0.198 HD
HETATM   41  N14 UNL     1       8.394  -0.958  -2.491  1.00  0.00    -0.203 N 
HETATM   42  C15 UNL     1       8.805   0.304  -2.273  1.00  0.00     0.314 A 
ATOM     43  H14 UNL     1       8.995  -1.770  -2.633  1.00  0.00     0.200 HD
HETATM   44  O5  UNL     1      10.011   0.687  -2.208  1.00  0.00    -0.262 OA
ENDBRANCH  11  37
BRANCH  10  45
HETATM   45  C13 UNL     1       6.982   2.781  -4.222  1.00  0.00     0.446 C 
BRANCH  45  46
HETATM   46  N10 UNL     1       8.247   2.810  -4.976  1.00  0.00    -0.043 N 
ATOM     47 3H10 UNL     1       9.067   2.592  -4.410  1.00  0.00     0.277 HD
ATOM     48 2H10 UNL     1       8.350   2.040  -5.636  1.00  0.00     0.277 HD
ATOM     49 1H10 UNL     1       8.279   3.732  -5.411  1.00  0.00     0.277 HD
ENDBRANCH  45  46
BRANCH  45  50
HETATM   50  N11 UNL     1       5.986   3.607  -4.891  1.00  0.00    -0.043 N 
ATOM     51 3H11 UNL     1       5.161   3.066  -5.149  1.00  0.00     0.277 HD
ATOM     52 2H11 UNL     1       5.547   4.263  -4.245  1.00  0.00     0.277 HD
ATOM     53 1H11 UNL     1       6.389   4.085  -5.697  1.00  0.00     0.277 HD
ENDBRANCH  45  50
ENDBRANCH  10  45
TORSDOF 14
ENDMDL
MODEL 3
REMARK VINA RESULT: -6.159933750      2.139      3.333
REMARK  14 active torsions:
REMARK  status: ('A' for Active; 'I' for Inactive)
REMARK    1  A    between atoms: S1_2  and  N1_5 
REMARK       I    between atoms: N1_5  and  C2_7 
REMARK    2  A    between atoms: N3_9  and  C3_11 
REMARK    3  A    between atoms: C3_11  and  C4_12 
REMARK    4  A    between atoms: C4_12  and  C5_13 
REMARK    5  A    between atoms: C5_13  and  N4_14 
REMARK    6  A    between atoms: N4_14  and  C6_17 
REMARK    7  A    between atoms: C6_17  and  C7_18 
REMARK    8  A    between atoms: C7_18  and  C8_19 
REMARK    9  A    between atoms: C8_19  and  N5_20 
REMARK       I    between atoms: N5_20  and  C9_22 
REMARK       I    between atoms: C9_22  and  N6_24 
REMARK   10  A    between atoms: N6_24  and  C10_26 
REMARK   11  A    between atoms: C12_35  and  C13_36 
REMARK   12  A    between atoms: C13_36  and  N10_37 
REMARK   13  A    between atoms: C13_36  and  N11_41 
REMARK   14  A    between atoms: N12_45  and  C14_46 
ROOT
HETATM    1  C10 UNL     1       7.410   3.720  -1.483  1.00  0.00     0.710 A 
HETATM    2  N7  UNL     1       6.448   3.389  -2.373  1.00  0.00    -0.022 N 
ATOM      3  H7  UNL     1       5.862   4.129  -2.758  1.00  0.00     0.203 HD
HETATM    4  C11 UNL     1       6.230   2.109  -2.776  1.00  0.00     0.691 A 
HETATM    5  N8  UNL     1       5.311   1.818  -3.622  1.00  0.00    -0.234 N 
ATOM      6  H81 UNL     1       5.147   0.857  -3.924  1.00  0.00     0.174 HD
ATOM      7  H82 UNL     1       4.709   2.535  -4.025  1.00  0.00     0.174 HD
HETATM    8  N9  UNL     1       7.023   1.164  -2.244  1.00  0.00    -0.175 N 
ATOM      9  H9  UNL     1       6.888   0.192  -2.523  1.00  0.00     0.185 HD
HETATM   10  C12 UNL     1       8.001   1.460  -1.346  1.00  0.00     0.180 A 
HETATM   11  N12 UNL     1       8.190   2.731  -0.971  1.00  0.00    -0.108 N 
ENDROOT
BRANCH   1  12
HETATM   12  N6  UNL     1       7.662   4.904  -1.072  1.00  0.00    -0.140 N 
HETATM   13  C9  UNL     1       8.226   5.846  -2.006  1.00  0.00     0.334 C 
HETATM   14  N5  UNL     1       9.535   6.354  -1.813  1.00  0.00    -0.342 N 
HETATM   15  O3  UNL     1       7.581   6.241  -3.006  1.00  0.00    -0.247 OA
ATOM     16  H5  UNL     1      10.078   6.052  -1.005  1.00  0.00     0.164 HD
ATOM     17  H6  UNL     1       7.468   5.175  -0.109  1.00  0.00     0.189 HD
BRANCH  14  18
HETATM   18  C8  UNL     1      10.105   7.285  -2.741  1.00  0.00     0.126 C 
BRANCH  18  19
HETATM   19  C7  UNL     1      11.522   7.670  -2.354  1.00  0.00     0.047 C 
BRANCH  19  20
HETATM   20  C6  UNL     1      12.138   8.552  -3.425  1.00  0.00     0.234 C 
BRANCH  20  21
HETATM   21  N4  UNL     1      11.119   8.962  -4.356  1.00  0.00    -0.075 N 
ATOM     22  H42 UNL     1      10.735   9.868  -4.088  1.00  0.00     0.277 HD
ATOM     23  H41 UNL     1      10.286   8.382  -4.252  1.00  0.00     0.277 HD
BRANCH  21  24
HETATM   24  C5  UNL     1      11.545   8.985  -5.727  1.00  0.00     0.237 C 
BRANCH  24  25
HETATM   25  C4  UNL     1      12.557   7.828  -5.908  1.00  0.00     0.072 C 
BRANCH  25  26
HETATM   26  C3  UNL     1      11.850   6.786  -6.706  1.00  0.00     0.065 C 
BRANCH  26  27
HETATM   27  N3  UNL     1      11.129   5.798  -6.015  1.00  0.00    -0.344 N 
HETATM   28  C2  UNL     1       9.918   5.615  -5.778  1.00  0.00     0.201 C 
HETATM   29  N1  UNL     1       9.506   4.483  -5.028  1.00  0.00    -0.258 N 
HETATM   30  N2  UNL     1       8.918   6.501  -6.236  1.00  0.00    -0.063 NA
ATOM     31  H1  UNL     1       9.950   4.253  -4.139  1.00  0.00     0.181 HD
ATOM     32  H3  UNL     1      11.726   5.071  -5.621  1.00  0.00     0.167 HD
BRANCH  29  33
HETATM   33  S1  UNL     1       8.235   3.506  -5.662  1.00  0.00     0.229 S 
HETATM   34  C1  UNL     1       8.494   3.178  -7.376  1.00  0.00     0.186 C 
HETATM   35  O1  UNL     1       6.890   4.150  -5.408  1.00  0.00    -0.206 OA
HETATM   36  O2  UNL     1       8.281   2.191  -4.897  1.00  0.00    -0.206 OA
ENDBRANCH  29  33
ENDBRANCH  26  27
ENDBRANCH  25  26
ENDBRANCH  24  25
ENDBRANCH  21  24
ENDBRANCH  20  21
ENDBRANCH  19  20
ENDBRANCH  18  19
ENDBRANCH  14  18
ENDBRANCH   1  12
BRANCH  11  37
HETATM   37  C14 UNL     1       9.202   3.049  -0.038  1.00  0.00     0.222 A 
HETATM   38  N13 UNL     1       9.150   3.085   1.305  1.00  0.00    -0.219 N 
HETATM   39  O4  UNL     1      10.299   3.425   1.778  1.00  0.00    -0.152 OA
ATOM     40  H13 UNL     1       8.325   2.873   1.866  1.00  0.00     0.198 HD
HETATM   41  N14 UNL     1      11.148   3.628   0.816  1.00  0.00    -0.203 N 
HETATM   42  C15 UNL     1      10.514   3.406  -0.349  1.00  0.00     0.314 A 
ATOM     43  H14 UNL     1      12.123   3.906   0.925  1.00  0.00     0.200 HD
HETATM   44  O5  UNL     1      11.028   3.508  -1.502  1.00  0.00    -0.262 OA
ENDBRANCH  11  37
BRANCH  10  45
HETATM   45  C13 UNL     1       8.870   0.398  -0.773  1.00  0.00     0.446 C 
BRANCH  45  46
HETATM   46  N10 UNL     1       9.041  -0.588  -1.852  1.00  0.00    -0.043 N 
ATOM     47 3H10 UNL     1       9.866  -0.428  -2.430  1.00  0.00     0.277 HD
ATOM     48 2H10 UNL     1       9.306  -1.516  -1.522  1.00  0.00     0.277 HD
ATOM     49 1H10 UNL     1       8.164  -0.572  -2.373  1.00  0.00     0.277 HD
ENDBRANCH  45  46
BRANCH  45  50
HETATM   50  N11 UNL     1       8.237  -0.230   0.379  1.00  0.00    -0.043 N 
ATOM     51 3H11 UNL     1       8.627  -1.154   0.564  1.00  0.00     0.277 HD
ATOM     52 2H11 UNL     1       8.504   0.228   1.251  1.00  0.00     0.277 HD
ATOM     53 1H11 UNL     1       7.224  -0.265   0.266  1.00  0.00     0.277 HD
ENDBRANCH  45  50
ENDBRANCH  10  45
TORSDOF 14
ENDMDL
MODEL 4
REMARK VINA RESULT: -6.153966700      2.684      5.847
REMARK  14 active torsions:
REMARK  status: ('A' for Active; 'I' for Inactive)
REMARK    1  A    between atoms: S1_2  and  N1_5 
REMARK       I    between atoms: N1_5  and  C2_7 
REMARK    2  A    between atoms: N3_9  and  C3_11 
REMARK    3  A    between atoms: C3_11  and  C4_12 
REMARK    4  A    between atoms: C4_12  and  C5_13 
REMARK    5  A    between atoms: C5_13  and  N4_14 
REMARK    6  A    between atoms: N4_14  and  C6_17 
REMARK    7  A    between atoms: C6_17  and  C7_18 
REMARK    8  A    between atoms: C7_18  and  C8_19 
REMARK    9  A    between atoms: C8_19  and  N5_20 
REMARK       I    between atoms: N5_20  and  C9_22 
REMARK       I    between atoms: C9_22  and  N6_24 
REMARK   10  A    between atoms: N6_24  and  C10_26 
REMARK   11  A    between atoms: C12_35  and  C13_36 
REMARK   12  A    between atoms: C13_36  and  N10_37 
REMARK   13  A    between atoms: C13_36  and  N11_41 
REMARK   14  A    between atoms: N12_45  and  C14_46 
ROOT
HETATM    1  C10 UNL     1       8.054   2.878  -0.722  1.00  0.00     0.710 A 
HETATM    2  N7  UNL     1       8.011   4.205  -0.471  1.00  0.00    -0.022 N 
ATOM      3  H7  UNL     1       8.238   4.533   0.467  1.00  0.00     0.203 HD
HETATM    4  C11 UNL     1       7.678   5.120  -1.419  1.00  0.00     0.691 A 
HETATM    5  N8  UNL     1       7.643   6.376  -1.159  1.00  0.00    -0.234 N 
ATOM      6  H81 UNL     1       7.393   7.064  -1.870  1.00  0.00     0.174 HD
ATOM      7  H82 UNL     1       7.865   6.735  -0.231  1.00  0.00     0.174 HD
HETATM    8  N9  UNL     1       7.385   4.646  -2.642  1.00  0.00    -0.175 N 
ATOM      9  H9  UNL     1       7.130   5.305  -3.378  1.00  0.00     0.185 HD
HETATM   10  C12 UNL     1       7.417   3.317  -2.930  1.00  0.00     0.180 A 
HETATM   11  N12 UNL     1       7.750   2.442  -1.973  1.00  0.00    -0.108 N 
ENDROOT
BRANCH   1  12
HETATM   12  N6  UNL     1       8.364   1.974   0.128  1.00  0.00    -0.140 N 
HETATM   13  C9  UNL     1       9.482   2.214   1.004  1.00  0.00     0.334 C 
HETATM   14  N5  UNL     1      10.650   1.415   0.917  1.00  0.00    -0.342 N 
HETATM   15  O3  UNL     1       9.456   3.129   1.862  1.00  0.00    -0.247 OA
ATOM     16  H5  UNL     1      10.694   0.662   0.231  1.00  0.00     0.164 HD
ATOM     17  H6  UNL     1       7.833   1.106   0.184  1.00  0.00     0.189 HD
BRANCH  14  18
HETATM   18  C8  UNL     1      11.768   1.653   1.780  1.00  0.00     0.126 C 
BRANCH  18  19
HETATM   19  C7  UNL     1      12.848   2.468   1.092  1.00  0.00     0.047 C 
BRANCH  19  20
HETATM   20  C6  UNL     1      12.954   2.074  -0.370  1.00  0.00     0.234 C 
BRANCH  20  21
HETATM   21  N4  UNL     1      12.706   3.226  -1.198  1.00  0.00    -0.075 N 
ATOM     22  H42 UNL     1      11.816   3.129  -1.687  1.00  0.00     0.277 HD
ATOM     23  H41 UNL     1      13.343   3.234  -1.996  1.00  0.00     0.277 HD
BRANCH  21  24
HETATM   24  C5  UNL     1      12.761   4.478  -0.500  1.00  0.00     0.237 C 
BRANCH  24  25
HETATM   25  C4  UNL     1      13.343   5.523  -1.483  1.00  0.00     0.072 C 
BRANCH  25  26
HETATM   26  C3  UNL     1      13.459   4.829  -2.797  1.00  0.00     0.065 C 
BRANCH  26  27
HETATM   27  N3  UNL     1      12.678   5.298  -3.866  1.00  0.00    -0.344 N 
HETATM   28  C2  UNL     1      11.484   5.152  -4.196  1.00  0.00     0.201 C 
HETATM   29  N1  UNL     1      10.992   5.779  -5.371  1.00  0.00    -0.258 N 
HETATM   30  N2  UNL     1      10.581   4.379  -3.435  1.00  0.00    -0.063 NA
ATOM     31  H1  UNL     1      11.487   5.691  -6.259  1.00  0.00     0.181 HD
ATOM     32  H3  UNL     1      13.202   5.886  -4.514  1.00  0.00     0.167 HD
BRANCH  29  33
HETATM   33  S1  UNL     1       9.536   6.693  -5.256  1.00  0.00     0.229 S 
HETATM   34  C1  UNL     1       9.523   7.665  -3.783  1.00  0.00     0.186 C 
HETATM   35  O1  UNL     1       8.329   5.787  -5.345  1.00  0.00    -0.206 OA
HETATM   36  O2  UNL     1       9.518   7.625  -6.459  1.00  0.00    -0.206 OA
ENDBRANCH  29  33
ENDBRANCH  26  27
ENDBRANCH  25  26
ENDBRANCH  24  25
ENDBRANCH  21  24
ENDBRANCH  20  21
ENDBRANCH  19  20
ENDBRANCH  18  19
ENDBRANCH  14  18
ENDBRANCH   1  12
BRANCH  11  37
HETATM   37  C14 UNL     1       7.786   1.059  -2.262  1.00  0.00     0.222 A 
HETATM   38  N13 UNL     1       8.842   0.258  -2.488  1.00  0.00    -0.219 N 
HETATM   39  O4  UNL     1       8.437  -0.944  -2.715  1.00  0.00    -0.152 OA
ATOM     40  H13 UNL     1       9.817   0.556  -2.480  1.00  0.00     0.198 HD
HETATM   41  N14 UNL     1       7.141  -1.009  -2.656  1.00  0.00    -0.203 N 
HETATM   42  C15 UNL     1       6.678   0.221  -2.374  1.00  0.00     0.314 A 
ATOM     43  H14 UNL     1       6.575  -1.846  -2.798  1.00  0.00     0.200 HD
HETATM   44  O5  UNL     1       5.459   0.539  -2.240  1.00  0.00    -0.262 OA
ENDBRANCH  11  37
BRANCH  10  45
HETATM   45  C13 UNL     1       7.093   2.815  -4.291  1.00  0.00     0.446 C 
BRANCH  45  46
HETATM   46  N10 UNL     1       8.342   2.944  -5.061  1.00  0.00    -0.043 N 
ATOM     47 3H10 UNL     1       8.219   3.383  -5.973  1.00  0.00     0.277 HD
ATOM     48 2H10 UNL     1       8.988   3.637  -4.682  1.00  0.00     0.277 HD
ATOM     49 1H10 UNL     1       8.729   2.001  -5.106  1.00  0.00     0.277 HD
ENDBRANCH  45  46
BRANCH  45  50
HETATM   50  N11 UNL     1       6.044   3.615  -4.908  1.00  0.00    -0.043 N 
ATOM     51 3H11 UNL     1       5.596   4.233  -4.231  1.00  0.00     0.277 HD
ATOM     52 2H11 UNL     1       6.430   4.324  -5.533  1.00  0.00     0.277 HD
ATOM     53 1H11 UNL     1       5.364   3.023  -5.385  1.00  0.00     0.277 HD
ENDBRANCH  45  50
ENDBRANCH  10  45
TORSDOF 14
ENDMDL
MODEL 5
REMARK VINA RESULT: -6.101000155      2.466      4.034
REMARK  14 active torsions:
REMARK  status: ('A' for Active; 'I' for Inactive)
REMARK    1  A    between atoms: S1_2  and  N1_5 
REMARK       I    between atoms: N1_5  and  C2_7 
REMARK    2  A    between atoms: N3_9  and  C3_11 
REMARK    3  A    between atoms: C3_11  and  C4_12 
REMARK    4  A    between atoms: C4_12  and  C5_13 
REMARK    5  A    between atoms: C5_13  and  N4_14 
REMARK    6  A    between atoms: N4_14  and  C6_17 
REMARK    7  A    between atoms: C6_17  and  C7_18 
REMARK    8  A    between atoms: C7_18  and  C8_19 
REMARK    9  A    between atoms: C8_19  and  N5_20 
REMARK       I    between atoms: N5_20  and  C9_22 
REMARK       I    between atoms: C9_22  and  N6_24 
REMARK   10  A    between atoms: N6_24  and  C10_26 
REMARK   11  A    between atoms: C12_35  and  C13_36 
REMARK   12  A    between atoms: C13_36  and  N10_37 
REMARK   13  A    between atoms: C13_36  and  N11_41 
REMARK   14  A    between atoms: N12_45  and  C14_46 
ROOT
HETATM    1  C10 UNL     1       7.404   3.709  -1.539  1.00  0.00     0.710 A 
HETATM    2  N7  UNL     1       6.465   3.380  -2.455  1.00  0.00    -0.022 N 
ATOM      3  H7  UNL     1       5.921   4.127  -2.887  1.00  0.00     0.203 HD
HETATM    4  C11 UNL     1       6.217   2.096  -2.823  1.00  0.00     0.691 A 
HETATM    5  N8  UNL     1       5.321   1.807  -3.694  1.00  0.00    -0.234 N 
ATOM      6  H81 UNL     1       5.134   0.843  -3.970  1.00  0.00     0.174 HD
ATOM      7  H82 UNL     1       4.761   2.530  -4.144  1.00  0.00     0.174 HD
HETATM    8  N9  UNL     1       6.956   1.143  -2.229  1.00  0.00    -0.175 N 
ATOM      9  H9  UNL     1       6.796   0.167  -2.481  1.00  0.00     0.185 HD
HETATM   10  C12 UNL     1       7.908   1.436  -1.303  1.00  0.00     0.180 A 
HETATM   11  N12 UNL     1       8.128   2.712  -0.963  1.00  0.00    -0.108 N 
ENDROOT
BRANCH   1  12
HETATM   12  N6  UNL     1       7.682   4.897  -1.159  1.00  0.00    -0.140 N 
HETATM   13  C9  UNL     1       8.046   5.868  -2.159  1.00  0.00     0.334 C 
HETATM   14  N5  UNL     1       9.351   6.421  -2.185  1.00  0.00    -0.342 N 
HETATM   15  O3  UNL     1       7.227   6.250  -3.029  1.00  0.00    -0.247 OA
ATOM     16  H5  UNL     1      10.034   6.131  -1.486  1.00  0.00     0.164 HD
ATOM     17  H6  UNL     1       7.646   5.152  -0.172  1.00  0.00     0.189 HD
BRANCH  14  18
HETATM   18  C8  UNL     1       9.722   7.381  -3.181  1.00  0.00     0.126 C 
BRANCH  18  19
HETATM   19  C7  UNL     1      11.090   7.083  -3.770  1.00  0.00     0.047 C 
BRANCH  19  20
HETATM   20  C6  UNL     1      11.808   8.375  -4.113  1.00  0.00     0.234 C 
BRANCH  20  21
HETATM   21  N4  UNL     1      12.282   8.998  -2.904  1.00  0.00    -0.075 N 
ATOM     22  H42 UNL     1      11.545   9.017  -2.200  1.00  0.00     0.277 HD
ATOM     23  H41 UNL     1      12.413  10.000  -3.047  1.00  0.00     0.277 HD
BRANCH  21  24
HETATM   24  C5  UNL     1      13.474   8.409  -2.365  1.00  0.00     0.237 C 
BRANCH  24  25
HETATM   25  C4  UNL     1      13.427   8.608  -0.831  1.00  0.00     0.072 C 
BRANCH  25  26
HETATM   26  C3  UNL     1      12.592   7.495  -0.298  1.00  0.00     0.065 C 
BRANCH  26  27
HETATM   27  N3  UNL     1      12.923   6.181  -0.668  1.00  0.00    -0.344 N 
HETATM   28  C2  UNL     1      13.893   5.433  -0.434  1.00  0.00     0.201 C 
HETATM   29  N1  UNL     1      13.923   4.121  -0.975  1.00  0.00    -0.258 N 
HETATM   30  N2  UNL     1      14.983   5.840   0.366  1.00  0.00    -0.063 NA
ATOM     31  H1  UNL     1      13.744   3.958  -1.966  1.00  0.00     0.181 HD
ATOM     32  H3  UNL     1      12.216   5.743  -1.258  1.00  0.00     0.167 HD
BRANCH  29  33
HETATM   33  S1  UNL     1      14.270   2.810   0.089  1.00  0.00     0.229 S 
HETATM   34  C1  UNL     1      15.985   2.397   0.032  1.00  0.00     0.186 C 
HETATM   35  O1  UNL     1      13.393   1.620  -0.226  1.00  0.00    -0.206 OA
HETATM   36  O2  UNL     1      13.927   3.293   1.491  1.00  0.00    -0.206 OA
ENDBRANCH  29  33
ENDBRANCH  26  27
ENDBRANCH  25  26
ENDBRANCH  24  25
ENDBRANCH  21  24
ENDBRANCH  20  21
ENDBRANCH  19  20
ENDBRANCH  18  19
ENDBRANCH  14  18
ENDBRANCH   1  12
BRANCH  11  37
HETATM   37  C14 UNL     1       9.114   3.028  -0.003  1.00  0.00     0.222 A 
HETATM   38  N13 UNL     1       9.064   2.941   1.338  1.00  0.00    -0.219 N 
HETATM   39  O4  UNL     1      10.184   3.330   1.843  1.00  0.00    -0.152 OA
ATOM     40  H13 UNL     1       8.260   2.616   1.875  1.00  0.00     0.198 HD
HETATM   41  N14 UNL     1      11.010   3.684   0.906  1.00  0.00    -0.203 N 
HETATM   42  C15 UNL     1      10.392   3.515  -0.276  1.00  0.00     0.314 A 
ATOM     43  H14 UNL     1      11.961   4.029   1.042  1.00  0.00     0.200 HD
HETATM   44  O5  UNL     1      10.892   3.759  -1.414  1.00  0.00    -0.262 OA
ENDBRANCH  11  37
BRANCH  10  45
HETATM   45  C13 UNL     1       8.716   0.366  -0.661  1.00  0.00     0.446 C 
BRANCH  45  46
HETATM   46  N10 UNL     1       8.889  -0.665  -1.698  1.00  0.00    -0.043 N 
ATOM     47 3H10 UNL     1       8.410  -1.541  -1.490  1.00  0.00     0.277 HD
ATOM     48 2H10 UNL     1       8.393  -0.462  -2.566  1.00  0.00     0.277 HD
ATOM     49 1H10 UNL     1       9.897  -0.764  -1.813  1.00  0.00     0.277 HD
ENDBRANCH  45  46
BRANCH  45  50
HETATM   50  N11 UNL     1       8.020  -0.197   0.488  1.00  0.00    -0.043 N 
ATOM     51 3H11 UNL     1       8.112   0.399   1.311  1.00  0.00     0.277 HD
ATOM     52 2H11 UNL     1       7.007  -0.149   0.374  1.00  0.00     0.277 HD
ATOM     53 1H11 UNL     1       8.333  -1.149   0.675  1.00  0.00     0.277 HD
ENDBRANCH  45  50
ENDBRANCH  10  45
TORSDOF 14
ENDMDL
