MODEL 1
REMARK VINA RESULT: -5.430650692      0.000      0.000
REMARK  2 active torsions:
REMARK  status: ('A' for Active; 'I' for Inactive)
REMARK    1  A    between atoms: C2_2  and  C4_4 
REMARK    2  A    between atoms: C4_4  and  N1_5 
ROOT
HETATM    1  C4  UNL     1     -35.880 -21.534  21.252  1.00  0.00     0.149 C 
HETATM    2  C5  UNL     1     -37.147 -21.558  20.420  1.00  0.00     0.067 C 
HETATM    3  C6  UNL     1     -38.168 -21.631  21.567  1.00  0.00     0.170 C 
HETATM    4  O1  UNL     1     -37.648 -20.956  22.632  1.00  0.00    -0.389 OA
HETATM    5  C7  UNL     1     -36.332 -20.591  22.358  1.00  0.00     0.206 C 
ENDROOT
BRANCH   1   6
HETATM    6  C2  UNL     1     -34.684 -21.067  20.509  1.00  0.00     0.015 C 
HETATM    7  C1  UNL     1     -33.894 -19.991  21.190  1.00  0.00     0.012 C 
HETATM    8  C3  UNL     1     -35.194 -20.505  19.174  1.00  0.00     0.012 C 
ENDBRANCH   1   6
BRANCH   1   9
HETATM    9  N1  UNL     1     -35.647 -22.866  21.754  1.00  0.00    -0.068 N 
ATOM     10  H13 UNL     1     -34.795 -22.923  22.310  1.00  0.00     0.275 HD
ATOM     11  H12 UNL     1     -36.314 -23.124  22.481  1.00  0.00     0.275 HD
ATOM     12  H11 UNL     1     -35.646 -23.528  20.979  1.00  0.00     0.275 HD
ENDBRANCH   1   9
TORSDOF 2
ENDMDL
MODEL 2
REMARK VINA RESULT: -5.342119857      0.804      1.369
REMARK  2 active torsions:
REMARK  status: ('A' for Active; 'I' for Inactive)
REMARK    1  A    between atoms: C2_2  and  C4_4 
REMARK    2  A    between atoms: C4_4  and  N1_5 
ROOT
HETATM    1  C4  UNL     1     -36.520 -21.514  21.349  1.00  0.00     0.149 C 
HETATM    2  C5  UNL     1     -37.708 -21.694  20.425  1.00  0.00     0.067 C 
HETATM    3  C6  UNL     1     -38.744 -22.132  21.472  1.00  0.00     0.170 C 
HETATM    4  O1  UNL     1     -38.438 -21.509  22.647  1.00  0.00    -0.389 OA
HETATM    5  C7  UNL     1     -37.222 -20.842  22.522  1.00  0.00     0.206 C 
ENDROOT
BRANCH   1   6
HETATM    6  C2  UNL     1     -35.419 -20.712  20.762  1.00  0.00     0.015 C 
HETATM    7  C1  UNL     1     -35.300 -20.792  19.271  1.00  0.00     0.012 C 
HETATM    8  C3  UNL     1     -34.117 -21.253  21.369  1.00  0.00     0.012 C 
ENDBRANCH   1   6
BRANCH   1   9
HETATM    9  N1  UNL     1     -36.027 -22.821  21.706  1.00  0.00    -0.068 N 
ATOM     10  H13 UNL     1     -35.178 -23.065  21.197  1.00  0.00     0.275 HD
ATOM     11  H12 UNL     1     -35.643 -22.843  22.651  1.00  0.00     0.275 HD
ATOM     12  H11 UNL     1     -36.765 -23.513  21.575  1.00  0.00     0.275 HD
ENDBRANCH   1   9
TORSDOF 2
ENDMDL
MODEL 3
REMARK VINA RESULT: -5.241363247      1.692      2.150
REMARK  2 active torsions:
REMARK  status: ('A' for Active; 'I' for Inactive)
REMARK    1  A    between atoms: C2_2  and  C4_4 
REMARK    2  A    between atoms: C4_4  and  N1_5 
ROOT
HETATM    1  C4  UNL     1     -37.940 -22.159  21.387  1.00  0.00     0.149 C 
HETATM    2  C5  UNL     1     -38.932 -21.729  20.324  1.00  0.00     0.067 C 
HETATM    3  C6  UNL     1     -40.213 -21.795  21.171  1.00  0.00     0.170 C 
HETATM    4  O1  UNL     1     -39.879 -21.481  22.457  1.00  0.00    -0.389 OA
HETATM    5  C7  UNL     1     -38.495 -21.378  22.570  1.00  0.00     0.206 C 
ENDROOT
BRANCH   1   6
HETATM    6  C2  UNL     1     -36.530 -21.838  21.056  1.00  0.00     0.015 C 
HETATM    7  C1  UNL     1     -35.810 -21.013  22.079  1.00  0.00     0.012 C 
HETATM    8  C3  UNL     1     -36.563 -21.039  19.745  1.00  0.00     0.012 C 
ENDBRANCH   1   6
BRANCH   1   9
HETATM    9  N1  UNL     1     -38.078 -23.581  21.580  1.00  0.00    -0.068 N 
ATOM     10  H13 UNL     1     -37.399 -24.112  21.035  1.00  0.00     0.275 HD
ATOM     11  H12 UNL     1     -37.780 -23.874  22.511  1.00  0.00     0.275 HD
ATOM     12  H11 UNL     1     -39.038 -23.862  21.378  1.00  0.00     0.275 HD
ENDBRANCH   1   9
TORSDOF 2
ENDMDL
MODEL 4
REMARK VINA RESULT: -4.915848033      0.980      1.349
REMARK  2 active torsions:
REMARK  status: ('A' for Active; 'I' for Inactive)
REMARK    1  A    between atoms: C2_2  and  C4_4 
REMARK    2  A    between atoms: C4_4  and  N1_5 
ROOT
HETATM    1  C4  UNL     1     -35.484 -21.449  21.567  1.00  0.00     0.149 C 
HETATM    2  C5  UNL     1     -35.980 -21.185  20.159  1.00  0.00     0.067 C 
HETATM    3  C6  UNL     1     -37.475 -21.452  20.393  1.00  0.00     0.170 C 
HETATM    4  O1  UNL     1     -37.769 -21.086  21.674  1.00  0.00    -0.389 OA
HETATM    5  C7  UNL     1     -36.595 -20.763  22.350  1.00  0.00     0.206 C 
ENDROOT
BRANCH   1   6
HETATM    6  C2  UNL     1     -34.129 -20.908  21.838  1.00  0.00     0.015 C 
HETATM    7  C1  UNL     1     -33.910 -20.415  23.236  1.00  0.00     0.012 C 
HETATM    8  C3  UNL     1     -33.938 -19.720  20.883  1.00  0.00     0.012 C 
ENDBRANCH   1   6
BRANCH   1   9
HETATM    9  N1  UNL     1     -35.486 -22.875  21.784  1.00  0.00    -0.068 N 
ATOM     10  H13 UNL     1     -35.721 -23.392  20.937  1.00  0.00     0.275 HD
ATOM     11  H12 UNL     1     -34.546 -23.244  21.926  1.00  0.00     0.275 HD
ATOM     12  H11 UNL     1     -36.110 -23.102  22.558  1.00  0.00     0.275 HD
ENDBRANCH   1   9
TORSDOF 2
ENDMDL
MODEL 5
REMARK VINA RESULT: -4.871137761      1.354      2.136
REMARK  2 active torsions:
REMARK  status: ('A' for Active; 'I' for Inactive)
REMARK    1  A    between atoms: C2_2  and  C4_4 
REMARK    2  A    between atoms: C4_4  and  N1_5 
ROOT
HETATM    1  C4  UNL     1     -34.739 -21.106  21.330  1.00  0.00     0.149 C 
HETATM    2  C5  UNL     1     -34.913 -20.493  19.955  1.00  0.00     0.067 C 
HETATM    3  C6  UNL     1     -36.347 -20.969  19.675  1.00  0.00     0.170 C 
HETATM    4  O1  UNL     1     -37.007 -21.028  20.868  1.00  0.00    -0.389 OA
HETATM    5  C7  UNL     1     -36.113 -20.799  21.911  1.00  0.00     0.206 C 
ENDROOT
BRANCH   1   6
HETATM    6  C2  UNL     1     -33.612 -20.532  22.106  1.00  0.00     0.015 C 
HETATM    7  C1  UNL     1     -33.885 -20.323  23.564  1.00  0.00     0.012 C 
HETATM    8  C3  UNL     1     -33.311 -19.161  21.482  1.00  0.00     0.012 C 
ENDBRANCH   1   6
BRANCH   1   9
HETATM    9  N1  UNL     1     -34.539 -22.525  21.167  1.00  0.00    -0.068 N 
ATOM     10  H13 UNL     1     -34.224 -22.763  20.227  1.00  0.00     0.275 HD
ATOM     11  H12 UNL     1     -33.726 -22.860  21.684  1.00  0.00     0.275 HD
ATOM     12  H11 UNL     1     -35.391 -23.022  21.425  1.00  0.00     0.275 HD
ENDBRANCH   1   9
TORSDOF 2
ENDMDL
