MODEL 1
REMARK VINA RESULT: -5.214805462      0.000      0.000
REMARK  5 active torsions:
REMARK  status: ('A' for Active; 'I' for Inactive)
REMARK    1  A    between atoms: N1_2  and  C3_4 
REMARK    2  A    between atoms: C5_10  and  N4_11 
REMARK    3  A    between atoms: C6_14  and  N5_15 
REMARK    4  A    between atoms: N5_15  and  N6_16 
REMARK    5  A    between atoms: N5_15  and  O1_19 
ROOT
HETATM    1  C3  UNL     1     -13.404 -28.194 -26.221  1.00  0.00     0.133 A 
HETATM    2  N2  UNL     1     -12.955 -26.912 -26.053  1.00  0.00    -0.337 N 
ATOM      3  H2  UNL     1     -13.636 -26.160 -25.946  1.00  0.00     0.168 HD
HETATM    4  C4  UNL     1     -11.652 -26.617 -26.023  1.00  0.00     0.183 A 
HETATM    5  N3  UNL     1     -10.763 -27.610 -26.161  1.00  0.00    -0.337 N 
ATOM      6  H3  UNL     1      -9.769 -27.383 -26.138  1.00  0.00     0.168 HD
HETATM    7  C5  UNL     1     -11.139 -28.922 -26.334  1.00  0.00     0.129 A 
HETATM    8  C6  UNL     1     -12.472 -29.221 -26.363  1.00  0.00     0.146 A 
ENDROOT
BRANCH   8   9
HETATM    9  N5  UNL     1     -12.952 -30.553 -26.504  1.00  0.00    -0.070 NA
BRANCH   9  10
HETATM   10  N6  UNL     1     -12.647 -31.008 -27.786  1.00  0.00    -0.336 NA
ATOM     11  H62 UNL     1     -11.887 -30.436 -28.152  1.00  0.00     0.173 HD
ATOM     12  H61 UNL     1     -13.480 -30.928 -28.370  1.00  0.00     0.173 HD
ENDBRANCH   9  10
BRANCH   9  13
HETATM   13  O1  UNL     1     -12.345 -31.393 -25.597  1.00  0.00    -0.289 OA
ATOM     14  H1  UNL     1     -12.970 -31.704 -24.952  1.00  0.00     0.239 HD
ENDBRANCH   9  13
ENDBRANCH   8   9
BRANCH   1  15
HETATM   15  N1  UNL     1     -14.800 -28.452 -26.281  1.00  0.00    -0.374 N 
HETATM   16  C1  UNL     1     -15.438 -28.587 -27.574  1.00  0.00     0.150 C 
HETATM   17  C2  UNL     1     -15.609 -28.586 -25.093  1.00  0.00     0.150 C 
ENDBRANCH   1  15
BRANCH   7  18
HETATM   18  N4  UNL     1     -10.249 -29.820 -26.469  1.00  0.00    -0.384 N 
ATOM     19  H42 UNL     1      -9.261 -29.586 -26.569  1.00  0.00     0.157 HD
ATOM     20  H41 UNL     1     -10.519 -30.803 -26.472  1.00  0.00     0.157 HD
ENDBRANCH   7  18
TORSDOF 5
ENDMDL
MODEL 2
REMARK VINA RESULT: -5.010891732      1.380      3.463
REMARK  5 active torsions:
REMARK  status: ('A' for Active; 'I' for Inactive)
REMARK    1  A    between atoms: N1_2  and  C3_4 
REMARK    2  A    between atoms: C5_10  and  N4_11 
REMARK    3  A    between atoms: C6_14  and  N5_15 
REMARK    4  A    between atoms: N5_15  and  N6_16 
REMARK    5  A    between atoms: N5_15  and  O1_19 
ROOT
HETATM    1  C3  UNL     1     -11.285 -28.466 -26.572  1.00  0.00     0.133 A 
HETATM    2  N2  UNL     1     -11.470 -27.136 -26.307  1.00  0.00    -0.337 N 
ATOM      3  H2  UNL     1     -10.678 -26.500 -26.388  1.00  0.00     0.168 HD
HETATM    4  C4  UNL     1     -12.661 -26.647 -25.946  1.00  0.00     0.183 A 
HETATM    5  N3  UNL     1     -13.699 -27.488 -25.843  1.00  0.00    -0.337 N 
ATOM      6  H3  UNL     1     -14.606 -27.113 -25.568  1.00  0.00     0.168 HD
HETATM    7  C5  UNL     1     -13.588 -28.836 -26.095  1.00  0.00     0.129 A 
HETATM    8  C6  UNL     1     -12.370 -29.334 -26.464  1.00  0.00     0.146 A 
ENDROOT
BRANCH   8   9
HETATM    9  N5  UNL     1     -12.171 -30.708 -26.775  1.00  0.00    -0.070 NA
BRANCH   9  10
HETATM   10  N6  UNL     1     -12.372 -31.464 -25.622  1.00  0.00    -0.336 NA
ATOM     11  H62 UNL     1     -11.747 -32.269 -25.658  1.00  0.00     0.173 HD
ATOM     12  H61 UNL     1     -13.348 -31.760 -25.589  1.00  0.00     0.173 HD
ENDBRANCH   9  10
BRANCH   9  13
HETATM   13  O1  UNL     1     -13.070 -31.132 -27.728  1.00  0.00    -0.289 OA
ATOM     14  H1  UNL     1     -13.295 -32.046 -27.599  1.00  0.00     0.239 HD
ENDBRANCH   9  13
ENDBRANCH   8   9
BRANCH   1  15
HETATM   15  N1  UNL     1      -9.992 -28.943 -26.919  1.00  0.00    -0.374 N 
HETATM   16  C1  UNL     1      -9.627 -29.039 -28.317  1.00  0.00     0.150 C 
HETATM   17  C2  UNL     1      -9.023 -29.337 -25.923  1.00  0.00     0.150 C 
ENDBRANCH   1  15
BRANCH   7  18
HETATM   18  N4  UNL     1     -14.608 -29.586 -25.971  1.00  0.00    -0.384 N 
ATOM     19  H42 UNL     1     -15.108 -29.670 -25.087  1.00  0.00     0.157 HD
ATOM     20  H41 UNL     1     -14.945 -30.116 -26.775  1.00  0.00     0.157 HD
ENDBRANCH   7  18
TORSDOF 5
ENDMDL
MODEL 3
REMARK VINA RESULT: -4.616776061      1.747      3.525
REMARK  5 active torsions:
REMARK  status: ('A' for Active; 'I' for Inactive)
REMARK    1  A    between atoms: N1_2  and  C3_4 
REMARK    2  A    between atoms: C5_10  and  N4_11 
REMARK    3  A    between atoms: C6_14  and  N5_15 
REMARK    4  A    between atoms: N5_15  and  N6_16 
REMARK    5  A    between atoms: N5_15  and  O1_19 
ROOT
HETATM    1  C3  UNL     1     -12.866 -27.909 -26.511  1.00  0.00     0.133 A 
HETATM    2  N2  UNL     1     -12.825 -26.653 -25.969  1.00  0.00    -0.337 N 
ATOM      3  H2  UNL     1     -12.012 -26.063 -26.149  1.00  0.00     0.168 HD
HETATM    4  C4  UNL     1     -13.818 -26.177 -25.212  1.00  0.00     0.183 A 
HETATM    5  N3  UNL     1     -14.883 -26.955 -24.981  1.00  0.00    -0.337 N 
ATOM      6  H3  UNL     1     -15.640 -26.591 -24.404  1.00  0.00     0.168 HD
HETATM    7  C5  UNL     1     -14.995 -28.228 -25.493  1.00  0.00     0.129 A 
HETATM    8  C6  UNL     1     -13.979 -28.712 -26.267  1.00  0.00     0.146 A 
ENDROOT
BRANCH   8   9
HETATM    9  N5  UNL     1     -14.024 -30.003 -26.865  1.00  0.00    -0.070 NA
BRANCH   9  10
HETATM   10  N6  UNL     1     -13.829 -30.964 -25.875  1.00  0.00    -0.336 NA
ATOM     11  H62 UNL     1     -14.450 -30.747 -25.095  1.00  0.00     0.173 HD
ATOM     12  H61 UNL     1     -12.852 -30.941 -25.581  1.00  0.00     0.173 HD
ENDBRANCH   9  10
BRANCH   9  13
HETATM   13  O1  UNL     1     -15.250 -30.233 -27.448  1.00  0.00    -0.289 OA
ATOM     14  H1  UNL     1     -15.849 -29.517 -27.271  1.00  0.00     0.239 HD
ENDBRANCH   9  13
ENDBRANCH   8   9
BRANCH   1  15
HETATM   15  N1  UNL     1     -11.770 -28.383 -27.281  1.00  0.00    -0.374 N 
HETATM   16  C1  UNL     1     -10.637 -28.979 -26.603  1.00  0.00     0.150 C 
HETATM   17  C2  UNL     1     -11.744 -28.292 -28.721  1.00  0.00     0.150 C 
ENDBRANCH   1  15
BRANCH   7  18
HETATM   18  N4  UNL     1     -16.027 -28.923 -25.232  1.00  0.00    -0.384 N 
ATOM     19  H42 UNL     1     -16.966 -28.528 -25.276  1.00  0.00     0.157 HD
ATOM     20  H41 UNL     1     -15.924 -29.905 -24.976  1.00  0.00     0.157 HD
ENDBRANCH   7  18
TORSDOF 5
ENDMDL
MODEL 4
REMARK VINA RESULT: -4.604553001      2.188      3.773
REMARK  5 active torsions:
REMARK  status: ('A' for Active; 'I' for Inactive)
REMARK    1  A    between atoms: N1_2  and  C3_4 
REMARK    2  A    between atoms: C5_10  and  N4_11 
REMARK    3  A    between atoms: C6_14  and  N5_15 
REMARK    4  A    between atoms: N5_15  and  N6_16 
REMARK    5  A    between atoms: N5_15  and  O1_19 
ROOT
HETATM    1  C3  UNL     1     -13.252 -27.906 -26.531  1.00  0.00     0.133 A 
HETATM    2  N2  UNL     1     -12.849 -26.813 -25.814  1.00  0.00    -0.337 N 
ATOM      3  H2  UNL     1     -11.853 -26.600 -25.754  1.00  0.00     0.168 HD
HETATM    4  C4  UNL     1     -13.721 -26.015 -25.191  1.00  0.00     0.183 A 
HETATM    5  N3  UNL     1     -15.028 -26.298 -25.276  1.00  0.00    -0.337 N 
ATOM      6  H3  UNL     1     -15.693 -25.688 -24.800  1.00  0.00     0.168 HD
HETATM    7  C5  UNL     1     -15.508 -27.379 -25.979  1.00  0.00     0.129 A 
HETATM    8  C6  UNL     1     -14.614 -28.193 -26.615  1.00  0.00     0.146 A 
ENDROOT
BRANCH   8   9
HETATM    9  N5  UNL     1     -15.022 -29.314 -27.392  1.00  0.00    -0.070 NA
BRANCH   9  10
HETATM   10  N6  UNL     1     -15.617 -30.252 -26.550  1.00  0.00    -0.336 NA
ATOM     11  H62 UNL     1     -15.515 -31.171 -26.979  1.00  0.00     0.173 HD
ATOM     12  H61 UNL     1     -16.601 -30.010 -26.431  1.00  0.00     0.173 HD
ENDBRANCH   9  10
BRANCH   9  13
HETATM   13  O1  UNL     1     -15.947 -28.944 -28.341  1.00  0.00    -0.289 OA
ATOM     14  H1  UNL     1     -15.759 -29.356 -29.177  1.00  0.00     0.239 HD
ENDBRANCH   9  13
ENDBRANCH   8   9
BRANCH   1  15
HETATM   15  N1  UNL     1     -12.283 -28.744 -27.147  1.00  0.00    -0.374 N 
HETATM   16  C1  UNL     1     -11.777 -28.392 -28.457  1.00  0.00     0.150 C 
HETATM   17  C2  UNL     1     -11.782 -29.939 -26.510  1.00  0.00     0.150 C 
ENDBRANCH   1  15
BRANCH   7  18
HETATM   18  N4  UNL     1     -16.759 -27.601 -26.015  1.00  0.00    -0.384 N 
ATOM     19  H42 UNL     1     -17.160 -28.473 -25.669  1.00  0.00     0.157 HD
ATOM     20  H41 UNL     1     -17.387 -26.893 -26.394  1.00  0.00     0.157 HD
ENDBRANCH   7  18
TORSDOF 5
ENDMDL
MODEL 5
REMARK VINA RESULT: -4.547214053      2.486      3.702
REMARK  5 active torsions:
REMARK  status: ('A' for Active; 'I' for Inactive)
REMARK    1  A    between atoms: N1_2  and  C3_4 
REMARK    2  A    between atoms: C5_10  and  N4_11 
REMARK    3  A    between atoms: C6_14  and  N5_15 
REMARK    4  A    between atoms: N5_15  and  N6_16 
REMARK    5  A    between atoms: N5_15  and  O1_19 
ROOT
HETATM    1  C3  UNL     1     -14.094 -26.867 -25.440  1.00  0.00     0.133 A 
HETATM    2  N2  UNL     1     -12.799 -26.831 -25.883  1.00  0.00    -0.337 N 
ATOM      3  H2  UNL     1     -12.169 -26.121 -25.512  1.00  0.00     0.168 HD
HETATM    4  C4  UNL     1     -12.338 -27.701 -26.787  1.00  0.00     0.183 A 
HETATM    5  N3  UNL     1     -13.170 -28.633 -27.268  1.00  0.00    -0.337 N 
ATOM      6  H3  UNL     1     -12.816 -29.296 -27.958  1.00  0.00     0.168 HD
HETATM    7  C5  UNL     1     -14.484 -28.731 -26.870  1.00  0.00     0.129 A 
HETATM    8  C6  UNL     1     -14.953 -27.841 -25.945  1.00  0.00     0.146 A 
ENDROOT
BRANCH   8   9
HETATM    9  N5  UNL     1     -16.287 -27.888 -25.451  1.00  0.00    -0.070 NA
BRANCH   9  10
HETATM   10  N6  UNL     1     -17.166 -27.651 -26.505  1.00  0.00    -0.336 NA
ATOM     11  H62 UNL     1     -17.767 -26.869 -26.247  1.00  0.00     0.173 HD
ATOM     12  H61 UNL     1     -17.715 -28.494 -26.672  1.00  0.00     0.173 HD
ENDBRANCH   9  10
BRANCH   9  13
HETATM   13  O1  UNL     1     -16.574 -29.127 -24.925  1.00  0.00    -0.289 OA
ATOM     14  H1  UNL     1     -16.141 -29.250 -24.088  1.00  0.00     0.239 HD
ENDBRANCH   9  13
ENDBRANCH   8   9
BRANCH   1  15
HETATM   15  N1  UNL     1     -14.546 -25.899 -24.503  1.00  0.00    -0.374 N 
HETATM   16  C1  UNL     1     -15.049 -24.630 -24.987  1.00  0.00     0.150 C 
HETATM   17  C2  UNL     1     -14.525 -26.136 -23.079  1.00  0.00     0.150 C 
ENDBRANCH   1  15
BRANCH   7  18
HETATM   18  N4  UNL     1     -15.228 -29.632 -27.370  1.00  0.00    -0.384 N 
ATOM     19  H42 UNL     1     -15.344 -29.734 -28.378  1.00  0.00     0.157 HD
ATOM     20  H41 UNL     1     -15.722 -30.278 -26.755  1.00  0.00     0.157 HD
ENDBRANCH   7  18
TORSDOF 5
ENDMDL
