MODEL 1
REMARK VINA RESULT: -8.346766247      0.000      0.000
REMARK  11 active torsions:
REMARK  status: ('A' for Active; 'I' for Inactive)
REMARK    1  A    between atoms: O1_2  and  C2_3 
REMARK    2  A    between atoms: C4_5  and  O2_6 
REMARK    3  A    between atoms: C5_8  and  C6_9 
REMARK    4  A    between atoms: C6_9  and  C7_10 
REMARK    5  A    between atoms: C7_10  and  C8_11 
REMARK    6  A    between atoms: C8_11  and  C10_13 
REMARK    7  A    between atoms: C10_13  and  C11_14 
REMARK    8  A    between atoms: C11_14  and  C12_15 
REMARK    9  A    between atoms: C13_18  and  C14_19 
REMARK   10  A    between atoms: C14_19  and  O5_20 
REMARK   11  A    between atoms: C19_26  and  O6_27 
ROOT
HETATM    1  C2  UNL     1      40.662  39.644  53.263  1.00  0.00     0.071 A 
HETATM    2  C3  UNL     1      40.688  38.842  52.149  1.00  0.00     0.073 A 
HETATM    3  C4  UNL     1      40.212  37.564  52.281  1.00  0.00     0.075 A 
HETATM    4  C5  UNL     1      39.700  37.033  53.493  1.00  0.00    -0.015 A 
HETATM    5  C13 UNL     1      39.666  37.824  54.611  1.00  0.00    -0.012 A 
HETATM    6  C24 UNL     1      40.171  39.142  54.429  1.00  0.00     0.047 A 
ENDROOT
BRANCH   5   7
HETATM    7  C14 UNL     1      39.128  37.472  55.874  1.00  0.00     0.093 C 
HETATM    8  C15 UNL     1      39.529  36.408  56.754  1.00  0.00     0.044 C 
HETATM    9  C16 UNL     1      38.974  36.915  58.106  1.00  0.00     0.009 C 
HETATM   10  C17 UNL     1      37.746  37.678  57.715  1.00  0.00    -0.001 C 
HETATM   11  C18 UNL     1      36.547  37.187  58.422  1.00  0.00     0.037 C 
HETATM   12  C22 UNL     1      37.644  37.625  56.173  1.00  0.00    -0.005 C 
HETATM   13  C19 UNL     1      35.268  37.341  57.662  1.00  0.00     0.118 C 
HETATM   14  C20 UNL     1      35.323  36.786  56.285  1.00  0.00     0.032 C 
HETATM   15  C21 UNL     1      36.713  36.606  55.719  1.00  0.00     0.015 C 
HETATM   16  C23 UNL     1      37.115  38.981  55.766  1.00  0.00     0.019 C 
BRANCH   7  17
HETATM   17  O5  UNL     1      39.489  38.652  56.720  1.00  0.00    -0.384 OA
ATOM     18  H5  UNL     1      38.651  39.082  56.841  1.00  0.00     0.211 HD
ENDBRANCH   7  17
BRANCH  13  19
HETATM   19  O6  UNL     1      34.257  36.706  58.419  1.00  0.00    -0.396 OA
ATOM     20  H6  UNL     1      33.857  36.053  57.857  1.00  0.00     0.210 HD
ENDBRANCH  13  19
ENDBRANCH   5   7
BRANCH   4  21
HETATM   21  C6  UNL     1      39.391  35.631  53.489  1.00  0.00     0.042 C 
BRANCH  21  22
HETATM   22  C7  UNL     1      37.985  35.174  53.227  1.00  0.00     0.009 C 
BRANCH  22  23
HETATM   23  C8  UNL     1      37.964  33.680  52.867  1.00  0.00    -0.018 C 
HETATM   24  C9  UNL     1      38.702  33.403  51.623  1.00  0.00     0.010 C 
BRANCH  23  25
HETATM   25  C10 UNL     1      38.186  32.875  54.061  1.00  0.00     0.015 C 
BRANCH  25  26
HETATM   26  C11 UNL     1      37.435  33.151  55.297  1.00  0.00     0.113 C 
BRANCH  26  27
HETATM   27  C12 UNL     1      36.061  32.653  55.401  1.00  0.00     0.172 C 
HETATM   28  O3  UNL     1      35.472  32.065  54.467  1.00  0.00    -0.648 OA
HETATM   29  O4  UNL     1      35.326  32.828  56.600  1.00  0.00    -0.648 OA
ENDBRANCH  26  27
ENDBRANCH  25  26
ENDBRANCH  23  25
ENDBRANCH  22  23
ENDBRANCH  21  22
ENDBRANCH   4  21
BRANCH   3  30
HETATM   30  O2  UNL     1      40.250  36.758  51.130  1.00  0.00    -0.360 OA
ATOM     31  H2  UNL     1      40.911  36.974  50.483  1.00  0.00     0.217 HD
ENDBRANCH   3  30
BRANCH   1  32
HETATM   32  O1  UNL     1      41.126  40.968  53.239  1.00  0.00    -0.356 OA
HETATM   33  C1  UNL     1      41.599  41.524  54.468  1.00  0.00     0.210 C 
ENDBRANCH   1  32
TORSDOF 11
ENDMDL
MODEL 2
REMARK VINA RESULT: -8.065772958      1.381      2.166
REMARK  11 active torsions:
REMARK  status: ('A' for Active; 'I' for Inactive)
REMARK    1  A    between atoms: O1_2  and  C2_3 
REMARK    2  A    between atoms: C4_5  and  O2_6 
REMARK    3  A    between atoms: C5_8  and  C6_9 
REMARK    4  A    between atoms: C6_9  and  C7_10 
REMARK    5  A    between atoms: C7_10  and  C8_11 
REMARK    6  A    between atoms: C8_11  and  C10_13 
REMARK    7  A    between atoms: C10_13  and  C11_14 
REMARK    8  A    between atoms: C11_14  and  C12_15 
REMARK    9  A    between atoms: C13_18  and  C14_19 
REMARK   10  A    between atoms: C14_19  and  O5_20 
REMARK   11  A    between atoms: C19_26  and  O6_27 
ROOT
HETATM    1  C2  UNL     1      41.270  41.422  54.976  1.00  0.00     0.071 A 
HETATM    2  C3  UNL     1      41.233  41.439  53.604  1.00  0.00     0.073 A 
HETATM    3  C4  UNL     1      40.628  40.381  52.977  1.00  0.00     0.075 A 
HETATM    4  C5  UNL     1      40.046  39.284  53.663  1.00  0.00    -0.015 A 
HETATM    5  C13 UNL     1      40.074  39.256  55.032  1.00  0.00    -0.012 A 
HETATM    6  C24 UNL     1      40.712  40.373  55.641  1.00  0.00     0.047 A 
ENDROOT
BRANCH   5   7
HETATM    7  C14 UNL     1      39.483  38.275  55.866  1.00  0.00     0.093 C 
HETATM    8  C15 UNL     1      39.952  36.947  56.157  1.00  0.00     0.044 C 
HETATM    9  C16 UNL     1      39.216  36.657  57.487  1.00  0.00     0.009 C 
HETATM   10  C17 UNL     1      37.932  37.415  57.347  1.00  0.00    -0.001 C 
HETATM   11  C18 UNL     1      36.756  36.543  57.539  1.00  0.00     0.037 C 
HETATM   12  C22 UNL     1      37.972  38.139  55.982  1.00  0.00    -0.005 C 
HETATM   13  C19 UNL     1      35.539  36.958  56.775  1.00  0.00     0.118 C 
HETATM   14  C20 UNL     1      35.791  37.181  55.328  1.00  0.00     0.032 C 
HETATM   15  C21 UNL     1      37.236  37.419  54.956  1.00  0.00     0.015 C 
HETATM   16  C23 UNL     1      37.295  39.469  56.221  1.00  0.00     0.019 C 
BRANCH   7  17
HETATM   17  O5  UNL     1      39.600  38.890  57.224  1.00  0.00    -0.384 OA
ATOM     18  H5  UNL     1      40.360  39.452  57.130  1.00  0.00     0.211 HD
ENDBRANCH   7  17
BRANCH  13  19
HETATM   19  O6  UNL     1      34.566  35.952  56.968  1.00  0.00    -0.396 OA
ATOM     20  H6  UNL     1      34.113  35.841  56.140  1.00  0.00     0.210 HD
ENDBRANCH  13  19
ENDBRANCH   5   7
BRANCH   4  21
HETATM   21  C6  UNL     1      39.597  38.192  52.844  1.00  0.00     0.042 C 
BRANCH  21  22
HETATM   22  C7  UNL     1      40.490  37.006  52.624  1.00  0.00     0.009 C 
BRANCH  22  23
HETATM   23  C8  UNL     1      39.666  35.792  52.166  1.00  0.00    -0.018 C 
HETATM   24  C9  UNL     1      40.218  35.181  50.945  1.00  0.00     0.010 C 
BRANCH  23  25
HETATM   25  C10 UNL     1      39.307  34.969  53.314  1.00  0.00     0.015 C 
BRANCH  25  26
HETATM   26  C11 UNL     1      38.405  33.816  53.154  1.00  0.00     0.113 C 
BRANCH  26  27
HETATM   27  C12 UNL     1      37.507  33.478  54.260  1.00  0.00     0.172 C 
HETATM   28  O3  UNL     1      37.615  33.967  55.407  1.00  0.00    -0.648 OA
HETATM   29  O4  UNL     1      36.449  32.555  54.065  1.00  0.00    -0.648 OA
ENDBRANCH  26  27
ENDBRANCH  25  26
ENDBRANCH  23  25
ENDBRANCH  22  23
ENDBRANCH  21  22
ENDBRANCH   4  21
BRANCH   3  30
HETATM   30  O2  UNL     1      40.603  40.415  51.572  1.00  0.00    -0.360 OA
ATOM     31  H2  UNL     1      39.939  39.885  51.147  1.00  0.00     0.217 HD
ENDBRANCH   3  30
BRANCH   1  32
HETATM   32  O1  UNL     1      41.865  42.454  55.718  1.00  0.00    -0.356 OA
HETATM   33  C1  UNL     1      41.960  42.278  57.134  1.00  0.00     0.210 C 
ENDBRANCH   1  32
TORSDOF 11
ENDMDL
MODEL 3
REMARK VINA RESULT: -7.943864580      1.928      5.856
REMARK  11 active torsions:
REMARK  status: ('A' for Active; 'I' for Inactive)
REMARK    1  A    between atoms: O1_2  and  C2_3 
REMARK    2  A    between atoms: C4_5  and  O2_6 
REMARK    3  A    between atoms: C5_8  and  C6_9 
REMARK    4  A    between atoms: C6_9  and  C7_10 
REMARK    5  A    between atoms: C7_10  and  C8_11 
REMARK    6  A    between atoms: C8_11  and  C10_13 
REMARK    7  A    between atoms: C10_13  and  C11_14 
REMARK    8  A    between atoms: C11_14  and  C12_15 
REMARK    9  A    between atoms: C13_18  and  C14_19 
REMARK   10  A    between atoms: C14_19  and  O5_20 
REMARK   11  A    between atoms: C19_26  and  O6_27 
ROOT
HETATM    1  C2  UNL     1      36.207  33.664  56.741  1.00  0.00     0.071 A 
HETATM    2  C3  UNL     1      36.762  32.967  55.697  1.00  0.00     0.073 A 
HETATM    3  C4  UNL     1      37.508  33.676  54.792  1.00  0.00     0.075 A 
HETATM    4  C5  UNL     1      37.733  35.074  54.876  1.00  0.00    -0.015 A 
HETATM    5  C13 UNL     1      37.185  35.781  55.914  1.00  0.00    -0.012 A 
HETATM    6  C24 UNL     1      36.419  35.006  56.828  1.00  0.00     0.047 A 
ENDROOT
BRANCH   5   7
HETATM    7  C14 UNL     1      37.368  37.161  56.180  1.00  0.00     0.093 C 
HETATM    8  C15 UNL     1      38.545  37.963  55.981  1.00  0.00     0.044 C 
HETATM    9  C16 UNL     1      37.930  39.382  55.917  1.00  0.00     0.009 C 
HETATM   10  C17 UNL     1      36.746  39.289  56.829  1.00  0.00    -0.001 C 
HETATM   11  C18 UNL     1      36.784  40.321  57.884  1.00  0.00     0.037 C 
HETATM   12  C22 UNL     1      36.685  37.838  57.359  1.00  0.00    -0.005 C 
HETATM   13  C19 UNL     1      36.128  39.925  59.169  1.00  0.00     0.118 C 
HETATM   14  C20 UNL     1      36.599  38.620  59.700  1.00  0.00     0.032 C 
HETATM   15  C21 UNL     1      37.260  37.714  58.688  1.00  0.00     0.015 C 
HETATM   16  C23 UNL     1      35.213  37.507  57.435  1.00  0.00     0.019 C 
BRANCH   7  17
HETATM   17  O5  UNL     1      36.450  37.805  55.191  1.00  0.00    -0.384 OA
ATOM     18  H5  UNL     1      36.792  38.689  55.138  1.00  0.00     0.211 HD
ENDBRANCH   7  17
BRANCH  13  19
HETATM   19  O6  UNL     1      36.372  40.964  60.096  1.00  0.00    -0.396 OA
ATOM     20  H6  UNL     1      36.936  40.606  60.772  1.00  0.00     0.210 HD
ENDBRANCH  13  19
ENDBRANCH   5   7
BRANCH   4  21
HETATM   21  C6  UNL     1      38.405  35.675  53.758  1.00  0.00     0.042 C 
BRANCH  21  22
HETATM   22  C7  UNL     1      39.901  35.610  53.660  1.00  0.00     0.009 C 
BRANCH  22  23
HETATM   23  C8  UNL     1      40.391  36.356  52.409  1.00  0.00    -0.018 C 
HETATM   24  C9  UNL     1      40.069  35.627  51.171  1.00  0.00     0.010 C 
BRANCH  23  25
HETATM   25  C10 UNL     1      40.103  37.780  52.531  1.00  0.00     0.015 C 
BRANCH  25  26
HETATM   26  C11 UNL     1      41.053  38.678  53.209  1.00  0.00     0.113 C 
BRANCH  26  27
HETATM   27  C12 UNL     1      41.412  39.935  52.549  1.00  0.00     0.172 C 
HETATM   28  O3  UNL     1      40.566  40.730  52.080  1.00  0.00    -0.648 OA
HETATM   29  O4  UNL     1      42.772  40.309  52.413  1.00  0.00    -0.648 OA
ENDBRANCH  26  27
ENDBRANCH  25  26
ENDBRANCH  23  25
ENDBRANCH  22  23
ENDBRANCH  21  22
ENDBRANCH   4  21
BRANCH   3  30
HETATM   30  O2  UNL     1      38.066  32.945  53.729  1.00  0.00    -0.360 OA
ATOM     31  H2  UNL     1      38.330  33.443  52.964  1.00  0.00     0.217 HD
ENDBRANCH   3  30
BRANCH   1  32
HETATM   32  O1  UNL     1      35.425  33.037  57.723  1.00  0.00    -0.356 OA
HETATM   33  C1  UNL     1      35.080  33.803  58.879  1.00  0.00     0.210 C 
ENDBRANCH   1  32
TORSDOF 11
ENDMDL
MODEL 4
REMARK VINA RESULT: -7.747295366      2.831      5.693
REMARK  11 active torsions:
REMARK  status: ('A' for Active; 'I' for Inactive)
REMARK    1  A    between atoms: O1_2  and  C2_3 
REMARK    2  A    between atoms: C4_5  and  O2_6 
REMARK    3  A    between atoms: C5_8  and  C6_9 
REMARK    4  A    between atoms: C6_9  and  C7_10 
REMARK    5  A    between atoms: C7_10  and  C8_11 
REMARK    6  A    between atoms: C8_11  and  C10_13 
REMARK    7  A    between atoms: C10_13  and  C11_14 
REMARK    8  A    between atoms: C11_14  and  C12_15 
REMARK    9  A    between atoms: C13_18  and  C14_19 
REMARK   10  A    between atoms: C14_19  and  O5_20 
REMARK   11  A    between atoms: C19_26  and  O6_27 
ROOT
HETATM    1  C2  UNL     1      37.150  33.405  53.701  1.00  0.00     0.071 A 
HETATM    2  C3  UNL     1      36.309  32.801  54.601  1.00  0.00     0.073 A 
HETATM    3  C4  UNL     1      36.206  33.366  55.845  1.00  0.00     0.075 A 
HETATM    4  C5  UNL     1      36.914  34.527  56.247  1.00  0.00    -0.015 A 
HETATM    5  C13 UNL     1      37.755  35.142  55.357  1.00  0.00    -0.012 A 
HETATM    6  C24 UNL     1      37.832  34.521  54.079  1.00  0.00     0.047 A 
ENDROOT
BRANCH   5   7
HETATM    7  C14 UNL     1      38.479  36.340  55.575  1.00  0.00     0.093 C 
HETATM    8  C15 UNL     1      39.717  36.523  56.284  1.00  0.00     0.044 C 
HETATM    9  C16 UNL     1      40.211  37.860  55.681  1.00  0.00     0.009 C 
HETATM   10  C17 UNL     1      38.941  38.596  55.381  1.00  0.00    -0.001 C 
HETATM   11  C18 UNL     1      38.912  39.924  56.025  1.00  0.00     0.037 C 
HETATM   12  C22 UNL     1      37.768  37.670  55.776  1.00  0.00    -0.005 C 
HETATM   13  C19 UNL     1      37.546  40.412  56.388  1.00  0.00     0.118 C 
HETATM   14  C20 UNL     1      36.754  39.434  57.177  1.00  0.00     0.032 C 
HETATM   15  C21 UNL     1      37.224  38.001  57.082  1.00  0.00     0.015 C 
HETATM   16  C23 UNL     1      36.704  37.914  54.732  1.00  0.00     0.019 C 
BRANCH   7  17
HETATM   17  O5  UNL     1      38.920  36.708  54.194  1.00  0.00    -0.384 OA
ATOM     18  H5  UNL     1      39.308  37.565  54.323  1.00  0.00     0.211 HD
ENDBRANCH   7  17
BRANCH  13  19
HETATM   19  O6  UNL     1      37.714  41.619  57.104  1.00  0.00    -0.396 OA
ATOM     20  H6  UNL     1      37.204  42.283  56.654  1.00  0.00     0.210 HD
ENDBRANCH  13  19
ENDBRANCH   5   7
BRANCH   4  21
HETATM   21  C6  UNL     1      36.806  34.887  57.633  1.00  0.00     0.042 C 
BRANCH  21  22
HETATM   22  C7  UNL     1      35.452  35.055  58.260  1.00  0.00     0.009 C 
BRANCH  22  23
HETATM   23  C8  UNL     1      35.483  34.613  59.731  1.00  0.00    -0.018 C 
HETATM   24  C9  UNL     1      34.134  34.554  60.317  1.00  0.00     0.010 C 
BRANCH  23  25
HETATM   25  C10 UNL     1      36.419  33.509  59.902  1.00  0.00     0.015 C 
BRANCH  25  26
HETATM   26  C11 UNL     1      35.975  32.240  60.502  1.00  0.00     0.113 C 
BRANCH  26  27
HETATM   27  C12 UNL     1      36.974  31.395  61.160  1.00  0.00     0.172 C 
HETATM   28  O3  UNL     1      38.151  31.277  60.750  1.00  0.00    -0.648 OA
HETATM   29  O4  UNL     1      36.634  30.658  62.322  1.00  0.00    -0.648 OA
ENDBRANCH  26  27
ENDBRANCH  25  26
ENDBRANCH  23  25
ENDBRANCH  22  23
ENDBRANCH  21  22
ENDBRANCH   4  21
BRANCH   3  30
HETATM   30  O2  UNL     1      35.342  32.729  56.754  1.00  0.00    -0.360 OA
ATOM     31  H2  UNL     1      34.706  33.283  57.193  1.00  0.00     0.217 HD
ENDBRANCH   3  30
BRANCH   1  32
HETATM   32  O1  UNL     1      37.331  32.910  52.400  1.00  0.00    -0.356 OA
HETATM   33  C1  UNL     1      38.530  33.278  51.715  1.00  0.00     0.210 C 
ENDBRANCH   1  32
TORSDOF 11
ENDMDL
MODEL 5
REMARK VINA RESULT: -7.658206127      2.170      6.341
REMARK  11 active torsions:
REMARK  status: ('A' for Active; 'I' for Inactive)
REMARK    1  A    between atoms: O1_2  and  C2_3 
REMARK    2  A    between atoms: C4_5  and  O2_6 
REMARK    3  A    between atoms: C5_8  and  C6_9 
REMARK    4  A    between atoms: C6_9  and  C7_10 
REMARK    5  A    between atoms: C7_10  and  C8_11 
REMARK    6  A    between atoms: C8_11  and  C10_13 
REMARK    7  A    between atoms: C10_13  and  C11_14 
REMARK    8  A    between atoms: C11_14  and  C12_15 
REMARK    9  A    between atoms: C13_18  and  C14_19 
REMARK   10  A    between atoms: C14_19  and  O5_20 
REMARK   11  A    between atoms: C19_26  and  O6_27 
ROOT
HETATM    1  C2  UNL     1      34.177  36.057  60.003  1.00  0.00     0.071 A 
HETATM    2  C3  UNL     1      34.383  34.718  60.220  1.00  0.00     0.073 A 
HETATM    3  C4  UNL     1      35.159  34.044  59.313  1.00  0.00     0.075 A 
HETATM    4  C5  UNL     1      35.752  34.650  58.176  1.00  0.00    -0.015 A 
HETATM    5  C13 UNL     1      35.556  35.987  57.950  1.00  0.00    -0.012 A 
HETATM    6  C24 UNL     1      34.745  36.646  58.915  1.00  0.00     0.047 A 
ENDROOT
BRANCH   5   7
HETATM    7  C14 UNL     1      36.129  36.755  56.906  1.00  0.00     0.093 C 
HETATM    8  C15 UNL     1      35.849  36.702  55.496  1.00  0.00     0.044 C 
HETATM    9  C16 UNL     1      36.342  38.097  55.042  1.00  0.00     0.009 C 
HETATM   10  C17 UNL     1      37.477  38.386  55.975  1.00  0.00    -0.001 C 
HETATM   11  C18 UNL     1      38.723  38.692  55.246  1.00  0.00     0.037 C 
HETATM   12  C22 UNL     1      37.586  37.190  56.951  1.00  0.00    -0.005 C 
HETATM   13  C19 UNL     1      39.978  38.310  55.965  1.00  0.00     0.118 C 
HETATM   14  C20 UNL     1      39.986  36.903  56.441  1.00  0.00     0.032 C 
HETATM   15  C21 UNL     1      38.626  36.255  56.558  1.00  0.00     0.015 C 
HETATM   16  C23 UNL     1      37.961  37.800  58.281  1.00  0.00     0.019 C 
BRANCH   7  17
HETATM   17  O5  UNL     1      35.637  38.134  57.212  1.00  0.00    -0.384 OA
ATOM     18  H5  UNL     1      34.695  38.019  57.221  1.00  0.00     0.211 HD
ENDBRANCH   7  17
BRANCH  13  19
HETATM   19  O6  UNL     1      41.052  38.547  55.078  1.00  0.00    -0.396 OA
ATOM     20  H6  UNL     1      40.776  39.238  54.486  1.00  0.00     0.210 HD
ENDBRANCH  13  19
ENDBRANCH   5   7
BRANCH   4  21
HETATM   21  C6  UNL     1      36.400  33.763  57.252  1.00  0.00     0.042 C 
BRANCH  21  22
HETATM   22  C7  UNL     1      35.637  33.212  56.083  1.00  0.00     0.009 C 
BRANCH  22  23
HETATM   23  C8  UNL     1      36.581  32.461  55.131  1.00  0.00    -0.018 C 
HETATM   24  C9  UNL     1      35.843  31.717  54.096  1.00  0.00     0.010 C 
BRANCH  23  25
HETATM   25  C10 UNL     1      37.711  33.310  54.775  1.00  0.00     0.015 C 
BRANCH  25  26
HETATM   26  C11 UNL     1      37.653  34.167  53.578  1.00  0.00     0.113 C 
BRANCH  26  27
HETATM   27  C12 UNL     1      38.879  34.354  52.799  1.00  0.00     0.172 C 
HETATM   28  O3  UNL     1      39.032  33.902  51.642  1.00  0.00    -0.648 OA
HETATM   29  O4  UNL     1      39.970  35.076  53.344  1.00  0.00    -0.648 OA
ENDBRANCH  26  27
ENDBRANCH  25  26
ENDBRANCH  23  25
ENDBRANCH  22  23
ENDBRANCH  21  22
ENDBRANCH   4  21
BRANCH   3  30
HETATM   30  O2  UNL     1      35.355  32.672  59.552  1.00  0.00    -0.360 OA
ATOM     31  H2  UNL     1      34.776  32.265  60.186  1.00  0.00     0.217 HD
ENDBRANCH   3  30
BRANCH   1  32
HETATM   32  O1  UNL     1      33.399  36.842  60.868  1.00  0.00    -0.356 OA
HETATM   33  C1  UNL     1      32.251  36.230  61.461  1.00  0.00     0.210 C 
ENDBRANCH   1  32
TORSDOF 11
ENDMDL
