MODEL 1
REMARK VINA RESULT: -7.039381456      0.000      0.000
REMARK  11 active torsions:
REMARK  status: ('A' for Active; 'I' for Inactive)
REMARK    1  A    between atoms: C2_2  and  C3_3 
REMARK    2  A    between atoms: C3_3  and  O1_4 
REMARK    3  A    between atoms: C5_7  and  C7_9 
REMARK    4  A    between atoms: C7_9  and  C8_10 
REMARK    5  A    between atoms: C8_10  and  O2_11 
REMARK    6  A    between atoms: C8_10  and  C9_13 
REMARK    7  A    between atoms: C9_13  and  O3_14 
REMARK    8  A    between atoms: C9_13  and  C10_16 
REMARK    9  A    between atoms: C10_16  and  C11_17 
REMARK   10  A    between atoms: C17_24  and  O5_25 
REMARK   11  A    between atoms: C18_27  and  C20_29 
ROOT
HETATM    1  C3  UNL     1       9.358  -5.311  43.103  1.00  0.00     0.066 C 
HETATM    2  C4  UNL     1       8.350  -4.780  44.132  1.00  0.00     0.056 C 
HETATM    3  C5  UNL     1       7.501  -3.657  43.698  1.00  0.00     0.026 C 
HETATM    4  C6  UNL     1       8.120  -2.298  43.919  1.00  0.00     0.024 C 
HETATM    5  C14 UNL     1       7.198  -3.732  42.219  1.00  0.00     0.164 C 
HETATM    6  O4  UNL     1       6.632  -2.778  41.626  1.00  0.00    -0.292 OA
HETATM    7  C15 UNL     1       7.553  -4.894  41.480  1.00  0.00    -0.006 C 
HETATM    8  C16 UNL     1       6.890  -5.243  40.400  1.00  0.00     0.016 C 
HETATM    9  C17 UNL     1       7.244  -6.454  39.610  1.00  0.00     0.150 C 
HETATM   10  C18 UNL     1       8.680  -6.826  39.666  1.00  0.00    -0.011 C 
HETATM   11  C19 UNL     1       8.841  -8.257  40.116  1.00  0.00     0.018 C 
HETATM   12  C23 UNL     1       9.507  -5.968  40.642  1.00  0.00     0.025 C 
HETATM   13  C24 UNL     1       8.695  -5.787  41.880  1.00  0.00     0.057 C 
ENDROOT
BRANCH   3  14
HETATM   14  C7  UNL     1       6.149  -3.764  44.365  1.00  0.00     0.051 C 
BRANCH  14  15
HETATM   15  C8  UNL     1       5.622  -2.532  44.998  1.00  0.00     0.148 C 
BRANCH  15  16
HETATM   16  O2  UNL     1       5.718  -2.503  46.380  1.00  0.00    -0.393 OA
ATOM     17  H2  UNL     1       4.958  -2.147  46.824  1.00  0.00     0.210 HD
ENDBRANCH  15  16
BRANCH  15  18
HETATM   18  C9  UNL     1       4.146  -2.348  44.644  1.00  0.00     0.147 C 
BRANCH  18  19
HETATM   19  O3  UNL     1       3.569  -1.400  45.472  1.00  0.00    -0.393 OA
ATOM     20  H3  UNL     1       2.969  -1.816  46.080  1.00  0.00     0.210 HD
ENDBRANCH  18  19
BRANCH  18  21
HETATM   21  C10 UNL     1       3.864  -2.205  43.205  1.00  0.00     0.038 C 
BRANCH  21  22
HETATM   22  C11 UNL     1       2.763  -3.010  42.620  1.00  0.00    -0.020 C 
HETATM   23  C12 UNL     1       1.805  -3.569  43.629  1.00  0.00     0.009 C 
HETATM   24  C13 UNL     1       3.441  -4.212  41.931  1.00  0.00     0.009 C 
ENDBRANCH  21  22
ENDBRANCH  18  21
ENDBRANCH  15  18
ENDBRANCH  14  15
ENDBRANCH   3  14
BRANCH   1  25
HETATM   25  C2  UNL     1      10.494  -4.351  42.982  1.00  0.00     0.034 C 
HETATM   26  C1  UNL     1      11.376  -4.183  44.165  1.00  0.00     0.008 C 
ENDBRANCH   1  25
BRANCH   1  27
HETATM   27  O1  UNL     1       9.867  -6.446  43.790  1.00  0.00    -0.389 OA
ATOM     28  H1  UNL     1      10.353  -6.111  44.534  1.00  0.00     0.210 HD
ENDBRANCH   1  27
BRANCH   9  29
HETATM   29  O5  UNL     1       6.826  -6.243  38.300  1.00  0.00    -0.391 OA
ATOM     30  H5  UNL     1       6.250  -6.959  38.061  1.00  0.00     0.210 HD
ENDBRANCH   9  29
BRANCH  10  31
HETATM   31  C20 UNL     1       9.370  -6.709  38.322  1.00  0.00    -0.012 C 
HETATM   32  C21 UNL     1       9.432  -8.009  37.585  1.00  0.00     0.010 C 
HETATM   33  C22 UNL     1      10.749  -6.141  38.442  1.00  0.00     0.010 C 
ENDBRANCH  10  31
TORSDOF 11
ENDMDL
MODEL 2
REMARK VINA RESULT: -6.978952232      1.945      5.003
REMARK  11 active torsions:
REMARK  status: ('A' for Active; 'I' for Inactive)
REMARK    1  A    between atoms: C2_2  and  C3_3 
REMARK    2  A    between atoms: C3_3  and  O1_4 
REMARK    3  A    between atoms: C5_7  and  C7_9 
REMARK    4  A    between atoms: C7_9  and  C8_10 
REMARK    5  A    between atoms: C8_10  and  O2_11 
REMARK    6  A    between atoms: C8_10  and  C9_13 
REMARK    7  A    between atoms: C9_13  and  O3_14 
REMARK    8  A    between atoms: C9_13  and  C10_16 
REMARK    9  A    between atoms: C10_16  and  C11_17 
REMARK   10  A    between atoms: C17_24  and  O5_25 
REMARK   11  A    between atoms: C18_27  and  C20_29 
ROOT
HETATM    1  C3  UNL     1       9.411  -4.531  41.389  1.00  0.00     0.066 C 
HETATM    2  C4  UNL     1       8.053  -3.899  41.055  1.00  0.00     0.056 C 
HETATM    3  C5  UNL     1       6.965  -4.135  42.019  1.00  0.00     0.026 C 
HETATM    4  C6  UNL     1       6.192  -5.409  41.775  1.00  0.00     0.024 C 
HETATM    5  C14 UNL     1       7.492  -4.241  43.432  1.00  0.00     0.164 C 
HETATM    6  O4  UNL     1       6.744  -4.609  44.375  1.00  0.00    -0.292 OA
HETATM    7  C15 UNL     1       8.850  -3.922  43.709  1.00  0.00    -0.006 C 
HETATM    8  C16 UNL     1       9.219  -3.492  44.895  1.00  0.00     0.016 C 
HETATM    9  C17 UNL     1      10.634  -3.152  45.208  1.00  0.00     0.150 C 
HETATM   10  C18 UNL     1      11.638  -3.921  44.429  1.00  0.00    -0.011 C 
HETATM   11  C19 UNL     1      12.585  -2.988  43.717  1.00  0.00     0.018 C 
HETATM   12  C23 UNL     1      11.022  -4.827  43.346  1.00  0.00     0.025 C 
HETATM   13  C24 UNL     1       9.936  -4.054  42.677  1.00  0.00     0.057 C 
ENDROOT
BRANCH   3  14
HETATM   14  C7  UNL     1       6.051  -2.932  42.048  1.00  0.00     0.051 C 
BRANCH  14  15
HETATM   15  C8  UNL     1       4.594  -3.203  42.015  1.00  0.00     0.148 C 
BRANCH  15  16
HETATM   16  O2  UNL     1       3.989  -2.977  40.790  1.00  0.00    -0.393 OA
ATOM     17  H2  UNL     1       3.057  -2.799  40.833  1.00  0.00     0.210 HD
ENDBRANCH  15  16
BRANCH  15  18
HETATM   18  C9  UNL     1       3.873  -2.332  43.043  1.00  0.00     0.147 C 
BRANCH  18  19
HETATM   19  O3  UNL     1       2.519  -2.276  42.759  1.00  0.00    -0.393 OA
ATOM     20  H3  UNL     1       2.205  -1.382  42.828  1.00  0.00     0.210 HD
ENDBRANCH  18  19
BRANCH  18  21
HETATM   21  C10 UNL     1       4.226  -2.603  44.448  1.00  0.00     0.038 C 
BRANCH  21  22
HETATM   22  C11 UNL     1       4.732  -1.481  45.276  1.00  0.00    -0.020 C 
HETATM   23  C12 UNL     1       6.129  -1.674  45.788  1.00  0.00     0.009 C 
HETATM   24  C13 UNL     1       3.808  -1.418  46.509  1.00  0.00     0.009 C 
ENDBRANCH  21  22
ENDBRANCH  18  21
ENDBRANCH  15  18
ENDBRANCH  14  15
ENDBRANCH   3  14
BRANCH   1  25
HETATM   25  C2  UNL     1       9.351  -6.000  41.134  1.00  0.00     0.034 C 
HETATM   26  C1  UNL     1       9.197  -6.443  39.725  1.00  0.00     0.008 C 
ENDBRANCH   1  25
BRANCH   1  27
HETATM   27  O1  UNL     1      10.222  -3.981  40.361  1.00  0.00    -0.389 OA
ATOM     28  H1  UNL     1      10.993  -4.531  40.306  1.00  0.00     0.210 HD
ENDBRANCH   1  27
BRANCH   9  29
HETATM   29  O5  UNL     1      10.818  -3.321  46.577  1.00  0.00    -0.391 OA
ATOM     30  H5  UNL     1      11.704  -3.050  46.785  1.00  0.00     0.210 HD
ENDBRANCH   9  29
BRANCH  10  31
HETATM   31  C20 UNL     1      12.486  -4.828  45.297  1.00  0.00    -0.012 C 
HETATM   32  C21 UNL     1      13.948  -4.711  45.007  1.00  0.00     0.010 C 
HETATM   33  C22 UNL     1      12.072  -6.262  45.190  1.00  0.00     0.010 C 
ENDBRANCH  10  31
TORSDOF 11
ENDMDL
MODEL 3
REMARK VINA RESULT: -6.977049817      3.162      8.080
REMARK  11 active torsions:
REMARK  status: ('A' for Active; 'I' for Inactive)
REMARK    1  A    between atoms: C2_2  and  C3_3 
REMARK    2  A    between atoms: C3_3  and  O1_4 
REMARK    3  A    between atoms: C5_7  and  C7_9 
REMARK    4  A    between atoms: C7_9  and  C8_10 
REMARK    5  A    between atoms: C8_10  and  O2_11 
REMARK    6  A    between atoms: C8_10  and  C9_13 
REMARK    7  A    between atoms: C9_13  and  O3_14 
REMARK    8  A    between atoms: C9_13  and  C10_16 
REMARK    9  A    between atoms: C10_16  and  C11_17 
REMARK   10  A    between atoms: C17_24  and  O5_25 
REMARK   11  A    between atoms: C18_27  and  C20_29 
ROOT
HETATM    1  C3  UNL     1       9.885  -5.252  42.615  1.00  0.00     0.066 C 
HETATM    2  C4  UNL     1      11.231  -5.478  43.317  1.00  0.00     0.056 C 
HETATM    3  C5  UNL     1      11.915  -4.276  43.825  1.00  0.00     0.026 C 
HETATM    4  C6  UNL     1      12.802  -3.598  42.809  1.00  0.00     0.024 C 
HETATM    5  C14 UNL     1      10.926  -3.224  44.271  1.00  0.00     0.164 C 
HETATM    6  O4  UNL     1      11.309  -2.065  44.576  1.00  0.00    -0.292 OA
HETATM    7  C15 UNL     1       9.542  -3.540  44.352  1.00  0.00    -0.006 C 
HETATM    8  C16 UNL     1       8.747  -2.907  45.185  1.00  0.00     0.016 C 
HETATM    9  C17 UNL     1       7.295  -3.221  45.287  1.00  0.00     0.150 C 
HETATM   10  C18 UNL     1       6.686  -3.725  44.030  1.00  0.00    -0.011 C 
HETATM   11  C19 UNL     1       5.999  -5.048  44.267  1.00  0.00     0.018 C 
HETATM   12  C23 UNL     1       7.703  -3.960  42.897  1.00  0.00     0.025 C 
HETATM   13  C24 UNL     1       8.906  -4.604  43.500  1.00  0.00     0.057 C 
ENDROOT
BRANCH   3  14
HETATM   14  C7  UNL     1      12.682  -4.628  45.079  1.00  0.00     0.051 C 
BRANCH  14  15
HETATM   15  C8  UNL     1      13.592  -5.794  44.995  1.00  0.00     0.148 C 
BRANCH  15  16
HETATM   16  O2  UNL     1      13.496  -6.683  46.054  1.00  0.00    -0.393 OA
ATOM     17  H2  UNL     1      13.904  -7.527  45.903  1.00  0.00     0.210 HD
ENDBRANCH  15  16
BRANCH  15  18
HETATM   18  C9  UNL     1      15.046  -5.325  44.931  1.00  0.00     0.147 C 
BRANCH  18  19
HETATM   19  O3  UNL     1      15.171  -4.074  45.510  1.00  0.00    -0.393 OA
ATOM     20  H3  UNL     1      16.089  -3.861  45.639  1.00  0.00     0.210 HD
ENDBRANCH  18  19
BRANCH  18  21
HETATM   21  C10 UNL     1      16.043  -6.328  45.342  1.00  0.00     0.038 C 
BRANCH  21  22
HETATM   22  C11 UNL     1      17.265  -6.486  44.516  1.00  0.00    -0.020 C 
HETATM   23  C12 UNL     1      18.261  -5.374  44.669  1.00  0.00     0.009 C 
HETATM   24  C13 UNL     1      16.788  -6.460  43.049  1.00  0.00     0.009 C 
ENDBRANCH  21  22
ENDBRANCH  18  21
ENDBRANCH  15  18
ENDBRANCH  14  15
ENDBRANCH   3  14
BRANCH   1  25
HETATM   25  C2  UNL     1      10.124  -4.677  41.258  1.00  0.00     0.034 C 
HETATM   26  C1  UNL     1      10.805  -5.540  40.260  1.00  0.00     0.008 C 
ENDBRANCH   1  25
BRANCH   1  27
HETATM   27  O1  UNL     1       9.463  -6.593  42.410  1.00  0.00    -0.389 OA
ATOM     28  H1  UNL     1       9.140  -6.902  43.248  1.00  0.00     0.210 HD
ENDBRANCH   1  27
BRANCH   9  29
HETATM   29  O5  UNL     1       6.645  -2.077  45.741  1.00  0.00    -0.391 OA
ATOM     30  H5  UNL     1       6.488  -1.517  44.990  1.00  0.00     0.210 HD
ENDBRANCH   9  29
BRANCH  10  31
HETATM   31  C20 UNL     1       5.642  -2.785  43.464  1.00  0.00    -0.012 C 
HETATM   32  C21 UNL     1       4.283  -3.004  44.049  1.00  0.00     0.010 C 
HETATM   33  C22 UNL     1       5.559  -2.865  41.972  1.00  0.00     0.010 C 
ENDBRANCH  10  31
TORSDOF 11
ENDMDL
MODEL 4
REMARK VINA RESULT: -6.962906142      4.251      6.840
REMARK  11 active torsions:
REMARK  status: ('A' for Active; 'I' for Inactive)
REMARK    1  A    between atoms: C2_2  and  C3_3 
REMARK    2  A    between atoms: C3_3  and  O1_4 
REMARK    3  A    between atoms: C5_7  and  C7_9 
REMARK    4  A    between atoms: C7_9  and  C8_10 
REMARK    5  A    between atoms: C8_10  and  O2_11 
REMARK    6  A    between atoms: C8_10  and  C9_13 
REMARK    7  A    between atoms: C9_13  and  O3_14 
REMARK    8  A    between atoms: C9_13  and  C10_16 
REMARK    9  A    between atoms: C10_16  and  C11_17 
REMARK   10  A    between atoms: C17_24  and  O5_25 
REMARK   11  A    between atoms: C18_27  and  C20_29 
ROOT
HETATM    1  C3  UNL     1      12.980  -4.572  42.096  1.00  0.00     0.066 C 
HETATM    2  C4  UNL     1      12.192  -3.918  43.240  1.00  0.00     0.056 C 
HETATM    3  C5  UNL     1      11.879  -4.778  44.395  1.00  0.00     0.026 C 
HETATM    4  C6  UNL     1      10.599  -5.564  44.247  1.00  0.00     0.024 C 
HETATM    5  C14 UNL     1      12.964  -5.803  44.631  1.00  0.00     0.164 C 
HETATM    6  O4  UNL     1      12.803  -6.735  45.461  1.00  0.00    -0.292 OA
HETATM    7  C15 UNL     1      14.187  -5.722  43.909  1.00  0.00    -0.006 C 
HETATM    8  C16 UNL     1      15.303  -6.205  44.406  1.00  0.00     0.016 C 
HETATM    9  C17 UNL     1      16.595  -6.132  43.670  1.00  0.00     0.150 C 
HETATM   10  C18 UNL     1      16.460  -6.137  42.191  1.00  0.00    -0.011 C 
HETATM   11  C19 UNL     1      17.160  -4.944  41.590  1.00  0.00     0.018 C 
HETATM   12  C23 UNL     1      15.001  -6.078  41.700  1.00  0.00     0.025 C 
HETATM   13  C24 UNL     1      14.280  -5.086  42.549  1.00  0.00     0.057 C 
ENDROOT
BRANCH   3  14
HETATM   14  C7  UNL     1      11.872  -3.942  45.654  1.00  0.00     0.051 C 
BRANCH  14  15
HETATM   15  C8  UNL     1      11.347  -2.561  45.531  1.00  0.00     0.148 C 
BRANCH  15  16
HETATM   16  O2  UNL     1      12.231  -1.567  45.919  1.00  0.00    -0.393 OA
ATOM     17  H2  UNL     1      11.838  -0.713  46.048  1.00  0.00     0.210 HD
ENDBRANCH  15  16
BRANCH  15  18
HETATM   18  C9  UNL     1      10.086  -2.399  46.381  1.00  0.00     0.147 C 
BRANCH  18  19
HETATM   19  O3  UNL     1      10.379  -1.719  47.549  1.00  0.00    -0.393 OA
ATOM     20  H3  UNL     1      10.011  -2.175  48.297  1.00  0.00     0.210 HD
ENDBRANCH  18  19
BRANCH  18  21
HETATM   21  C10 UNL     1       8.895  -1.937  45.646  1.00  0.00     0.038 C 
BRANCH  21  22
HETATM   22  C11 UNL     1       8.067  -2.946  44.942  1.00  0.00    -0.020 C 
HETATM   23  C12 UNL     1       8.193  -2.914  43.448  1.00  0.00     0.009 C 
HETATM   24  C13 UNL     1       6.602  -2.595  45.275  1.00  0.00     0.009 C 
ENDBRANCH  21  22
ENDBRANCH  18  21
ENDBRANCH  15  18
ENDBRANCH  14  15
ENDBRANCH   3  14
BRANCH   1  25
HETATM   25  C2  UNL     1      12.076  -5.474  41.324  1.00  0.00     0.034 C 
HETATM   26  C1  UNL     1      10.985  -4.841  40.541  1.00  0.00     0.008 C 
ENDBRANCH   1  25
BRANCH   1  27
HETATM   27  O1  UNL     1      13.225  -3.447  41.264  1.00  0.00    -0.389 OA
ATOM     28  H1  UNL     1      13.798  -2.871  41.756  1.00  0.00     0.210 HD
ENDBRANCH   1  27
BRANCH   9  29
HETATM   29  O5  UNL     1      17.394  -7.183  44.109  1.00  0.00    -0.391 OA
ATOM     30  H5  UNL     1      18.066  -7.328  43.455  1.00  0.00     0.210 HD
ENDBRANCH   9  29
BRANCH  10  31
HETATM   31  C20 UNL     1      17.065  -7.369  41.550  1.00  0.00    -0.012 C 
HETATM   32  C21 UNL     1      18.310  -7.070  40.776  1.00  0.00     0.010 C 
HETATM   33  C22 UNL     1      16.091  -8.083  40.666  1.00  0.00     0.010 C 
ENDBRANCH  10  31
TORSDOF 11
ENDMDL
MODEL 5
REMARK VINA RESULT: -6.940353041      2.752      7.943
REMARK  11 active torsions:
REMARK  status: ('A' for Active; 'I' for Inactive)
REMARK    1  A    between atoms: C2_2  and  C3_3 
REMARK    2  A    between atoms: C3_3  and  O1_4 
REMARK    3  A    between atoms: C5_7  and  C7_9 
REMARK    4  A    between atoms: C7_9  and  C8_10 
REMARK    5  A    between atoms: C8_10  and  O2_11 
REMARK    6  A    between atoms: C8_10  and  C9_13 
REMARK    7  A    between atoms: C9_13  and  O3_14 
REMARK    8  A    between atoms: C9_13  and  C10_16 
REMARK    9  A    between atoms: C10_16  and  C11_17 
REMARK   10  A    between atoms: C17_24  and  O5_25 
REMARK   11  A    between atoms: C18_27  and  C20_29 
ROOT
HETATM    1  C3  UNL     1       6.815  -4.415  43.803  1.00  0.00     0.066 C 
HETATM    2  C4  UNL     1       7.873  -5.281  43.106  1.00  0.00     0.056 C 
HETATM    3  C5  UNL     1       8.954  -4.560  42.410  1.00  0.00     0.026 C 
HETATM    4  C6  UNL     1       8.627  -4.188  40.984  1.00  0.00     0.024 C 
HETATM    5  C14 UNL     1       9.289  -3.261  43.106  1.00  0.00     0.164 C 
HETATM    6  O4  UNL     1      10.064  -2.424  42.574  1.00  0.00    -0.292 OA
HETATM    7  C15 UNL     1       8.726  -2.972  44.379  1.00  0.00    -0.006 C 
HETATM    8  C16 UNL     1       9.340  -2.183  45.232  1.00  0.00     0.016 C 
HETATM    9  C17 UNL     1       8.770  -1.866  46.570  1.00  0.00     0.150 C 
HETATM   10  C18 UNL     1       7.286  -1.890  46.627  1.00  0.00    -0.011 C 
HETATM   11  C19 UNL     1       6.813  -2.819  47.718  1.00  0.00     0.018 C 
HETATM   12  C23 UNL     1       6.623  -2.375  45.324  1.00  0.00     0.025 C 
HETATM   13  C24 UNL     1       7.408  -3.542  44.827  1.00  0.00     0.057 C 
ENDROOT
BRANCH   3  14
HETATM   14  C7  UNL     1      10.228  -5.369  42.491  1.00  0.00     0.051 C 
BRANCH  14  15
HETATM   15  C8  UNL     1      11.217  -5.162  41.406  1.00  0.00     0.148 C 
BRANCH  15  16
HETATM   16  O2  UNL     1      11.418  -6.260  40.586  1.00  0.00    -0.393 OA
ATOM     17  H2  UNL     1      10.641  -6.782  40.422  1.00  0.00     0.210 HD
ENDBRANCH  15  16
BRANCH  15  18
HETATM   18  C9  UNL     1      12.575  -4.785  41.997  1.00  0.00     0.147 C 
BRANCH  18  19
HETATM   19  O3  UNL     1      12.752  -3.413  41.957  1.00  0.00    -0.393 OA
ATOM     20  H3  UNL     1      12.566  -3.032  42.807  1.00  0.00     0.210 HD
ENDBRANCH  18  19
BRANCH  18  21
HETATM   21  C10 UNL     1      12.901  -5.440  43.276  1.00  0.00     0.038 C 
BRANCH  21  22
HETATM   22  C11 UNL     1      13.360  -4.592  44.404  1.00  0.00    -0.020 C 
HETATM   23  C12 UNL     1      14.543  -5.139  45.146  1.00  0.00     0.009 C 
HETATM   24  C13 UNL     1      12.185  -4.549  45.404  1.00  0.00     0.009 C 
ENDBRANCH  21  22
ENDBRANCH  18  21
ENDBRANCH  15  18
ENDBRANCH  14  15
ENDBRANCH   3  14
BRANCH   1  25
HETATM   25  C2  UNL     1       5.910  -3.816  42.779  1.00  0.00     0.034 C 
HETATM   26  C1  UNL     1       4.455  -4.078  42.914  1.00  0.00     0.008 C 
ENDBRANCH   1  25
BRANCH   1  27
HETATM   27  O1  UNL     1       6.054  -5.412  44.472  1.00  0.00    -0.389 OA
ATOM     28  H1  UNL     1       6.001  -6.150  43.877  1.00  0.00     0.210 HD
ENDBRANCH   1  27
BRANCH   9  29
HETATM   29  O5  UNL     1       9.271  -0.628  46.962  1.00  0.00    -0.391 OA
ATOM     30  H5  UNL     1       8.721  -0.302  47.663  1.00  0.00     0.210 HD
ENDBRANCH   9  29
BRANCH  10  31
HETATM   31  C20 UNL     1       6.687  -0.530  46.919  1.00  0.00    -0.012 C 
HETATM   32  C21 UNL     1       6.856  -0.113  48.345  1.00  0.00     0.010 C 
HETATM   33  C22 UNL     1       5.238  -0.460  46.550  1.00  0.00     0.010 C 
ENDBRANCH  10  31
TORSDOF 11
ENDMDL
