MODEL 1
REMARK VINA RESULT: -9.011013516      0.000      0.000
REMARK  11 active torsions:
REMARK  status: ('A' for Active; 'I' for Inactive)
REMARK    1  A    between atoms: C2_2  and  C3_3 
REMARK    2  A    between atoms: C3_3  and  O1_4 
REMARK    3  A    between atoms: O1_4  and  C4_5 
REMARK    4  A    between atoms: C4_5  and  C5_6 
REMARK       I    between atoms: C5_6  and  N1_8 
REMARK    5  A    between atoms: N1_8  and  C7_10 
REMARK    6  A    between atoms: C7_10  and  C8_11 
REMARK    7  A    between atoms: C8_11  and  O4_13 
REMARK    8  A    between atoms: O4_13  and  C9_14 
REMARK    9  A    between atoms: C11_16  and  O5_17 
REMARK   10  A    between atoms: C24_32  and  O7_33 
REMARK   11  A    between atoms: C29_39  and  O9_40 
ROOT
HETATM    1  C9  UNL     1      14.775 -21.649  -5.189  1.00  0.00     0.142 C 
HETATM    2  C10 UNL     1      14.851 -20.462  -4.236  1.00  0.00     0.066 C 
HETATM    3  C11 UNL     1      15.768 -19.467  -4.980  1.00  0.00     0.133 C 
HETATM    4  C12 UNL     1      17.039 -20.064  -5.438  1.00  0.00     0.015 C 
HETATM    5  C13 UNL     1      16.926 -20.085  -6.995  1.00  0.00     0.023 C 
HETATM    6  C14 UNL     1      17.280 -21.510  -5.078  1.00  0.00     0.011 C 
HETATM    7  C15 UNL     1      18.082 -21.725  -3.845  1.00  0.00     0.007 C 
HETATM    8  C16 UNL     1      19.369 -20.903  -3.801  1.00  0.00     0.015 C 
HETATM    9  C17 UNL     1      18.999 -19.391  -3.898  1.00  0.00    -0.004 C 
HETATM   10  C18 UNL     1      18.230 -19.195  -2.629  1.00  0.00     0.021 C 
HETATM   11  C19 UNL     1      18.316 -19.330  -5.190  1.00  0.00    -0.009 C 
HETATM   12  C20 UNL     1      18.381 -18.027  -5.871  1.00  0.00     0.176 C 
HETATM   13  O6  UNL     1      17.458 -17.415  -6.443  1.00  0.00    -0.288 OA
HETATM   14  C21 UNL     1      19.716 -17.399  -5.855  1.00  0.00     0.059 C 
HETATM   15  C22 UNL     1      20.578 -17.669  -4.927  1.00  0.00    -0.050 C 
HETATM   16  C23 UNL     1      21.863 -17.022  -4.975  1.00  0.00     0.065 A 
HETATM   17  C24 UNL     1      22.182 -16.290  -6.230  1.00  0.00     0.141 A 
HETATM   18  C26 UNL     1      23.611 -16.887  -6.199  1.00  0.00     0.066 A 
HETATM   19  C27 UNL     1      23.172 -17.489  -4.857  1.00  0.00     0.142 A 
HETATM   20  O8  UNL     1      23.429 -16.588  -3.800  1.00  0.00    -0.375 OA
HETATM   21  C28 UNL     1      22.094 -16.216  -3.699  1.00  0.00     0.168 C 
HETATM   22  C29 UNL     1      21.306 -16.623  -2.537  1.00  0.00     0.149 C 
HETATM   23  C30 UNL     1      20.102 -17.471  -2.666  1.00  0.00     0.049 C 
HETATM   24  C31 UNL     1      20.226 -18.543  -3.804  1.00  0.00    -0.006 C 
HETATM   25  C32 UNL     1      21.291 -19.437  -3.243  1.00  0.00     0.021 C 
HETATM   26  C33 UNL     1      16.066 -22.382  -5.076  1.00  0.00    -0.016 C 
HETATM   27  C34 UNL     1      15.967 -23.223  -3.797  1.00  0.00     0.018 C 
HETATM   28  C35 UNL     1      16.078 -23.422  -6.208  1.00  0.00     0.018 C 
ENDROOT
BRANCH   1  29
HETATM   29  O4  UNL     1      13.711 -22.508  -4.819  1.00  0.00    -0.314 OA
BRANCH  29  30
HETATM   30  C8  UNL     1      12.955 -23.202  -5.732  1.00  0.00     0.277 C 
HETATM   31  O3  UNL     1      12.821 -24.438  -5.550  1.00  0.00    -0.263 OA
BRANCH  30  32
HETATM   32  C7  UNL     1      12.334 -22.520  -6.876  1.00  0.00     0.236 C 
BRANCH  32  33
HETATM   33  N1  UNL     1      12.841 -22.992  -8.138  1.00  0.00    -0.345 N 
HETATM   34  C5  UNL     1      12.218 -24.047  -8.863  1.00  0.00     0.243 C 
HETATM   35  O2  UNL     1      11.206 -24.574  -8.362  1.00  0.00    -0.271 OA
HETATM   36  C6  UNL     1      14.017 -22.360  -8.695  1.00  0.00     0.153 C 
BRANCH  34  37
HETATM   37  C4  UNL     1      12.782 -24.465 -10.149  1.00  0.00     0.270 C 
BRANCH  37  38
HETATM   38  O1  UNL     1      12.086 -25.372 -10.877  1.00  0.00    -0.382 OA
BRANCH  38  39
HETATM   39  C3  UNL     1      12.439 -26.681 -10.660  1.00  0.00     0.168 C 
BRANCH  39  40
HETATM   40  C2  UNL     1      12.945 -27.338 -11.937  1.00  0.00     0.022 C 
HETATM   41  C1  UNL     1      14.404 -27.719 -11.773  1.00  0.00     0.007 C 
ENDBRANCH  39  40
ENDBRANCH  38  39
ENDBRANCH  37  38
ENDBRANCH  34  37
ENDBRANCH  32  33
ENDBRANCH  30  32
ENDBRANCH  29  30
ENDBRANCH   1  29
BRANCH   3  42
HETATM   42  O5  UNL     1      15.817 -18.262  -4.306  1.00  0.00    -0.394 OA
ATOM     43  H5  UNL     1      16.336 -18.348  -3.514  1.00  0.00     0.210 HD
ENDBRANCH   3  42
BRANCH  22  44
HETATM   44  O9  UNL     1      22.189 -17.054  -1.511  1.00  0.00    -0.393 OA
ATOM     45  H9  UNL     1      22.151 -18.001  -1.450  1.00  0.00     0.210 HD
ENDBRANCH  22  44
BRANCH  17  46
HETATM   46  O7  UNL     1      22.336 -14.909  -6.112  1.00  0.00    -0.389 OA
HETATM   47  C25 UNL     1      23.557 -14.566  -6.675  1.00  0.00     0.202 C 
ENDBRANCH  17  46
TORSDOF 11
ENDMDL
MODEL 2
REMARK VINA RESULT: -8.917298786      1.795      2.267
REMARK  11 active torsions:
REMARK  status: ('A' for Active; 'I' for Inactive)
REMARK    1  A    between atoms: C2_2  and  C3_3 
REMARK    2  A    between atoms: C3_3  and  O1_4 
REMARK    3  A    between atoms: O1_4  and  C4_5 
REMARK    4  A    between atoms: C4_5  and  C5_6 
REMARK       I    between atoms: C5_6  and  N1_8 
REMARK    5  A    between atoms: N1_8  and  C7_10 
REMARK    6  A    between atoms: C7_10  and  C8_11 
REMARK    7  A    between atoms: C8_11  and  O4_13 
REMARK    8  A    between atoms: O4_13  and  C9_14 
REMARK    9  A    between atoms: C11_16  and  O5_17 
REMARK   10  A    between atoms: C24_32  and  O7_33 
REMARK   11  A    between atoms: C29_39  and  O9_40 
ROOT
HETATM    1  C9  UNL     1      14.712 -21.979  -4.648  1.00  0.00     0.142 C 
HETATM    2  C10 UNL     1      14.840 -20.650  -3.914  1.00  0.00     0.066 C 
HETATM    3  C11 UNL     1      15.608 -19.762  -4.918  1.00  0.00     0.133 C 
HETATM    4  C12 UNL     1      16.844 -20.385  -5.433  1.00  0.00     0.015 C 
HETATM    5  C13 UNL     1      16.546 -20.666  -6.939  1.00  0.00     0.023 C 
HETATM    6  C14 UNL     1      17.202 -21.744  -4.880  1.00  0.00     0.011 C 
HETATM    7  C15 UNL     1      18.157 -21.727  -3.741  1.00  0.00     0.007 C 
HETATM    8  C16 UNL     1      19.395 -20.867  -3.992  1.00  0.00     0.015 C 
HETATM    9  C17 UNL     1      18.937 -19.405  -4.282  1.00  0.00    -0.004 C 
HETATM   10  C18 UNL     1      18.317 -19.027  -2.973  1.00  0.00     0.021 C 
HETATM   11  C19 UNL     1      18.102 -19.579  -5.470  1.00  0.00    -0.009 C 
HETATM   12  C20 UNL     1      18.015 -18.405  -6.352  1.00  0.00     0.176 C 
HETATM   13  O6  UNL     1      17.000 -17.926  -6.892  1.00  0.00    -0.288 OA
HETATM   14  C21 UNL     1      19.308 -17.741  -6.607  1.00  0.00     0.059 C 
HETATM   15  C22 UNL     1      20.288 -17.827  -5.765  1.00  0.00    -0.050 C 
HETATM   16  C23 UNL     1      21.523 -17.155  -6.079  1.00  0.00     0.065 A 
HETATM   17  C24 UNL     1      21.649 -16.631  -7.465  1.00  0.00     0.141 A 
HETATM   18  C26 UNL     1      23.101 -17.168  -7.521  1.00  0.00     0.066 A 
HETATM   19  C27 UNL     1      22.859 -17.555  -6.055  1.00  0.00     0.142 A 
HETATM   20  O8  UNL     1      23.194 -16.484  -5.197  1.00  0.00    -0.375 OA
HETATM   21  C28 UNL     1      21.863 -16.143  -4.988  1.00  0.00     0.168 C 
HETATM   22  C29 UNL     1      21.243 -16.378  -3.685  1.00  0.00     0.149 C 
HETATM   23  C30 UNL     1      20.078 -17.273  -3.522  1.00  0.00     0.049 C 
HETATM   24  C31 UNL     1      20.121 -18.514  -4.481  1.00  0.00    -0.006 C 
HETATM   25  C32 UNL     1      21.291 -19.269  -3.925  1.00  0.00     0.021 C 
HETATM   26  C33 UNL     1      16.045 -22.642  -4.585  1.00  0.00    -0.016 C 
HETATM   27  C34 UNL     1      16.144 -23.263  -3.186  1.00  0.00     0.018 C 
HETATM   28  C35 UNL     1      15.975 -23.854  -5.528  1.00  0.00     0.018 C 
ENDROOT
BRANCH   1  29
HETATM   29  O4  UNL     1      13.747 -22.799  -4.013  1.00  0.00    -0.314 OA
BRANCH  29  30
HETATM   30  C8  UNL     1      12.786 -23.496  -4.703  1.00  0.00     0.277 C 
HETATM   31  O3  UNL     1      12.698 -24.730  -4.483  1.00  0.00    -0.263 OA
BRANCH  30  32
HETATM   32  C7  UNL     1      11.900 -22.819  -5.661  1.00  0.00     0.236 C 
BRANCH  32  33
HETATM   33  N1  UNL     1      12.207 -23.158  -7.026  1.00  0.00    -0.345 N 
HETATM   34  C5  UNL     1      12.831 -22.241  -7.917  1.00  0.00     0.243 C 
HETATM   35  O2  UNL     1      13.102 -21.105  -7.481  1.00  0.00    -0.271 OA
HETATM   36  C6  UNL     1      11.881 -24.485  -7.503  1.00  0.00     0.153 C 
BRANCH  34  37
HETATM   37  C4  UNL     1      13.127 -22.661  -9.289  1.00  0.00     0.270 C 
BRANCH  37  38
HETATM   38  O1  UNL     1      14.372 -23.127  -9.551  1.00  0.00    -0.382 OA
BRANCH  38  39
HETATM   39  C3  UNL     1      15.304 -22.159  -9.837  1.00  0.00     0.168 C 
BRANCH  39  40
HETATM   40  C2  UNL     1      14.690 -21.015 -10.630  1.00  0.00     0.022 C 
HETATM   41  C1  UNL     1      15.315 -19.701 -10.201  1.00  0.00     0.007 C 
ENDBRANCH  39  40
ENDBRANCH  38  39
ENDBRANCH  37  38
ENDBRANCH  34  37
ENDBRANCH  32  33
ENDBRANCH  30  32
ENDBRANCH  29  30
ENDBRANCH   1  29
BRANCH   3  42
HETATM   42  O5  UNL     1      15.675 -18.462  -4.457  1.00  0.00    -0.394 OA
ATOM     43  H5  UNL     1      14.804 -18.085  -4.405  1.00  0.00     0.210 HD
ENDBRANCH   3  42
BRANCH  22  44
HETATM   44  O9  UNL     1      22.264 -16.605  -2.724  1.00  0.00    -0.393 OA
ATOM     45  H9  UNL     1      21.865 -16.904  -1.916  1.00  0.00     0.210 HD
ENDBRANCH  22  44
BRANCH  17  46
HETATM   46  O7  UNL     1      21.744 -15.245  -7.589  1.00  0.00    -0.389 OA
HETATM   47  C25 UNL     1      20.626 -14.801  -8.281  1.00  0.00     0.202 C 
ENDBRANCH  17  46
TORSDOF 11
ENDMDL
MODEL 3
REMARK VINA RESULT: -8.913187336      2.126      2.510
REMARK  11 active torsions:
REMARK  status: ('A' for Active; 'I' for Inactive)
REMARK    1  A    between atoms: C2_2  and  C3_3 
REMARK    2  A    between atoms: C3_3  and  O1_4 
REMARK    3  A    between atoms: O1_4  and  C4_5 
REMARK    4  A    between atoms: C4_5  and  C5_6 
REMARK       I    between atoms: C5_6  and  N1_8 
REMARK    5  A    between atoms: N1_8  and  C7_10 
REMARK    6  A    between atoms: C7_10  and  C8_11 
REMARK    7  A    between atoms: C8_11  and  O4_13 
REMARK    8  A    between atoms: O4_13  and  C9_14 
REMARK    9  A    between atoms: C11_16  and  O5_17 
REMARK   10  A    between atoms: C24_32  and  O7_33 
REMARK   11  A    between atoms: C29_39  and  O9_40 
ROOT
HETATM    1  C9  UNL     1      14.835 -21.677  -5.008  1.00  0.00     0.142 C 
HETATM    2  C10 UNL     1      14.924 -20.476  -4.073  1.00  0.00     0.066 C 
HETATM    3  C11 UNL     1      15.817 -19.485  -4.851  1.00  0.00     0.133 C 
HETATM    4  C12 UNL     1      17.082 -20.079  -5.328  1.00  0.00     0.015 C 
HETATM    5  C13 UNL     1      16.935 -20.121  -6.882  1.00  0.00     0.023 C 
HETATM    6  C14 UNL     1      17.342 -21.518  -4.954  1.00  0.00     0.011 C 
HETATM    7  C15 UNL     1      18.172 -21.710  -3.737  1.00  0.00     0.007 C 
HETATM    8  C16 UNL     1      19.453 -20.878  -3.731  1.00  0.00     0.015 C 
HETATM    9  C17 UNL     1      19.070 -19.371  -3.841  1.00  0.00    -0.004 C 
HETATM   10  C18 UNL     1      18.327 -19.163  -2.558  1.00  0.00     0.021 C 
HETATM   11  C19 UNL     1      18.359 -19.332  -5.119  1.00  0.00    -0.009 C 
HETATM   12  C20 UNL     1      18.398 -18.038  -5.818  1.00  0.00     0.176 C 
HETATM   13  O6  UNL     1      17.459 -17.441  -6.378  1.00  0.00    -0.288 OA
HETATM   14  C21 UNL     1      19.728 -17.400  -5.840  1.00  0.00     0.059 C 
HETATM   15  C22 UNL     1      20.613 -17.652  -4.928  1.00  0.00    -0.050 C 
HETATM   16  C23 UNL     1      21.892 -16.996  -5.013  1.00  0.00     0.065 A 
HETATM   17  C24 UNL     1      22.177 -16.279  -6.284  1.00  0.00     0.141 A 
HETATM   18  C26 UNL     1      23.611 -16.865  -6.277  1.00  0.00     0.066 A 
HETATM   19  C27 UNL     1      23.206 -17.452  -4.917  1.00  0.00     0.142 A 
HETATM   20  O8  UNL     1      23.480 -16.535  -3.878  1.00  0.00    -0.375 OA
HETATM   21  C28 UNL     1      22.145 -16.171  -3.753  1.00  0.00     0.168 C 
HETATM   22  C29 UNL     1      21.385 -16.568  -2.569  1.00  0.00     0.149 C 
HETATM   23  C30 UNL     1      20.185 -17.426  -2.659  1.00  0.00     0.049 C 
HETATM   24  C31 UNL     1      20.293 -18.513  -3.785  1.00  0.00    -0.006 C 
HETATM   25  C32 UNL     1      21.376 -19.391  -3.236  1.00  0.00     0.021 C 
HETATM   26  C33 UNL     1      16.135 -22.399  -4.914  1.00  0.00    -0.016 C 
HETATM   27  C34 UNL     1      16.070 -23.223  -3.621  1.00  0.00     0.018 C 
HETATM   28  C35 UNL     1      16.130 -23.454  -6.031  1.00  0.00     0.018 C 
ENDROOT
BRANCH   1  29
HETATM   29  O4  UNL     1      13.786 -22.538  -4.603  1.00  0.00    -0.314 OA
BRANCH  29  30
HETATM   30  C8  UNL     1      12.866 -23.061  -5.478  1.00  0.00     0.277 C 
HETATM   31  O3  UNL     1      13.009 -22.790  -6.697  1.00  0.00    -0.263 OA
BRANCH  30  32
HETATM   32  C7  UNL     1      11.758 -23.901  -5.000  1.00  0.00     0.236 C 
BRANCH  32  33
HETATM   33  N1  UNL     1      12.071 -25.305  -5.051  1.00  0.00    -0.345 N 
HETATM   34  C5  UNL     1      11.523 -26.173  -6.036  1.00  0.00     0.243 C 
HETATM   35  O2  UNL     1      10.737 -25.680  -6.868  1.00  0.00    -0.271 OA
HETATM   36  C6  UNL     1      12.989 -25.847  -4.073  1.00  0.00     0.153 C 
BRANCH  34  37
HETATM   37  C4  UNL     1      11.899 -27.589  -6.035  1.00  0.00     0.270 C 
BRANCH  37  38
HETATM   38  O1  UNL     1      11.502 -28.348  -7.085  1.00  0.00    -0.382 OA
BRANCH  38  39
HETATM   39  C3  UNL     1      10.982 -29.574  -6.749  1.00  0.00     0.168 C 
BRANCH  39  40
HETATM   40  C2  UNL     1       9.769 -29.431  -5.841  1.00  0.00     0.022 C 
HETATM   41  C1  UNL     1       9.783 -30.527  -4.791  1.00  0.00     0.007 C 
ENDBRANCH  39  40
ENDBRANCH  38  39
ENDBRANCH  37  38
ENDBRANCH  34  37
ENDBRANCH  32  33
ENDBRANCH  30  32
ENDBRANCH  29  30
ENDBRANCH   1  29
BRANCH   3  42
HETATM   42  O5  UNL     1      15.871 -18.271  -4.194  1.00  0.00    -0.394 OA
ATOM     43  H5  UNL     1      16.003 -17.565  -4.816  1.00  0.00     0.210 HD
ENDBRANCH   3  42
BRANCH  22  44
HETATM   44  O9  UNL     1      22.294 -16.978  -1.557  1.00  0.00    -0.393 OA
ATOM     45  H9  UNL     1      22.538 -16.220  -1.038  1.00  0.00     0.210 HD
ENDBRANCH  22  44
BRANCH  17  46
HETATM   46  O7  UNL     1      22.323 -14.896  -6.188  1.00  0.00    -0.389 OA
HETATM   47  C25 UNL     1      23.546 -14.555  -6.751  1.00  0.00     0.202 C 
ENDBRANCH  17  46
TORSDOF 11
ENDMDL
MODEL 4
REMARK VINA RESULT: -8.718374865      2.349      2.940
REMARK  11 active torsions:
REMARK  status: ('A' for Active; 'I' for Inactive)
REMARK    1  A    between atoms: C2_2  and  C3_3 
REMARK    2  A    between atoms: C3_3  and  O1_4 
REMARK    3  A    between atoms: O1_4  and  C4_5 
REMARK    4  A    between atoms: C4_5  and  C5_6 
REMARK       I    between atoms: C5_6  and  N1_8 
REMARK    5  A    between atoms: N1_8  and  C7_10 
REMARK    6  A    between atoms: C7_10  and  C8_11 
REMARK    7  A    between atoms: C8_11  and  O4_13 
REMARK    8  A    between atoms: O4_13  and  C9_14 
REMARK    9  A    between atoms: C11_16  and  O5_17 
REMARK   10  A    between atoms: C24_32  and  O7_33 
REMARK   11  A    between atoms: C29_39  and  O9_40 
ROOT
HETATM    1  C9  UNL     1      14.777 -21.701  -4.887  1.00  0.00     0.142 C 
HETATM    2  C10 UNL     1      14.884 -20.444  -4.031  1.00  0.00     0.066 C 
HETATM    3  C11 UNL     1      15.784 -19.515  -4.875  1.00  0.00     0.133 C 
HETATM    4  C12 UNL     1      17.040 -20.152  -5.320  1.00  0.00     0.015 C 
HETATM    5  C13 UNL     1      16.883 -20.293  -6.867  1.00  0.00     0.023 C 
HETATM    6  C14 UNL     1      17.286 -21.568  -4.856  1.00  0.00     0.011 C 
HETATM    7  C15 UNL     1      18.121 -21.691  -3.632  1.00  0.00     0.007 C 
HETATM    8  C16 UNL     1      19.411 -20.874  -3.687  1.00  0.00     0.015 C 
HETATM    9  C17 UNL     1      19.044 -19.373  -3.892  1.00  0.00    -0.004 C 
HETATM   10  C18 UNL     1      18.310 -19.074  -2.621  1.00  0.00     0.021 C 
HETATM   11  C19 UNL     1      18.326 -19.408  -5.165  1.00  0.00    -0.009 C 
HETATM   12  C20 UNL     1      18.375 -18.162  -5.946  1.00  0.00     0.176 C 
HETATM   13  O6  UNL     1      17.440 -17.592  -6.539  1.00  0.00    -0.288 OA
HETATM   14  C21 UNL     1      19.712 -17.543  -6.016  1.00  0.00     0.059 C 
HETATM   15  C22 UNL     1      20.599 -17.745  -5.094  1.00  0.00    -0.050 C 
HETATM   16  C23 UNL     1      21.885 -17.110  -5.228  1.00  0.00     0.065 A 
HETATM   17  C24 UNL     1      22.171 -16.480  -6.544  1.00  0.00     0.141 A 
HETATM   18  C26 UNL     1      23.599 -17.081  -6.506  1.00  0.00     0.066 A 
HETATM   19  C27 UNL     1      23.195 -17.574  -5.109  1.00  0.00     0.142 A 
HETATM   20  O8  UNL     1      23.484 -16.595  -4.133  1.00  0.00    -0.375 OA
HETATM   21  C28 UNL     1      22.154 -16.209  -4.025  1.00  0.00     0.168 C 
HETATM   22  C29 UNL     1      21.397 -16.520  -2.814  1.00  0.00     0.149 C 
HETATM   23  C30 UNL     1      20.187 -17.369  -2.843  1.00  0.00     0.049 C 
HETATM   24  C31 UNL     1      20.276 -18.527  -3.897  1.00  0.00    -0.006 C 
HETATM   25  C32 UNL     1      21.353 -19.380  -3.297  1.00  0.00     0.021 C 
HETATM   26  C33 UNL     1      16.069 -22.430  -4.752  1.00  0.00    -0.016 C 
HETATM   27  C34 UNL     1      16.003 -23.168  -3.409  1.00  0.00     0.018 C 
HETATM   28  C35 UNL     1      16.046 -23.555  -5.800  1.00  0.00     0.018 C 
ENDROOT
BRANCH   1  29
HETATM   29  O4  UNL     1      13.721 -22.523  -4.421  1.00  0.00    -0.314 OA
BRANCH  29  30
HETATM   30  C8  UNL     1      12.987 -23.337  -5.247  1.00  0.00     0.277 C 
HETATM   31  O3  UNL     1      12.205 -22.783  -6.060  1.00  0.00    -0.263 OA
BRANCH  30  32
HETATM   32  C7  UNL     1      13.112 -24.800  -5.176  1.00  0.00     0.236 C 
BRANCH  32  33
HETATM   33  N1  UNL     1      12.050 -25.406  -4.417  1.00  0.00    -0.345 N 
HETATM   34  C5  UNL     1      11.124 -26.319  -4.996  1.00  0.00     0.243 C 
HETATM   35  O2  UNL     1      11.250 -26.579  -6.208  1.00  0.00    -0.271 OA
HETATM   36  C6  UNL     1      11.929 -25.085  -3.012  1.00  0.00     0.153 C 
BRANCH  34  37
HETATM   37  C4  UNL     1      10.077 -26.909  -4.158  1.00  0.00     0.270 C 
BRANCH  37  38
HETATM   38  O1  UNL     1      10.132 -28.242  -3.925  1.00  0.00    -0.382 OA
BRANCH  38  39
HETATM   39  C3  UNL     1       9.243 -28.995  -4.653  1.00  0.00     0.168 C 
BRANCH  39  40
HETATM   40  C2  UNL     1       9.868 -30.305  -5.106  1.00  0.00     0.022 C 
HETATM   41  C1  UNL     1      10.667 -30.079  -6.377  1.00  0.00     0.007 C 
ENDBRANCH  39  40
ENDBRANCH  38  39
ENDBRANCH  37  38
ENDBRANCH  34  37
ENDBRANCH  32  33
ENDBRANCH  30  32
ENDBRANCH  29  30
ENDBRANCH   1  29
BRANCH   3  42
HETATM   42  O5  UNL     1      15.856 -18.261  -4.298  1.00  0.00    -0.394 OA
ATOM     43  H5  UNL     1      16.635 -17.805  -4.595  1.00  0.00     0.210 HD
ENDBRANCH   3  42
BRANCH  22  44
HETATM   44  O9  UNL     1      22.307 -16.875  -1.782  1.00  0.00    -0.393 OA
ATOM     45  H9  UNL     1      23.140 -17.107  -2.174  1.00  0.00     0.210 HD
ENDBRANCH  22  44
BRANCH  17  46
HETATM   46  O7  UNL     1      22.333 -15.095  -6.538  1.00  0.00    -0.389 OA
HETATM   47  C25 UNL     1      21.430 -14.555  -7.443  1.00  0.00     0.202 C 
ENDBRANCH  17  46
TORSDOF 11
ENDMDL
MODEL 5
REMARK VINA RESULT: -8.571018423      2.884     10.818
REMARK  11 active torsions:
REMARK  status: ('A' for Active; 'I' for Inactive)
REMARK    1  A    between atoms: C2_2  and  C3_3 
REMARK    2  A    between atoms: C3_3  and  O1_4 
REMARK    3  A    between atoms: O1_4  and  C4_5 
REMARK    4  A    between atoms: C4_5  and  C5_6 
REMARK       I    between atoms: C5_6  and  N1_8 
REMARK    5  A    between atoms: N1_8  and  C7_10 
REMARK    6  A    between atoms: C7_10  and  C8_11 
REMARK    7  A    between atoms: C8_11  and  O4_13 
REMARK    8  A    between atoms: O4_13  and  C9_14 
REMARK    9  A    between atoms: C11_16  and  O5_17 
REMARK   10  A    between atoms: C24_32  and  O7_33 
REMARK   11  A    between atoms: C29_39  and  O9_40 
ROOT
HETATM    1  C9  UNL     1      18.864 -18.244  -5.228  1.00  0.00     0.142 C 
HETATM    2  C10 UNL     1      17.419 -17.794  -5.410  1.00  0.00     0.066 C 
HETATM    3  C11 UNL     1      16.613 -18.877  -4.659  1.00  0.00     0.133 C 
HETATM    4  C12 UNL     1      16.959 -20.255  -5.059  1.00  0.00     0.015 C 
HETATM    5  C13 UNL     1      17.662 -20.864  -3.805  1.00  0.00     0.023 C 
HETATM    6  C14 UNL     1      17.988 -20.408  -6.154  1.00  0.00     0.011 C 
HETATM    7  C15 UNL     1      17.429 -20.574  -7.521  1.00  0.00     0.007 C 
HETATM    8  C16 UNL     1      16.336 -21.639  -7.611  1.00  0.00     0.015 C 
HETATM    9  C17 UNL     1      15.178 -21.248  -6.643  1.00  0.00    -0.004 C 
HETATM   10  C18 UNL     1      14.695 -19.973  -7.262  1.00  0.00     0.021 C 
HETATM   11  C19 UNL     1      15.860 -21.225  -5.349  1.00  0.00    -0.009 C 
HETATM   12  C20 UNL     1      15.003 -21.499  -4.185  1.00  0.00     0.176 C 
HETATM   13  O6  UNL     1      14.977 -20.897  -3.095  1.00  0.00    -0.288 OA
HETATM   14  C21 UNL     1      14.077 -22.632  -4.367  1.00  0.00     0.059 C 
HETATM   15  C22 UNL     1      13.677 -22.995  -5.544  1.00  0.00    -0.050 C 
HETATM   16  C23 UNL     1      12.774 -24.112  -5.647  1.00  0.00     0.065 A 
HETATM   17  C24 UNL     1      12.579 -24.914  -4.410  1.00  0.00     0.141 A 
HETATM   18  C26 UNL     1      12.676 -26.211  -5.252  1.00  0.00     0.066 A 
HETATM   19  C27 UNL     1      12.757 -25.254  -6.449  1.00  0.00     0.142 A 
HETATM   20  O8  UNL     1      11.463 -24.937  -6.921  1.00  0.00    -0.375 OA
HETATM   21  C28 UNL     1      11.479 -23.680  -6.330  1.00  0.00     0.168 C 
HETATM   22  C29 UNL     1      11.566 -22.481  -7.161  1.00  0.00     0.149 C 
HETATM   23  C30 UNL     1      12.692 -21.531  -7.049  1.00  0.00     0.049 C 
HETATM   24  C31 UNL     1      14.059 -22.234  -6.737  1.00  0.00    -0.006 C 
HETATM   25  C32 UNL     1      14.293 -22.987  -8.012  1.00  0.00     0.021 C 
HETATM   26  C33 UNL     1      19.083 -19.391  -6.153  1.00  0.00    -0.016 C 
HETATM   27  C34 UNL     1      19.300 -18.780  -7.543  1.00  0.00     0.018 C 
HETATM   28  C35 UNL     1      20.451 -19.990  -5.789  1.00  0.00     0.018 C 
ENDROOT
BRANCH   1  29
HETATM   29  O4  UNL     1      19.751 -17.191  -5.564  1.00  0.00    -0.314 OA
BRANCH  29  30
HETATM   30  C8  UNL     1      20.726 -16.733  -4.713  1.00  0.00     0.277 C 
HETATM   31  O3  UNL     1      21.035 -17.466  -3.740  1.00  0.00    -0.263 OA
BRANCH  30  32
HETATM   32  C7  UNL     1      21.376 -15.434  -4.934  1.00  0.00     0.236 C 
BRANCH  32  33
HETATM   33  N1  UNL     1      22.280 -15.455  -6.054  1.00  0.00    -0.345 N 
HETATM   34  C5  UNL     1      23.659 -15.779  -5.916  1.00  0.00     0.243 C 
HETATM   35  O2  UNL     1      24.079 -16.038  -4.772  1.00  0.00    -0.271 OA
HETATM   36  C6  UNL     1      21.762 -15.151  -7.370  1.00  0.00     0.153 C 
BRANCH  34  37
HETATM   37  C4  UNL     1      24.516 -15.795  -7.104  1.00  0.00     0.270 C 
BRANCH  37  38
HETATM   38  O1  UNL     1      25.508 -16.717  -7.153  1.00  0.00    -0.382 OA
BRANCH  38  39
HETATM   39  C3  UNL     1      26.780 -16.200  -7.107  1.00  0.00     0.168 C 
BRANCH  39  40
HETATM   40  C2  UNL     1      27.801 -17.272  -6.755  1.00  0.00     0.022 C 
HETATM   41  C1  UNL     1      27.337 -18.038  -5.530  1.00  0.00     0.007 C 
ENDBRANCH  39  40
ENDBRANCH  38  39
ENDBRANCH  37  38
ENDBRANCH  34  37
ENDBRANCH  32  33
ENDBRANCH  30  32
ENDBRANCH  29  30
ENDBRANCH   1  29
BRANCH   3  42
HETATM   42  O5  UNL     1      15.277 -18.528  -4.603  1.00  0.00    -0.394 OA
ATOM     43  H5  UNL     1      14.795 -18.953  -5.304  1.00  0.00     0.210 HD
ENDBRANCH   3  42
BRANCH  22  44
HETATM   44  O9  UNL     1      11.257 -22.829  -8.504  1.00  0.00    -0.393 OA
ATOM     45  H9  UNL     1      12.049 -22.776  -9.025  1.00  0.00     0.210 HD
ENDBRANCH  22  44
BRANCH  17  46
HETATM   46  O7  UNL     1      11.295 -24.899  -3.867  1.00  0.00    -0.389 OA
HETATM   47  C25 UNL     1      11.122 -26.074  -3.147  1.00  0.00     0.202 C 
ENDBRANCH  17  46
TORSDOF 11
ENDMDL
