MODEL 1
REMARK VINA RESULT: -7.413928936      0.000      0.000
REMARK  9 active torsions:
REMARK  status: ('A' for Active; 'I' for Inactive)
REMARK    1  A    between atoms: O1_2  and  C2_3 
REMARK    2  A    between atoms: N1_7  and  O4_8 
REMARK    3  A    between atoms: C4_10  and  C5_11 
REMARK    4  A    between atoms: C6_14  and  C7_15 
REMARK    5  A    between atoms: C7_15  and  C8_16 
REMARK    6  A    between atoms: C8_16  and  N3_17 
REMARK    7  A    between atoms: N4_21  and  N5_22 
REMARK    8  A    between atoms: N5_22  and  C9_24 
REMARK    9  A    between atoms: C11_32  and  N9_33 
ROOT
HETATM    1  C5  UNL     1     -38.011   5.452   0.707  1.00  0.00     0.158 A 
HETATM    2  N2  UNL     1     -37.209   4.753  -0.156  1.00  0.00    -0.326 N 
ATOM      3  H2  UNL     1     -36.959   5.053  -1.098  1.00  0.00     0.169 HD
HETATM    4  C6  UNL     1     -36.801   3.612   0.424  1.00  0.00     0.125 A 
HETATM    5  N4  UNL     1     -37.333   3.568   1.658  1.00  0.00    -0.181 N 
HETATM    6  N11 UNL     1     -38.051   4.680   1.801  1.00  0.00    -0.261 N 
ATOM      7  H11 UNL     1     -38.573   4.916   2.645  1.00  0.00     0.191 HD
ENDROOT
BRANCH   5   8
HETATM    8  N5  UNL     1     -37.160   2.548   2.609  1.00  0.00    -0.258 N 
ATOM      9  H5  UNL     1     -37.695   1.684   2.525  1.00  0.00     0.191 HD
BRANCH   8  10
HETATM   10  C9  UNL     1     -36.259   2.706   3.673  1.00  0.00     0.188 A 
HETATM   11  N6  UNL     1     -34.931   2.495   3.460  1.00  0.00    -0.280 N 
HETATM   12  N7  UNL     1     -34.051   2.632   4.419  1.00  0.00    -0.282 N 
ATOM     13  H6  UNL     1     -34.614   2.224   2.529  1.00  0.00     0.189 HD
HETATM   14  C10 UNL     1     -34.410   2.987   5.664  1.00  0.00     0.155 A 
ATOM     15  H7  UNL     1     -33.066   2.464   4.216  1.00  0.00     0.188 HD
HETATM   16  N8  UNL     1     -33.505   3.124   6.637  1.00  0.00    -0.174 N 
HETATM   17  C13 UNL     1     -35.762   3.217   5.945  1.00  0.00     0.132 A 
HETATM   18  C11 UNL     1     -33.920   3.484   7.873  1.00  0.00     0.680 A 
ATOM     19  H8  UNL     1     -32.515   2.960   6.450  1.00  0.00     0.186 HD
HETATM   20  N10 UNL     1     -35.210   3.710   8.169  1.00  0.00    -0.155 N 
HETATM   21  C12 UNL     1     -36.147   3.583   7.218  1.00  0.00     0.277 A 
ATOM     22  H10 UNL     1     -35.477   3.979   9.116  1.00  0.00     0.187 HD
HETATM   23  O5  UNL     1     -37.355   3.794   7.492  1.00  0.00    -0.266 OA
HETATM   24  C14 UNL     1     -36.667   3.070   4.932  1.00  0.00     0.237 A 
HETATM   25  O6  UNL     1     -37.876   3.264   5.139  1.00  0.00    -0.283 OA
BRANCH  18  26
HETATM   26  N9  UNL     1     -33.037   3.616   8.811  1.00  0.00    -0.234 N 
ATOM     27  H92 UNL     1     -32.204   4.173   8.622  1.00  0.00     0.174 HD
ATOM     28  H91 UNL     1     -33.203   3.158   9.707  1.00  0.00     0.174 HD
ENDBRANCH  18  26
ENDBRANCH   8  10
ENDBRANCH   5   8
BRANCH   4  29
HETATM   29  C7  UNL     1     -35.917   2.579  -0.175  1.00  0.00     0.107 C 
BRANCH  29  30
HETATM   30  C8  UNL     1     -35.678   2.836  -1.647  1.00  0.00     0.237 C 
BRANCH  30  31
HETATM   31  N3  UNL     1     -34.454   3.535  -1.909  1.00  0.00    -0.079 N 
ATOM     32  H33 UNL     1     -33.947   3.716  -1.043  1.00  0.00     0.274 HD
ATOM     33  H32 UNL     1     -33.780   2.925  -2.373  1.00  0.00     0.274 HD
ATOM     34  H31 UNL     1     -34.586   4.397  -2.438  1.00  0.00     0.274 HD
ENDBRANCH  30  31
ENDBRANCH  29  30
ENDBRANCH   4  29
BRANCH   1  35
HETATM   35  C4  UNL     1     -38.646   6.736   0.423  1.00  0.00     0.172 A 
HETATM   36  C2  UNL     1     -39.868   7.203   0.811  1.00  0.00     0.223 A 
HETATM   37  O2  UNL     1     -40.021   8.413   0.301  1.00  0.00    -0.233 OA
HETATM   38  C3  UNL     1     -38.970   8.762  -0.397  1.00  0.00     0.399 A 
HETATM   39  O3  UNL     1     -38.794   9.867  -1.020  1.00  0.00    -0.235 OA
HETATM   40  N1  UNL     1     -38.117   7.726  -0.323  1.00  0.00    -0.158 N 
BRANCH  36  41
HETATM   41  O1  UNL     1     -40.798   6.546   1.597  1.00  0.00    -0.333 OA
HETATM   42  C1  UNL     1     -42.129   7.012   1.593  1.00  0.00     0.212 C 
ENDBRANCH  36  41
BRANCH  40  43
HETATM   43  O4  UNL     1     -36.867   7.679  -0.927  1.00  0.00    -0.278 OA
ATOM     44  H4  UNL     1     -36.123   7.183  -0.604  1.00  0.00     0.245 HD
ENDBRANCH  40  43
ENDBRANCH   1  35
TORSDOF 9
ENDMDL
MODEL 2
REMARK VINA RESULT: -7.386646434      1.386      1.735
REMARK  9 active torsions:
REMARK  status: ('A' for Active; 'I' for Inactive)
REMARK    1  A    between atoms: O1_2  and  C2_3 
REMARK    2  A    between atoms: N1_7  and  O4_8 
REMARK    3  A    between atoms: C4_10  and  C5_11 
REMARK    4  A    between atoms: C6_14  and  C7_15 
REMARK    5  A    between atoms: C7_15  and  C8_16 
REMARK    6  A    between atoms: C8_16  and  N3_17 
REMARK    7  A    between atoms: N4_21  and  N5_22 
REMARK    8  A    between atoms: N5_22  and  C9_24 
REMARK    9  A    between atoms: C11_32  and  N9_33 
ROOT
HETATM    1  C5  UNL     1     -38.165   5.561   0.681  1.00  0.00     0.158 A 
HETATM    2  N2  UNL     1     -37.288   4.882  -0.123  1.00  0.00    -0.326 N 
ATOM      3  H2  UNL     1     -36.983   5.187  -1.047  1.00  0.00     0.169 HD
HETATM    4  C6  UNL     1     -36.889   3.754   0.488  1.00  0.00     0.125 A 
HETATM    5  N4  UNL     1     -37.502   3.698   1.684  1.00  0.00    -0.181 N 
HETATM    6  N11 UNL     1     -38.259   4.790   1.773  1.00  0.00    -0.261 N 
ATOM      7  H11 UNL     1     -38.843   5.014   2.578  1.00  0.00     0.191 HD
ENDROOT
BRANCH   5   8
HETATM    8  N5  UNL     1     -37.367   2.686   2.648  1.00  0.00    -0.258 N 
ATOM      9  H5  UNL     1     -37.649   1.732   2.422  1.00  0.00     0.191 HD
BRANCH   8  10
HETATM   10  C9  UNL     1     -36.847   2.972   3.919  1.00  0.00     0.188 A 
HETATM   11  N6  UNL     1     -37.668   3.489   4.875  1.00  0.00    -0.280 N 
HETATM   12  N7  UNL     1     -37.230   3.771   6.076  1.00  0.00    -0.282 N 
ATOM     13  H6  UNL     1     -38.647   3.661   4.649  1.00  0.00     0.189 HD
HETATM   14  C10 UNL     1     -35.952   3.565   6.431  1.00  0.00     0.155 A 
ATOM     15  H7  UNL     1     -37.879   4.157   6.762  1.00  0.00     0.188 HD
HETATM   16  N8  UNL     1     -35.515   3.856   7.659  1.00  0.00    -0.174 N 
HETATM   17  C13 UNL     1     -35.059   3.036   5.492  1.00  0.00     0.132 A 
HETATM   18  C11 UNL     1     -34.216   3.629   7.965  1.00  0.00     0.680 A 
ATOM     19  H8  UNL     1     -36.150   4.243   8.357  1.00  0.00     0.186 HD
HETATM   20  N10 UNL     1     -33.340   3.123   7.082  1.00  0.00    -0.155 N 
HETATM   21  C12 UNL     1     -33.742   2.819   5.840  1.00  0.00     0.277 A 
ATOM     22  H10 UNL     1     -32.370   2.969   7.356  1.00  0.00     0.187 HD
HETATM   23  O5  UNL     1     -32.925   2.345   5.012  1.00  0.00    -0.266 OA
HETATM   24  C14 UNL     1     -35.532   2.748   4.242  1.00  0.00     0.237 A 
HETATM   25  O6  UNL     1     -34.773   2.277   3.379  1.00  0.00    -0.283 OA
BRANCH  18  26
HETATM   26  N9  UNL     1     -33.800   3.912   9.158  1.00  0.00    -0.234 N 
ATOM     27  H92 UNL     1     -34.377   4.513   9.746  1.00  0.00     0.174 HD
ATOM     28  H91 UNL     1     -32.909   3.526   9.469  1.00  0.00     0.174 HD
ENDBRANCH  18  26
ENDBRANCH   8  10
ENDBRANCH   5   8
BRANCH   4  29
HETATM   29  C7  UNL     1     -35.938   2.745  -0.046  1.00  0.00     0.107 C 
BRANCH  29  30
HETATM   30  C8  UNL     1     -35.761   2.883  -1.541  1.00  0.00     0.237 C 
BRANCH  30  31
HETATM   31  N3  UNL     1     -34.530   3.518  -1.910  1.00  0.00    -0.079 N 
ATOM     32  H33 UNL     1     -33.991   3.774  -1.083  1.00  0.00     0.274 HD
ATOM     33  H32 UNL     1     -33.886   2.846  -2.329  1.00  0.00     0.274 HD
ATOM     34  H31 UNL     1     -34.659   4.325  -2.522  1.00  0.00     0.274 HD
ENDBRANCH  30  31
ENDBRANCH  29  30
ENDBRANCH   4  29
BRANCH   1  35
HETATM   35  C4  UNL     1     -38.815   6.826   0.350  1.00  0.00     0.172 A 
HETATM   36  C2  UNL     1     -40.029   7.307   0.743  1.00  0.00     0.223 A 
HETATM   37  O2  UNL     1     -40.202   8.489   0.177  1.00  0.00    -0.233 OA
HETATM   38  C3  UNL     1     -39.169   8.808  -0.561  1.00  0.00     0.399 A 
HETATM   39  O3  UNL     1     -39.014   9.881  -1.243  1.00  0.00    -0.235 OA
HETATM   40  N1  UNL     1     -38.309   7.781  -0.457  1.00  0.00    -0.158 N 
BRANCH  36  41
HETATM   41  O1  UNL     1     -40.937   6.685   1.583  1.00  0.00    -0.333 OA
HETATM   42  C1  UNL     1     -42.202   7.280   1.762  1.00  0.00     0.212 C 
ENDBRANCH  36  41
BRANCH  40  43
HETATM   43  O4  UNL     1     -37.073   7.710  -1.088  1.00  0.00    -0.278 OA
ATOM     44  H4  UNL     1     -36.237   7.884  -0.672  1.00  0.00     0.245 HD
ENDBRANCH  40  43
ENDBRANCH   1  35
TORSDOF 9
ENDMDL
MODEL 3
REMARK VINA RESULT: -7.385221209      2.348      7.444
REMARK  9 active torsions:
REMARK  status: ('A' for Active; 'I' for Inactive)
REMARK    1  A    between atoms: O1_2  and  C2_3 
REMARK    2  A    between atoms: N1_7  and  O4_8 
REMARK    3  A    between atoms: C4_10  and  C5_11 
REMARK    4  A    between atoms: C6_14  and  C7_15 
REMARK    5  A    between atoms: C7_15  and  C8_16 
REMARK    6  A    between atoms: C8_16  and  N3_17 
REMARK    7  A    between atoms: N4_21  and  N5_22 
REMARK    8  A    between atoms: N5_22  and  C9_24 
REMARK    9  A    between atoms: C11_32  and  N9_33 
ROOT
HETATM    1  C5  UNL     1     -37.016   2.749   3.802  1.00  0.00     0.158 A 
HETATM    2  N2  UNL     1     -37.586   1.629   3.257  1.00  0.00    -0.326 N 
ATOM      3  H2  UNL     1     -37.975   0.851   3.789  1.00  0.00     0.169 HD
HETATM    4  C6  UNL     1     -37.555   1.709   1.917  1.00  0.00     0.125 A 
HETATM    5  N4  UNL     1     -36.969   2.875   1.590  1.00  0.00    -0.181 N 
HETATM    6  N11 UNL     1     -36.657   3.476   2.736  1.00  0.00    -0.261 N 
ATOM      7  H11 UNL     1     -36.197   4.384   2.795  1.00  0.00     0.191 HD
ENDROOT
BRANCH   5   8
HETATM    8  N5  UNL     1     -36.736   3.360   0.292  1.00  0.00    -0.258 N 
ATOM      9  H5  UNL     1     -36.396   2.726  -0.430  1.00  0.00     0.191 HD
BRANCH   8  10
HETATM   10  C9  UNL     1     -36.965   4.708  -0.020  1.00  0.00     0.188 A 
HETATM   11  N6  UNL     1     -36.064   5.379  -0.789  1.00  0.00    -0.280 N 
HETATM   12  N7  UNL     1     -36.235   6.637  -1.109  1.00  0.00    -0.282 N 
ATOM     13  H6  UNL     1     -35.235   4.889  -1.124  1.00  0.00     0.189 HD
HETATM   14  C10 UNL     1     -37.306   7.333  -0.697  1.00  0.00     0.155 A 
ATOM     15  H7  UNL     1     -35.534   7.101  -1.686  1.00  0.00     0.188 HD
HETATM   16  N8  UNL     1     -37.472   8.616  -1.028  1.00  0.00    -0.174 N 
HETATM   17  C13 UNL     1     -38.269   6.699   0.097  1.00  0.00     0.132 A 
HETATM   18  C11 UNL     1     -38.571   9.272  -0.587  1.00  0.00     0.680 A 
ATOM     19  H8  UNL     1     -36.781   9.096  -1.606  1.00  0.00     0.186 HD
HETATM   20  N10 UNL     1     -39.508   8.687   0.176  1.00  0.00    -0.155 N 
HETATM   21  C12 UNL     1     -39.375   7.400   0.529  1.00  0.00     0.277 A 
ATOM     22  H10 UNL     1     -40.320   9.220   0.487  1.00  0.00     0.187 HD
HETATM   23  O5  UNL     1     -40.251   6.849   1.242  1.00  0.00    -0.266 OA
HETATM   24  C14 UNL     1     -38.075   5.385   0.422  1.00  0.00     0.237 A 
HETATM   25  O6  UNL     1     -38.904   4.785   1.125  1.00  0.00    -0.283 OA
BRANCH  18  26
HETATM   26  N9  UNL     1     -38.725  10.515  -0.913  1.00  0.00    -0.234 N 
ATOM     27  H92 UNL     1     -37.903  11.055  -1.183  1.00  0.00     0.174 HD
ATOM     28  H91 UNL     1     -39.664  10.914  -0.888  1.00  0.00     0.174 HD
ENDBRANCH  18  26
ENDBRANCH   8  10
ENDBRANCH   5   8
BRANCH   4  29
HETATM   29  C7  UNL     1     -38.076   0.702   0.956  1.00  0.00     0.107 C 
BRANCH  29  30
HETATM   30  C8  UNL     1     -36.985  -0.233   0.483  1.00  0.00     0.237 C 
BRANCH  30  31
HETATM   31  N3  UNL     1     -36.610  -0.022  -0.885  1.00  0.00    -0.079 N 
ATOM     32  H33 UNL     1     -37.200   0.689  -1.317  1.00  0.00     0.274 HD
ATOM     33  H32 UNL     1     -35.708   0.449  -0.945  1.00  0.00     0.274 HD
ATOM     34  H31 UNL     1     -36.610  -0.878  -1.440  1.00  0.00     0.274 HD
ENDBRANCH  30  31
ENDBRANCH  29  30
ENDBRANCH   4  29
BRANCH   1  35
HETATM   35  C4  UNL     1     -36.864   3.014   5.231  1.00  0.00     0.172 A 
HETATM   36  C2  UNL     1     -36.224   4.042   5.858  1.00  0.00     0.223 A 
HETATM   37  O2  UNL     1     -36.334   3.854   7.162  1.00  0.00    -0.233 OA
HETATM   38  C3  UNL     1     -37.009   2.763   7.421  1.00  0.00     0.399 A 
HETATM   39  O3  UNL     1     -37.295   2.292   8.578  1.00  0.00    -0.235 OA
HETATM   40  N1  UNL     1     -37.339   2.240   6.228  1.00  0.00    -0.158 N 
BRANCH  36  41
HETATM   41  O1  UNL     1     -35.569   5.104   5.259  1.00  0.00    -0.333 OA
HETATM   42  C1  UNL     1     -34.164   5.056   5.161  1.00  0.00     0.212 C 
ENDBRANCH  36  41
BRANCH  40  43
HETATM   43  O4  UNL     1     -38.065   1.070   6.043  1.00  0.00    -0.278 OA
ATOM     44  H4  UNL     1     -37.874   0.407   5.391  1.00  0.00     0.245 HD
ENDBRANCH  40  43
ENDBRANCH   1  35
TORSDOF 9
ENDMDL
MODEL 4
REMARK VINA RESULT: -7.136335654      2.056      7.644
REMARK  9 active torsions:
REMARK  status: ('A' for Active; 'I' for Inactive)
REMARK    1  A    between atoms: O1_2  and  C2_3 
REMARK    2  A    between atoms: N1_7  and  O4_8 
REMARK    3  A    between atoms: C4_10  and  C5_11 
REMARK    4  A    between atoms: C6_14  and  C7_15 
REMARK    5  A    between atoms: C7_15  and  C8_16 
REMARK    6  A    between atoms: C8_16  and  N3_17 
REMARK    7  A    between atoms: N4_21  and  N5_22 
REMARK    8  A    between atoms: N5_22  and  C9_24 
REMARK    9  A    between atoms: C11_32  and  N9_33 
ROOT
HETATM    1  C5  UNL     1     -35.686   2.835   3.341  1.00  0.00     0.158 A 
HETATM    2  N2  UNL     1     -35.639   1.690   2.592  1.00  0.00    -0.326 N 
ATOM      3  H2  UNL     1     -35.048   0.883   2.790  1.00  0.00     0.169 HD
HETATM    4  C6  UNL     1     -36.488   1.788   1.556  1.00  0.00     0.125 A 
HETATM    5  N4  UNL     1     -37.086   2.990   1.630  1.00  0.00    -0.181 N 
HETATM    6  N11 UNL     1     -36.588   3.595   2.706  1.00  0.00    -0.261 N 
ATOM      7  H11 UNL     1     -36.860   4.530   3.011  1.00  0.00     0.191 HD
ENDROOT
BRANCH   5   8
HETATM    8  N5  UNL     1     -38.048   3.503   0.744  1.00  0.00    -0.258 N 
ATOM      9  H5  UNL     1     -38.809   2.905   0.423  1.00  0.00     0.191 HD
BRANCH   8  10
HETATM   10  C9  UNL     1     -37.974   4.831   0.297  1.00  0.00     0.188 A 
HETATM   11  N6  UNL     1     -36.912   5.222  -0.461  1.00  0.00    -0.280 N 
HETATM   12  N7  UNL     1     -36.799   6.449  -0.904  1.00  0.00    -0.282 N 
ATOM     13  H6  UNL     1     -36.187   4.542  -0.690  1.00  0.00     0.189 HD
HETATM   14  C10 UNL     1     -37.721   7.387  -0.636  1.00  0.00     0.155 A 
ATOM     15  H7  UNL     1     -35.987   6.699  -1.468  1.00  0.00     0.188 HD
HETATM   16  N8  UNL     1     -37.597   8.636  -1.092  1.00  0.00    -0.174 N 
HETATM   17  C13 UNL     1     -38.836   7.046   0.139  1.00  0.00     0.132 A 
HETATM   18  C11 UNL     1     -38.556   9.543  -0.792  1.00  0.00     0.680 A 
ATOM     19  H8  UNL     1     -36.791   8.903  -1.657  1.00  0.00     0.186 HD
HETATM   20  N10 UNL     1     -39.634   9.242  -0.051  1.00  0.00    -0.155 N 
HETATM   21  C12 UNL     1     -39.793   7.998   0.424  1.00  0.00     0.277 A 
ATOM     22  H10 UNL     1     -40.332   9.958   0.150  1.00  0.00     0.187 HD
HETATM   23  O5  UNL     1     -40.801   7.713   1.118  1.00  0.00    -0.266 OA
HETATM   24  C14 UNL     1     -38.939   5.761   0.594  1.00  0.00     0.237 A 
HETATM   25  O6  UNL     1     -39.912   5.417   1.285  1.00  0.00    -0.283 OA
BRANCH  18  26
HETATM   26  N9  UNL     1     -38.429  10.751  -1.239  1.00  0.00    -0.234 N 
ATOM     27  H92 UNL     1     -37.961  11.442  -0.651  1.00  0.00     0.174 HD
ATOM     28  H91 UNL     1     -38.801  10.974  -2.162  1.00  0.00     0.174 HD
ENDBRANCH  18  26
ENDBRANCH   8  10
ENDBRANCH   5   8
BRANCH   4  29
HETATM   29  C7  UNL     1     -36.738   0.760   0.512  1.00  0.00     0.107 C 
BRANCH  29  30
HETATM   30  C8  UNL     1     -35.641   0.746  -0.529  1.00  0.00     0.237 C 
BRANCH  30  31
HETATM   31  N3  UNL     1     -35.434   2.021  -1.151  1.00  0.00    -0.079 N 
ATOM     32  H33 UNL     1     -34.814   1.935  -1.957  1.00  0.00     0.274 HD
ATOM     33  H32 UNL     1     -36.281   2.336  -1.624  1.00  0.00     0.274 HD
ATOM     34  H31 UNL     1     -35.093   2.735  -0.507  1.00  0.00     0.274 HD
ENDBRANCH  30  31
ENDBRANCH  29  30
ENDBRANCH   4  29
BRANCH   1  35
HETATM   35  C4  UNL     1     -34.896   3.097   4.542  1.00  0.00     0.172 A 
HETATM   36  C2  UNL     1     -33.704   2.559   4.929  1.00  0.00     0.223 A 
HETATM   37  O2  UNL     1     -33.382   3.085   6.098  1.00  0.00    -0.233 OA
HETATM   38  C3  UNL     1     -34.294   3.936   6.495  1.00  0.00     0.399 A 
HETATM   39  O3  UNL     1     -34.290   4.617   7.580  1.00  0.00    -0.235 OA
HETATM   40  N1  UNL     1     -35.234   3.945   5.534  1.00  0.00    -0.158 N 
BRANCH  36  41
HETATM   41  O1  UNL     1     -32.948   1.627   4.239  1.00  0.00    -0.333 OA
HETATM   42  C1  UNL     1     -32.998   0.282   4.656  1.00  0.00     0.212 C 
ENDBRANCH  36  41
BRANCH  40  43
HETATM   43  O4  UNL     1     -36.388   4.717   5.556  1.00  0.00    -0.278 OA
ATOM     44  H4  UNL     1     -36.501   5.514   6.060  1.00  0.00     0.245 HD
ENDBRANCH  40  43
ENDBRANCH   1  35
TORSDOF 9
ENDMDL
MODEL 5
REMARK VINA RESULT: -7.124511952      3.557      6.025
REMARK  9 active torsions:
REMARK  status: ('A' for Active; 'I' for Inactive)
REMARK    1  A    between atoms: O1_2  and  C2_3 
REMARK    2  A    between atoms: N1_7  and  O4_8 
REMARK    3  A    between atoms: C4_10  and  C5_11 
REMARK    4  A    between atoms: C6_14  and  C7_15 
REMARK    5  A    between atoms: C7_15  and  C8_16 
REMARK    6  A    between atoms: C8_16  and  N3_17 
REMARK    7  A    between atoms: N4_21  and  N5_22 
REMARK    8  A    between atoms: N5_22  and  C9_24 
REMARK    9  A    between atoms: C11_32  and  N9_33 
ROOT
HETATM    1  C5  UNL     1     -36.485   6.812  -2.969  1.00  0.00     0.158 A 
HETATM    2  N2  UNL     1     -37.404   7.822  -2.864  1.00  0.00    -0.326 N 
ATOM      3  H2  UNL     1     -37.443   8.644  -3.465  1.00  0.00     0.169 HD
HETATM    4  C6  UNL     1     -38.247   7.566  -1.850  1.00  0.00     0.125 A 
HETATM    5  N4  UNL     1     -37.880   6.396  -1.298  1.00  0.00    -0.181 N 
HETATM    6  N11 UNL     1     -36.824   5.968  -1.985  1.00  0.00    -0.261 N 
ATOM      7  H11 UNL     1     -36.330   5.098  -1.787  1.00  0.00     0.191 HD
ENDROOT
BRANCH   5   8
HETATM    8  N5  UNL     1     -38.494   5.755  -0.209  1.00  0.00    -0.258 N 
ATOM      9  H5  UNL     1     -39.507   5.799  -0.102  1.00  0.00     0.191 HD
BRANCH   8  10
HETATM   10  C9  UNL     1     -37.727   5.054   0.734  1.00  0.00     0.188 A 
HETATM   11  N6  UNL     1     -37.280   5.701   1.845  1.00  0.00    -0.280 N 
HETATM   12  N7  UNL     1     -36.563   5.089   2.754  1.00  0.00    -0.282 N 
ATOM     13  H6  UNL     1     -37.509   6.686   1.973  1.00  0.00     0.189 HD
HETATM   14  C10 UNL     1     -36.231   3.793   2.641  1.00  0.00     0.155 A 
ATOM     15  H7  UNL     1     -36.248   5.612   3.571  1.00  0.00     0.188 HD
HETATM   16  N8  UNL     1     -35.500   3.177   3.573  1.00  0.00    -0.174 N 
HETATM   17  C13 UNL     1     -36.662   3.074   1.520  1.00  0.00     0.132 A 
HETATM   18  C11 UNL     1     -35.193   1.869   3.410  1.00  0.00     0.680 A 
ATOM     19  H8  UNL     1     -35.176   3.686   4.397  1.00  0.00     0.186 HD
HETATM   20  N10 UNL     1     -35.593   1.158   2.345  1.00  0.00    -0.155 N 
HETATM   21  C12 UNL     1     -36.329   1.742   1.387  1.00  0.00     0.277 A 
ATOM     22  H10 UNL     1     -35.338   0.174   2.262  1.00  0.00     0.187 HD
HETATM   23  O5  UNL     1     -36.705   1.077   0.389  1.00  0.00    -0.266 OA
HETATM   24  C14 UNL     1     -37.408   3.727   0.580  1.00  0.00     0.237 A 
HETATM   25  O6  UNL     1     -37.810   3.126  -0.430  1.00  0.00    -0.283 OA
BRANCH  18  26
HETATM   26  N9  UNL     1     -34.485   1.279   4.319  1.00  0.00    -0.234 N 
ATOM     27  H92 UNL     1     -33.866   1.846   4.900  1.00  0.00     0.174 HD
ATOM     28  H91 UNL     1     -34.567   0.268   4.423  1.00  0.00     0.174 HD
ENDBRANCH  18  26
ENDBRANCH   8  10
ENDBRANCH   5   8
BRANCH   4  29
HETATM   29  C7  UNL     1     -39.388   8.411  -1.411  1.00  0.00     0.107 C 
BRANCH  29  30
HETATM   30  C8  UNL     1     -38.933   9.532  -0.502  1.00  0.00     0.237 C 
BRANCH  30  31
HETATM   31  N3  UNL     1     -38.614  10.739  -1.207  1.00  0.00    -0.079 N 
ATOM     32  H33 UNL     1     -38.117  10.533  -2.073  1.00  0.00     0.274 HD
ATOM     33  H32 UNL     1     -39.455  11.167  -1.594  1.00  0.00     0.274 HD
ATOM     34  H31 UNL     1     -38.093  11.411  -0.642  1.00  0.00     0.274 HD
ENDBRANCH  30  31
ENDBRANCH  29  30
ENDBRANCH   4  29
BRANCH   1  35
HETATM   35  C4  UNL     1     -35.405   6.746  -3.951  1.00  0.00     0.172 A 
HETATM   36  C2  UNL     1     -34.096   6.404  -3.778  1.00  0.00     0.223 A 
HETATM   37  O2  UNL     1     -33.491   6.505  -4.949  1.00  0.00    -0.233 OA
HETATM   38  C3  UNL     1     -34.330   6.893  -5.876  1.00  0.00     0.399 A 
HETATM   39  O3  UNL     1     -34.071   7.088  -7.114  1.00  0.00    -0.235 OA
HETATM   40  N1  UNL     1     -35.516   7.043  -5.261  1.00  0.00    -0.158 N 
BRANCH  36  41
HETATM   41  O1  UNL     1     -33.486   6.017  -2.597  1.00  0.00    -0.333 OA
HETATM   42  C1  UNL     1     -33.481   4.647  -2.262  1.00  0.00     0.212 C 
ENDBRANCH  36  41
BRANCH  40  43
HETATM   43  O4  UNL     1     -36.691   7.445  -5.884  1.00  0.00    -0.278 OA
ATOM     44  H4  UNL     1     -37.500   6.948  -5.896  1.00  0.00     0.245 HD
ENDBRANCH  40  43
ENDBRANCH   1  35
TORSDOF 9
ENDMDL
