MODEL 1
REMARK VINA RESULT: -7.408027713      0.000      0.000
REMARK  13 active torsions:
REMARK  status: ('A' for Active; 'I' for Inactive)
REMARK    1  A    between atoms: N1_1  and  C1_4 
REMARK    2  A    between atoms: C2_10  and  C3_11 
REMARK       I    between atoms: C3_11  and  N4_13 
REMARK    3  A    between atoms: N4_13  and  N5_15 
REMARK    4  A    between atoms: N5_15  and  N6_17 
REMARK    5  A    between atoms: N6_17  and  C4_19 
REMARK    6  A    between atoms: N9_25  and  C6_27 
REMARK    7  A    between atoms: C6_27  and  O3_28 
REMARK    8  A    between atoms: C6_27  and  C7_30 
REMARK    9  A    between atoms: C8_33  and  C9_34 
REMARK   10  A    between atoms: C9_34  and  O4_35 
REMARK   11  A    between atoms: C9_34  and  C10_37 
REMARK   12  A    between atoms: C10_37  and  O5_38 
REMARK   13  A    between atoms: C11_41  and  O7_42 
ROOT
HETATM    1  C4  UNL     1     -54.152  11.230   1.625  1.00  0.00     0.262 A 
HETATM    2  N7  UNL     1     -54.609  10.153   2.262  1.00  0.00    -0.262 N 
ATOM      3  H7  UNL     1     -55.132   9.461   1.726  1.00  0.00     0.190 HD
HETATM    4  N8  UNL     1     -54.420   9.928   3.571  1.00  0.00    -0.278 N 
ATOM      5  H8  UNL     1     -54.784   9.093   4.030  1.00  0.00     0.189 HD
HETATM    6  C5  UNL     1     -53.729  10.856   4.244  1.00  0.00     0.195 A 
HETATM    7  N9  UNL     1     -53.503  10.719   5.494  1.00  0.00    -0.339 N 
ATOM      8  H9  UNL     1     -52.976  11.427   6.004  1.00  0.00     0.164 HD
HETATM    9  C12 UNL     1     -53.244  11.990   3.581  1.00  0.00     0.336 A 
HETATM   10  O8  UNL     1     -52.613  12.813   4.259  1.00  0.00    -0.255 OA
HETATM   11  O9  UNL     1     -53.484  12.116   2.298  1.00  0.00    -0.237 OA
ENDROOT
BRANCH   7  12
HETATM   12  C6  UNL     1     -54.004   9.550   6.175  1.00  0.00     0.275 C 
BRANCH  12  13
HETATM   13  O3  UNL     1     -52.934   8.783   6.691  1.00  0.00    -0.371 OA
ATOM     14  H3  UNL     1     -53.218   8.286   7.449  1.00  0.00     0.212 HD
ENDBRANCH  12  13
BRANCH  12  15
HETATM   15  C7  UNL     1     -54.795  10.059   7.345  1.00  0.00     0.118 A 
HETATM   16  N10 UNL     1     -55.987   9.664   7.778  1.00  0.00    -0.334 N 
HETATM   17  C8  UNL     1     -56.306  10.402   8.858  1.00  0.00     0.158 A 
ATOM     18  H10 UNL     1     -56.561   8.930   7.364  1.00  0.00     0.168 HD
HETATM   19  O6  UNL     1     -55.315  11.233   9.076  1.00  0.00    -0.270 OA
HETATM   20  C11 UNL     1     -54.360  11.058   8.165  1.00  0.00     0.212 A 
BRANCH  17  21
HETATM   21  C9  UNL     1     -57.566  10.264   9.634  1.00  0.00     0.216 C 
BRANCH  21  22
HETATM   22  O4  UNL     1     -57.893  11.402  10.343  1.00  0.00    -0.385 OA
ATOM     23  H4  UNL     1     -58.828  11.495  10.488  1.00  0.00     0.210 HD
ENDBRANCH  21  22
BRANCH  21  24
HETATM   24  C10 UNL     1     -57.372   9.130  10.647  1.00  0.00     0.204 C 
BRANCH  24  25
HETATM   25  O5  UNL     1     -56.005   8.992  10.883  1.00  0.00    -0.398 OA
ATOM     26  H5  UNL     1     -55.689   8.263  10.362  1.00  0.00     0.209 HD
ENDBRANCH  24  25
ENDBRANCH  21  24
ENDBRANCH  17  21
BRANCH  20  27
HETATM   27  O7  UNL     1     -53.153  11.745   8.057  1.00  0.00    -0.339 OA
ATOM     28  H7  UNL     1     -52.912  12.349   7.365  1.00  0.00     0.220 HD
ENDBRANCH  20  27
ENDBRANCH  12  15
ENDBRANCH   7  12
BRANCH   1  29
HETATM   29  N6  UNL     1     -54.405  11.385   0.219  1.00  0.00    -0.249 N 
ATOM     30  H6  UNL     1     -55.304  11.748  -0.099  1.00  0.00     0.192 HD
BRANCH  29  31
HETATM   31  N5  UNL     1     -53.431  11.044  -0.707  1.00  0.00    -0.237 N 
ATOM     32  H5  UNL     1     -53.492  11.403  -1.660  1.00  0.00     0.208 HD
BRANCH  31  33
HETATM   33  N4  UNL     1     -52.475  10.296  -0.382  1.00  0.00    -0.250 N 
HETATM   34  C3  UNL     1     -51.180  10.604  -0.901  1.00  0.00     0.293 C 
HETATM   35  O2  UNL     1     -50.838  10.307  -2.051  1.00  0.00    -0.264 OA
ATOM     36  H4  UNL     1     -52.619   9.495   0.232  1.00  0.00     0.192 HD
BRANCH  34  37
HETATM   37  C2  UNL     1     -50.244  11.301  -0.007  1.00  0.00     0.171 A 
HETATM   38  C1  UNL     1     -48.902  11.542  -0.161  1.00  0.00     0.155 A 
HETATM   39  N2  UNL     1     -48.470  12.225   0.939  1.00  0.00    -0.224 N 
HETATM   40  O1  UNL     1     -49.501  12.376   1.696  1.00  0.00    -0.155 OA
ATOM     41  H2  UNL     1     -47.521  12.551   1.124  1.00  0.00     0.198 HD
HETATM   42  N3  UNL     1     -50.565  11.859   1.199  1.00  0.00    -0.232 N 
ATOM     43  H3  UNL     1     -51.490  11.864   1.630  1.00  0.00     0.197 HD
BRANCH  38  44
HETATM   44  N1  UNL     1     -48.151  11.207  -1.138  1.00  0.00    -0.382 N 
ATOM     45  H12 UNL     1     -47.133  11.132  -1.150  1.00  0.00     0.157 HD
ATOM     46  H11 UNL     1     -48.494  10.963  -2.067  1.00  0.00     0.157 HD
ENDBRANCH  38  44
ENDBRANCH  34  37
ENDBRANCH  31  33
ENDBRANCH  29  31
ENDBRANCH   1  29
TORSDOF 13
ENDMDL
MODEL 2
REMARK VINA RESULT: -7.012289910     14.874     19.784
REMARK  13 active torsions:
REMARK  status: ('A' for Active; 'I' for Inactive)
REMARK    1  A    between atoms: N1_1  and  C1_4 
REMARK    2  A    between atoms: C2_10  and  C3_11 
REMARK       I    between atoms: C3_11  and  N4_13 
REMARK    3  A    between atoms: N4_13  and  N5_15 
REMARK    4  A    between atoms: N5_15  and  N6_17 
REMARK    5  A    between atoms: N6_17  and  C4_19 
REMARK    6  A    between atoms: N9_25  and  C6_27 
REMARK    7  A    between atoms: C6_27  and  O3_28 
REMARK    8  A    between atoms: C6_27  and  C7_30 
REMARK    9  A    between atoms: C8_33  and  C9_34 
REMARK   10  A    between atoms: C9_34  and  O4_35 
REMARK   11  A    between atoms: C9_34  and  C10_37 
REMARK   12  A    between atoms: C10_37  and  O5_38 
REMARK   13  A    between atoms: C11_41  and  O7_42 
ROOT
HETATM    1  C4  UNL     1     -38.269   5.351   0.430  1.00  0.00     0.262 A 
HETATM    2  N7  UNL     1     -37.138   6.054   0.365  1.00  0.00    -0.262 N 
ATOM      3  H7  UNL     1     -37.059   6.895   0.937  1.00  0.00     0.190 HD
HETATM    4  N8  UNL     1     -36.098   5.716  -0.411  1.00  0.00    -0.278 N 
ATOM      5  H8  UNL     1     -35.245   6.275  -0.440  1.00  0.00     0.189 HD
HETATM    6  C5  UNL     1     -36.235   4.607  -1.147  1.00  0.00     0.195 A 
HETATM    7  N9  UNL     1     -35.291   4.214  -1.913  1.00  0.00    -0.339 N 
ATOM      8  H9  UNL     1     -35.399   3.368  -2.473  1.00  0.00     0.164 HD
HETATM    9  C12 UNL     1     -37.420   3.863  -1.083  1.00  0.00     0.336 A 
HETATM   10  O8  UNL     1     -37.486   2.847  -1.789  1.00  0.00    -0.255 OA
HETATM   11  O9  UNL     1     -38.380   4.279  -0.292  1.00  0.00    -0.237 OA
ENDROOT
BRANCH   7  12
HETATM   12  C6  UNL     1     -34.072   4.982  -1.977  1.00  0.00     0.275 C 
BRANCH  12  13
HETATM   13  O3  UNL     1     -32.969   4.137  -2.239  1.00  0.00    -0.371 OA
ATOM     14  H3  UNL     1     -32.431   4.044  -1.463  1.00  0.00     0.212 HD
ENDBRANCH  12  13
BRANCH  12  15
HETATM   15  C7  UNL     1     -34.222   5.900  -3.156  1.00  0.00     0.118 A 
HETATM   16  N10 UNL     1     -34.215   5.600  -4.450  1.00  0.00    -0.334 N 
HETATM   17  C8  UNL     1     -34.383   6.740  -5.146  1.00  0.00     0.158 A 
ATOM     18  H10 UNL     1     -34.102   4.667  -4.847  1.00  0.00     0.168 HD
HETATM   19  O6  UNL     1     -34.492   7.719  -4.280  1.00  0.00    -0.270 OA
HETATM   20  C11 UNL     1     -34.398   7.247  -3.039  1.00  0.00     0.212 A 
BRANCH  17  21
HETATM   21  C9  UNL     1     -34.431   6.825  -6.629  1.00  0.00     0.216 C 
BRANCH  21  22
HETATM   22  O4  UNL     1     -33.984   8.038  -7.116  1.00  0.00    -0.385 OA
ATOM     23  H4  UNL     1     -34.002   8.087  -8.065  1.00  0.00     0.210 HD
ENDBRANCH  21  22
BRANCH  21  24
HETATM   24  C10 UNL     1     -35.892   6.665  -7.062  1.00  0.00     0.204 C 
BRANCH  24  25
HETATM   25  O5  UNL     1     -36.697   6.861  -5.941  1.00  0.00    -0.398 OA
ATOM     26  H5  UNL     1     -37.288   6.120  -5.870  1.00  0.00     0.209 HD
ENDBRANCH  24  25
ENDBRANCH  21  24
ENDBRANCH  17  21
BRANCH  20  27
HETATM   27  O7  UNL     1     -34.464   7.968  -1.849  1.00  0.00    -0.339 OA
ATOM     28  H7  UNL     1     -35.199   7.992  -1.248  1.00  0.00     0.220 HD
ENDBRANCH  20  27
ENDBRANCH  12  15
ENDBRANCH   7  12
BRANCH   1  29
HETATM   29  N6  UNL     1     -39.331   5.792   1.291  1.00  0.00    -0.249 N 
ATOM     30  H6  UNL     1     -39.212   5.756   2.304  1.00  0.00     0.192 HD
BRANCH  29  31
HETATM   31  N5  UNL     1     -40.516   6.267   0.751  1.00  0.00    -0.237 N 
ATOM     32  H5  UNL     1     -41.185   6.754   1.348  1.00  0.00     0.208 HD
BRANCH  31  33
HETATM   33  N4  UNL     1     -40.774   6.103  -0.468  1.00  0.00    -0.250 N 
HETATM   34  C3  UNL     1     -40.614   7.223  -1.341  1.00  0.00     0.293 C 
HETATM   35  O2  UNL     1     -41.458   8.121  -1.428  1.00  0.00    -0.264 OA
ATOM     36  H4  UNL     1     -41.087   5.200  -0.822  1.00  0.00     0.192 HD
BRANCH  34  37
HETATM   37  C2  UNL     1     -39.390   7.275  -2.152  1.00  0.00     0.171 A 
HETATM   38  C1  UNL     1     -38.486   8.296  -2.307  1.00  0.00     0.155 A 
HETATM   39  N2  UNL     1     -37.513   7.868  -3.164  1.00  0.00    -0.224 N 
HETATM   40  O1  UNL     1     -37.829   6.664  -3.493  1.00  0.00    -0.155 OA
ATOM     41  H2  UNL     1     -36.699   8.396  -3.479  1.00  0.00     0.198 HD
HETATM   42  N3  UNL     1     -38.912   6.261  -2.936  1.00  0.00    -0.232 N 
ATOM     43  H3  UNL     1     -39.343   5.344  -3.058  1.00  0.00     0.197 HD
BRANCH  38  44
HETATM   44  N1  UNL     1     -38.508   9.454  -1.768  1.00  0.00    -0.382 N 
ATOM     45  H12 UNL     1     -37.966  10.278  -2.029  1.00  0.00     0.157 HD
ATOM     46  H11 UNL     1     -39.099   9.704  -0.975  1.00  0.00     0.157 HD
ENDBRANCH  38  44
ENDBRANCH  34  37
ENDBRANCH  31  33
ENDBRANCH  29  31
ENDBRANCH   1  29
TORSDOF 13
ENDMDL
MODEL 3
REMARK VINA RESULT: -6.892696980      2.654      5.166
REMARK  13 active torsions:
REMARK  status: ('A' for Active; 'I' for Inactive)
REMARK    1  A    between atoms: N1_1  and  C1_4 
REMARK    2  A    between atoms: C2_10  and  C3_11 
REMARK       I    between atoms: C3_11  and  N4_13 
REMARK    3  A    between atoms: N4_13  and  N5_15 
REMARK    4  A    between atoms: N5_15  and  N6_17 
REMARK    5  A    between atoms: N6_17  and  C4_19 
REMARK    6  A    between atoms: N9_25  and  C6_27 
REMARK    7  A    between atoms: C6_27  and  O3_28 
REMARK    8  A    between atoms: C6_27  and  C7_30 
REMARK    9  A    between atoms: C8_33  and  C9_34 
REMARK   10  A    between atoms: C9_34  and  O4_35 
REMARK   11  A    between atoms: C9_34  and  C10_37 
REMARK   12  A    between atoms: C10_37  and  O5_38 
REMARK   13  A    between atoms: C11_41  and  O7_42 
ROOT
HETATM    1  C4  UNL     1     -50.032  10.664  -0.392  1.00  0.00     0.262 A 
HETATM    2  N7  UNL     1     -50.241  11.518   0.609  1.00  0.00    -0.262 N 
ATOM      3  H7  UNL     1     -49.438  12.015   0.995  1.00  0.00     0.190 HD
HETATM    4  N8  UNL     1     -51.450  11.760   1.138  1.00  0.00    -0.278 N 
ATOM      5  H8  UNL     1     -51.577  12.420   1.906  1.00  0.00     0.189 HD
HETATM    6  C5  UNL     1     -52.480  11.092   0.607  1.00  0.00     0.195 A 
HETATM    7  N9  UNL     1     -53.665  11.264   1.052  1.00  0.00    -0.339 N 
ATOM      8  H9  UNL     1     -54.449  10.753   0.645  1.00  0.00     0.164 HD
HETATM    9  C12 UNL     1     -52.267  10.194  -0.446  1.00  0.00     0.336 A 
HETATM   10  O8  UNL     1     -53.262   9.605  -0.894  1.00  0.00    -0.255 OA
HETATM   11  O9  UNL     1     -51.045  10.028  -0.891  1.00  0.00    -0.237 OA
ENDROOT
BRANCH   7  12
HETATM   12  C6  UNL     1     -53.881  12.190   2.137  1.00  0.00     0.275 C 
BRANCH  12  13
HETATM   13  O3  UNL     1     -55.145  12.811   2.012  1.00  0.00    -0.371 OA
ATOM     14  H3  UNL     1     -55.484  13.047   2.867  1.00  0.00     0.212 HD
ENDBRANCH  12  13
BRANCH  12  15
HETATM   15  C7  UNL     1     -53.912  11.361   3.388  1.00  0.00     0.118 A 
HETATM   16  N10 UNL     1     -53.192  11.500   4.496  1.00  0.00    -0.334 N 
HETATM   17  C8  UNL     1     -53.554  10.530   5.357  1.00  0.00     0.158 A 
ATOM     18  H10 UNL     1     -52.487  12.218   4.665  1.00  0.00     0.168 HD
HETATM   19  O6  UNL     1     -54.484   9.813   4.774  1.00  0.00    -0.270 OA
HETATM   20  C11 UNL     1     -54.737  10.288   3.556  1.00  0.00     0.212 A 
BRANCH  17  21
HETATM   21  C9  UNL     1     -52.976  10.345   6.713  1.00  0.00     0.216 C 
BRANCH  21  22
HETATM   22  O4  UNL     1     -52.866   9.018   7.078  1.00  0.00    -0.385 OA
ATOM     23  H4  UNL     1     -53.198   8.843   7.951  1.00  0.00     0.210 HD
ENDBRANCH  21  22
BRANCH  21  24
HETATM   24  C10 UNL     1     -53.912  11.024   7.719  1.00  0.00     0.204 C 
BRANCH  24  25
HETATM   25  O5  UNL     1     -54.754  11.881   7.013  1.00  0.00    -0.398 OA
ATOM     26  H5  UNL     1     -55.237  12.404   7.644  1.00  0.00     0.209 HD
ENDBRANCH  24  25
ENDBRANCH  21  24
ENDBRANCH  17  21
BRANCH  20  27
HETATM   27  O7  UNL     1     -55.655   9.803   2.629  1.00  0.00    -0.339 OA
ATOM     28  H7  UNL     1     -55.823   8.889   2.431  1.00  0.00     0.220 HD
ENDBRANCH  20  27
ENDBRANCH  12  15
ENDBRANCH   7  12
BRANCH   1  29
HETATM   29  N6  UNL     1     -48.698  10.470  -0.893  1.00  0.00    -0.249 N 
ATOM     30  H6  UNL     1     -47.916  10.406  -0.243  1.00  0.00     0.192 HD
BRANCH  29  31
HETATM   31  N5  UNL     1     -48.474  10.368  -2.257  1.00  0.00    -0.237 N 
ATOM     32  H5  UNL     1     -47.717  10.901  -2.686  1.00  0.00     0.208 HD
BRANCH  31  33
HETATM   33  N4  UNL     1     -49.196   9.626  -2.970  1.00  0.00    -0.250 N 
HETATM   34  C3  UNL     1     -48.857   8.241  -3.050  1.00  0.00     0.293 C 
HETATM   35  O2  UNL     1     -47.950   7.821  -3.777  1.00  0.00    -0.264 OA
ATOM     36  H4  UNL     1     -49.998  10.002  -3.476  1.00  0.00     0.192 HD
BRANCH  34  37
HETATM   37  C2  UNL     1     -49.635   7.309  -2.223  1.00  0.00     0.171 A 
HETATM   38  C1  UNL     1     -49.213   6.237  -1.478  1.00  0.00     0.155 A 
HETATM   39  N2  UNL     1     -50.309   5.679  -0.886  1.00  0.00    -0.224 N 
HETATM   40  O1  UNL     1     -51.318   6.384  -1.263  1.00  0.00    -0.155 OA
ATOM     41  H2  UNL     1     -50.325   4.867  -0.269  1.00  0.00     0.198 HD
HETATM   42  N3  UNL     1     -50.991   7.348  -2.043  1.00  0.00    -0.232 N 
ATOM     43  H3  UNL     1     -51.630   8.027  -2.457  1.00  0.00     0.197 HD
BRANCH  38  44
HETATM   44  N1  UNL     1     -48.020   5.801  -1.334  1.00  0.00    -0.382 N 
ATOM     45  H12 UNL     1     -47.217   6.290  -0.937  1.00  0.00     0.157 HD
ATOM     46  H11 UNL     1     -47.714   4.869  -1.612  1.00  0.00     0.157 HD
ENDBRANCH  38  44
ENDBRANCH  34  37
ENDBRANCH  31  33
ENDBRANCH  29  31
ENDBRANCH   1  29
TORSDOF 13
ENDMDL
MODEL 4
REMARK VINA RESULT: -6.795224903     16.856     18.291
REMARK  13 active torsions:
REMARK  status: ('A' for Active; 'I' for Inactive)
REMARK    1  A    between atoms: N1_1  and  C1_4 
REMARK    2  A    between atoms: C2_10  and  C3_11 
REMARK       I    between atoms: C3_11  and  N4_13 
REMARK    3  A    between atoms: N4_13  and  N5_15 
REMARK    4  A    between atoms: N5_15  and  N6_17 
REMARK    5  A    between atoms: N6_17  and  C4_19 
REMARK    6  A    between atoms: N9_25  and  C6_27 
REMARK    7  A    between atoms: C6_27  and  O3_28 
REMARK    8  A    between atoms: C6_27  and  C7_30 
REMARK    9  A    between atoms: C8_33  and  C9_34 
REMARK   10  A    between atoms: C9_34  and  O4_35 
REMARK   11  A    between atoms: C9_34  and  C10_37 
REMARK   12  A    between atoms: C10_37  and  O5_38 
REMARK   13  A    between atoms: C11_41  and  O7_42 
ROOT
HETATM    1  C4  UNL     1     -37.923   7.705  -0.329  1.00  0.00     0.262 A 
HETATM    2  N7  UNL     1     -38.566   7.260   0.749  1.00  0.00    -0.262 N 
ATOM      3  H7  UNL     1     -39.288   7.852   1.160  1.00  0.00     0.190 HD
HETATM    4  N8  UNL     1     -38.317   6.074   1.325  1.00  0.00    -0.278 N 
ATOM      5  H8  UNL     1     -38.827   5.761   2.151  1.00  0.00     0.189 HD
HETATM    6  C5  UNL     1     -37.365   5.322   0.760  1.00  0.00     0.195 A 
HETATM    7  N9  UNL     1     -37.066   4.179   1.246  1.00  0.00    -0.339 N 
ATOM      8  H9  UNL     1     -36.340   3.608   0.814  1.00  0.00     0.164 HD
HETATM    9  C12 UNL     1     -36.686   5.784  -0.373  1.00  0.00     0.336 A 
HETATM   10  O8  UNL     1     -35.814   5.042  -0.849  1.00  0.00    -0.255 OA
HETATM   11  O9  UNL     1     -37.004   6.960  -0.860  1.00  0.00    -0.237 OA
ENDROOT
BRANCH   7  12
HETATM   12  C6  UNL     1     -37.768   3.706   2.414  1.00  0.00     0.275 C 
BRANCH  12  13
HETATM   13  O3  UNL     1     -38.465   2.511   2.121  1.00  0.00    -0.371 OA
ATOM     14  H3  UNL     1     -38.791   2.528   1.229  1.00  0.00     0.212 HD
ENDBRANCH  12  13
BRANCH  12  15
HETATM   15  C7  UNL     1     -36.710   3.370   3.425  1.00  0.00     0.118 A 
HETATM   16  N10 UNL     1     -36.613   3.765   4.690  1.00  0.00    -0.334 N 
HETATM   17  C8  UNL     1     -35.501   3.218   5.216  1.00  0.00     0.158 A 
ATOM     18  H10 UNL     1     -37.268   4.376   5.178  1.00  0.00     0.168 HD
HETATM   19  O6  UNL     1     -34.933   2.499   4.278  1.00  0.00    -0.270 OA
HETATM   20  C11 UNL     1     -35.644   2.564   3.154  1.00  0.00     0.212 A 
BRANCH  17  21
HETATM   21  C9  UNL     1     -35.040   3.420   6.614  1.00  0.00     0.216 C 
BRANCH  21  22
HETATM   22  O4  UNL     1     -36.044   3.851   7.458  1.00  0.00    -0.385 OA
ATOM     23  H4  UNL     1     -36.449   4.662   7.172  1.00  0.00     0.210 HD
ENDBRANCH  21  22
BRANCH  21  24
HETATM   24  C10 UNL     1     -33.955   4.502   6.599  1.00  0.00     0.204 C 
BRANCH  24  25
HETATM   25  O5  UNL     1     -33.911   5.051   5.318  1.00  0.00    -0.398 OA
ATOM     26  H5  UNL     1     -33.060   4.856   4.943  1.00  0.00     0.209 HD
ENDBRANCH  24  25
ENDBRANCH  21  24
ENDBRANCH  17  21
BRANCH  20  27
HETATM   27  O7  UNL     1     -35.371   1.941   1.939  1.00  0.00    -0.339 OA
ATOM     28  H7  UNL     1     -34.702   1.285   1.782  1.00  0.00     0.220 HD
ENDBRANCH  20  27
ENDBRANCH  12  15
ENDBRANCH   7  12
BRANCH   1  29
HETATM   29  N6  UNL     1     -38.258   8.992  -0.876  1.00  0.00    -0.249 N 
ATOM     30  H6  UNL     1     -38.098   9.835  -0.326  1.00  0.00     0.192 HD
BRANCH  29  31
HETATM   31  N5  UNL     1     -38.800   9.089  -2.148  1.00  0.00    -0.237 N 
ATOM     32  H5  UNL     1     -39.072  10.001  -2.513  1.00  0.00     0.208 HD
BRANCH  31  33
HETATM   33  N4  UNL     1     -38.957   8.062  -2.856  1.00  0.00    -0.250 N 
HETATM   34  C3  UNL     1     -38.176   7.944  -4.046  1.00  0.00     0.293 C 
HETATM   35  O2  UNL     1     -38.466   8.537  -5.091  1.00  0.00    -0.264 OA
ATOM     36  H4  UNL     1     -39.621   7.336  -2.588  1.00  0.00     0.192 HD
BRANCH  34  37
HETATM   37  C2  UNL     1     -36.991   7.078  -3.991  1.00  0.00     0.171 A 
HETATM   38  C1  UNL     1     -36.878   5.732  -4.237  1.00  0.00     0.155 A 
HETATM   39  N2  UNL     1     -35.572   5.381  -4.056  1.00  0.00    -0.224 N 
HETATM   40  O1  UNL     1     -34.953   6.460  -3.722  1.00  0.00    -0.155 OA
ATOM     41  H2  UNL     1     -35.167   4.451  -4.164  1.00  0.00     0.198 HD
HETATM   42  N3  UNL     1     -35.725   7.482  -3.667  1.00  0.00    -0.232 N 
ATOM     43  H3  UNL     1     -35.444   8.432  -3.424  1.00  0.00     0.197 HD
BRANCH  38  44
HETATM   44  N1  UNL     1     -37.800   4.916  -4.577  1.00  0.00    -0.382 N 
ATOM     45  H12 UNL     1     -38.680   5.124  -5.050  1.00  0.00     0.157 HD
ATOM     46  H11 UNL     1     -37.765   3.911  -4.407  1.00  0.00     0.157 HD
ENDBRANCH  38  44
ENDBRANCH  34  37
ENDBRANCH  31  33
ENDBRANCH  29  31
ENDBRANCH   1  29
TORSDOF 13
ENDMDL
MODEL 5
REMARK VINA RESULT: -6.787004517      3.283     10.025
REMARK  13 active torsions:
REMARK  status: ('A' for Active; 'I' for Inactive)
REMARK    1  A    between atoms: N1_1  and  C1_4 
REMARK    2  A    between atoms: C2_10  and  C3_11 
REMARK       I    between atoms: C3_11  and  N4_13 
REMARK    3  A    between atoms: N4_13  and  N5_15 
REMARK    4  A    between atoms: N5_15  and  N6_17 
REMARK    5  A    between atoms: N6_17  and  C4_19 
REMARK    6  A    between atoms: N9_25  and  C6_27 
REMARK    7  A    between atoms: C6_27  and  O3_28 
REMARK    8  A    between atoms: C6_27  and  C7_30 
REMARK    9  A    between atoms: C8_33  and  C9_34 
REMARK   10  A    between atoms: C9_34  and  O4_35 
REMARK   11  A    between atoms: C9_34  and  C10_37 
REMARK   12  A    between atoms: C10_37  and  O5_38 
REMARK   13  A    between atoms: C11_41  and  O7_42 
ROOT
HETATM    1  C4  UNL     1     -51.554  11.746   1.426  1.00  0.00     0.262 A 
HETATM    2  N7  UNL     1     -52.005  11.150   0.323  1.00  0.00    -0.262 N 
ATOM      3  H7  UNL     1     -53.003  10.950   0.257  1.00  0.00     0.190 HD
HETATM    4  N8  UNL     1     -51.220  10.800  -0.706  1.00  0.00    -0.278 N 
ATOM      5  H8  UNL     1     -51.596  10.344  -1.537  1.00  0.00     0.189 HD
HETATM    6  C5  UNL     1     -49.916  11.079  -0.586  1.00  0.00     0.195 A 
HETATM    7  N9  UNL     1     -49.099  10.779  -1.521  1.00  0.00    -0.339 N 
ATOM      8  H9  UNL     1     -48.106  10.993  -1.427  1.00  0.00     0.164 HD
HETATM    9  C12 UNL     1     -49.436  11.706   0.569  1.00  0.00     0.336 A 
HETATM   10  O8  UNL     1     -48.219  11.937   0.621  1.00  0.00    -0.255 OA
HETATM   11  O9  UNL     1     -50.287  12.008   1.520  1.00  0.00    -0.237 OA
ENDROOT
BRANCH   7  12
HETATM   12  C6  UNL     1     -49.597  10.133  -2.711  1.00  0.00     0.275 C 
BRANCH  12  13
HETATM   13  O3  UNL     1     -49.217  10.859  -3.862  1.00  0.00    -0.371 OA
ATOM     14  H3  UNL     1     -49.771  10.627  -4.598  1.00  0.00     0.212 HD
ENDBRANCH  12  13
BRANCH  12  15
HETATM   15  C7  UNL     1     -48.911   8.799  -2.775  1.00  0.00     0.118 A 
HETATM   16  N10 UNL     1     -48.603   7.973  -1.781  1.00  0.00    -0.334 N 
HETATM   17  C8  UNL     1     -47.994   6.894  -2.306  1.00  0.00     0.158 A 
ATOM     18  H10 UNL     1     -48.794   8.130  -0.792  1.00  0.00     0.168 HD
HETATM   19  O6  UNL     1     -47.936   7.065  -3.605  1.00  0.00    -0.270 OA
HETATM   20  C11 UNL     1     -48.490   8.229  -3.940  1.00  0.00     0.212 A 
BRANCH  17  21
HETATM   21  C9  UNL     1     -47.494   5.738  -1.517  1.00  0.00     0.216 C 
BRANCH  21  22
HETATM   22  O4  UNL     1     -46.237   5.319  -1.907  1.00  0.00    -0.385 OA
ATOM     23  H4  UNL     1     -45.547   5.917  -1.645  1.00  0.00     0.210 HD
ENDBRANCH  21  22
BRANCH  21  24
HETATM   24  C10 UNL     1     -48.459   4.567  -1.736  1.00  0.00     0.204 C 
BRANCH  24  25
HETATM   25  O5  UNL     1     -49.680   5.089  -2.157  1.00  0.00    -0.398 OA
ATOM     26  H5  UNL     1     -49.920   4.657  -2.969  1.00  0.00     0.209 HD
ENDBRANCH  24  25
ENDBRANCH  21  24
ENDBRANCH  17  21
BRANCH  20  27
HETATM   27  O7  UNL     1     -48.622   8.770  -5.217  1.00  0.00    -0.339 OA
ATOM     28  H7  UNL     1     -47.912   9.008  -5.802  1.00  0.00     0.220 HD
ENDBRANCH  20  27
ENDBRANCH  12  15
ENDBRANCH   7  12
BRANCH   1  29
HETATM   29  N6  UNL     1     -52.473  12.085   2.478  1.00  0.00    -0.249 N 
ATOM     30  H6  UNL     1     -53.425  11.721   2.457  1.00  0.00     0.192 HD
BRANCH  29  31
HETATM   31  N5  UNL     1     -52.069  12.903   3.521  1.00  0.00    -0.237 N 
ATOM     32  H5  UNL     1     -51.211  13.448   3.433  1.00  0.00     0.208 HD
BRANCH  31  33
HETATM   33  N4  UNL     1     -52.749  12.979   4.575  1.00  0.00    -0.250 N 
HETATM   34  C3  UNL     1     -53.755  11.988   4.794  1.00  0.00     0.293 C 
HETATM   35  O2  UNL     1     -54.861  12.033   4.243  1.00  0.00    -0.264 OA
ATOM     36  H4  UNL     1     -52.589  13.724   5.252  1.00  0.00     0.192 HD
BRANCH  34  37
HETATM   37  C2  UNL     1     -53.430  10.890   5.713  1.00  0.00     0.171 A 
HETATM   38  C1  UNL     1     -53.661   9.543   5.585  1.00  0.00     0.155 A 
HETATM   39  N2  UNL     1     -53.176   8.926   6.703  1.00  0.00    -0.224 N 
HETATM   40  O1  UNL     1     -52.689   9.859   7.445  1.00  0.00    -0.155 OA
ATOM     41  H2  UNL     1     -53.197   7.927   6.908  1.00  0.00     0.198 HD
HETATM   42  N3  UNL     1     -52.807  11.025   6.924  1.00  0.00    -0.232 N 
ATOM     43  H3  UNL     1     -52.490  11.901   7.340  1.00  0.00     0.197 HD
BRANCH  38  44
HETATM   44  N1  UNL     1     -54.223   8.931   4.615  1.00  0.00    -0.382 N 
ATOM     45  H12 UNL     1     -54.339   7.925   4.491  1.00  0.00     0.157 HD
ATOM     46  H11 UNL     1     -54.642   9.397   3.810  1.00  0.00     0.157 HD
ENDBRANCH  38  44
ENDBRANCH  34  37
ENDBRANCH  31  33
ENDBRANCH  29  31
ENDBRANCH   1  29
TORSDOF 13
ENDMDL
