MODEL 1
REMARK VINA RESULT: -4.131579890      0.000      0.000
REMARK  1 active torsions:
REMARK  status: ('A' for Active; 'I' for Inactive)
REMARK    1  A    between atoms: C3_3  and  C4_4 
ROOT
HETATM    1  C4  UNL     1       3.174  32.421 -10.949  1.00  0.00     0.114 A 
HETATM    2  N1  UNL     1       4.030  31.292 -11.039  1.00  0.00    -0.286 N 
ATOM      3  H1  UNL     1       4.292  30.403 -11.465  1.00  0.00     0.188 HD
HETATM    4  N2  UNL     1       4.248  32.310 -10.111  1.00  0.00    -0.286 N 
ATOM      5  H2  UNL     1       4.808  32.696  -9.351  1.00  0.00     0.188 HD
ENDROOT
BRANCH   1   6
HETATM    6  C3  UNL     1       1.980  32.953 -11.584  1.00  0.00     0.056 A 
HETATM    7  C1  UNL     1       1.018  33.796 -10.777  1.00  0.00     0.013 A 
HETATM    8  C2  UNL     1       1.865  34.455 -11.805  1.00  0.00     0.013 A 
ENDBRANCH   1   6
TORSDOF 1
ENDMDL
MODEL 2
REMARK VINA RESULT: -4.077631348      7.278      7.981
REMARK  1 active torsions:
REMARK  status: ('A' for Active; 'I' for Inactive)
REMARK    1  A    between atoms: C3_3  and  C4_4 
ROOT
HETATM    1  C4  UNL     1      -0.848  40.036  -9.949  1.00  0.00     0.114 A 
HETATM    2  N1  UNL     1       0.211  39.961 -10.892  1.00  0.00    -0.286 N 
ATOM      3  H1  UNL     1       0.746  39.448 -11.593  1.00  0.00     0.188 HD
HETATM    4  N2  UNL     1      -0.030  41.112 -10.143  1.00  0.00    -0.286 N 
ATOM      5  H2  UNL     1       0.224  42.072  -9.909  1.00  0.00     0.188 HD
ENDROOT
BRANCH   1   6
HETATM    6  C3  UNL     1      -1.920  39.205  -9.425  1.00  0.00     0.056 A 
HETATM    7  C1  UNL     1      -1.963  37.735  -9.774  1.00  0.00     0.013 A 
HETATM    8  C2  UNL     1      -1.590  38.136  -8.392  1.00  0.00     0.013 A 
ENDBRANCH   1   6
TORSDOF 1
ENDMDL
MODEL 3
REMARK VINA RESULT: -3.951904497      0.857      1.400
REMARK  1 active torsions:
REMARK  status: ('A' for Active; 'I' for Inactive)
REMARK    1  A    between atoms: C3_3  and  C4_4 
ROOT
HETATM    1  C4  UNL     1       2.391  32.558 -10.799  1.00  0.00     0.114 A 
HETATM    2  N1  UNL     1       3.592  32.149 -10.162  1.00  0.00    -0.286 N 
ATOM      3  H1  UNL     1       4.254  32.202  -9.388  1.00  0.00     0.188 HD
HETATM    4  N2  UNL     1       3.189  31.619 -11.387  1.00  0.00    -0.286 N 
ATOM      5  H2  UNL     1       3.365  30.984 -12.166  1.00  0.00     0.188 HD
ENDROOT
BRANCH   1   6
HETATM    6  C3  UNL     1       1.281  33.470 -10.578  1.00  0.00     0.056 A 
HETATM    7  C1  UNL     1       1.232  34.782 -11.327  1.00  0.00     0.013 A 
HETATM    8  C2  UNL     1       0.279  33.704 -11.701  1.00  0.00     0.013 A 
ENDBRANCH   1   6
TORSDOF 1
ENDMDL
MODEL 4
REMARK VINA RESULT: -3.903286954      7.725      8.160
REMARK  1 active torsions:
REMARK  status: ('A' for Active; 'I' for Inactive)
REMARK    1  A    between atoms: C3_3  and  C4_4 
ROOT
HETATM    1  C4  UNL     1      -0.860  39.952 -10.021  1.00  0.00     0.114 A 
HETATM    2  N1  UNL     1      -0.049  41.112 -10.140  1.00  0.00    -0.286 N 
ATOM      3  H1  UNL     1       0.846  41.588 -10.038  1.00  0.00     0.188 HD
HETATM    4  N2  UNL     1      -1.396  41.112 -10.503  1.00  0.00    -0.286 N 
ATOM      5  H2  UNL     1      -2.203  41.618 -10.868  1.00  0.00     0.188 HD
ENDROOT
BRANCH   1   6
HETATM    6  C3  UNL     1      -0.749  38.568  -9.589  1.00  0.00     0.056 A 
HETATM    7  C1  UNL     1      -1.571  38.085  -8.416  1.00  0.00     0.013 A 
HETATM    8  C2  UNL     1      -1.935  37.634  -9.785  1.00  0.00     0.013 A 
ENDBRANCH   1   6
TORSDOF 1
ENDMDL
MODEL 5
REMARK VINA RESULT: -3.792175388      2.681      3.330
REMARK  1 active torsions:
REMARK  status: ('A' for Active; 'I' for Inactive)
REMARK    1  A    between atoms: C3_3  and  C4_4 
ROOT
HETATM    1  C4  UNL     1       4.704  32.745 -11.429  1.00  0.00     0.114 A 
HETATM    2  N1  UNL     1       4.269  31.399 -11.308  1.00  0.00    -0.286 N 
ATOM      3  H1  UNL     1       4.138  30.465 -11.698  1.00  0.00     0.188 HD
HETATM    4  N2  UNL     1       4.155  32.308 -10.257  1.00  0.00    -0.286 N 
ATOM      5  H2  UNL     1       3.868  32.505  -9.298  1.00  0.00     0.188 HD
ENDROOT
BRANCH   1   6
HETATM    6  C3  UNL     1       5.314  33.623 -12.414  1.00  0.00     0.056 A 
HETATM    7  C1  UNL     1       5.868  34.961 -11.980  1.00  0.00     0.013 A 
HETATM    8  C2  UNL     1       6.814  33.876 -12.352  1.00  0.00     0.013 A 
ENDBRANCH   1   6
TORSDOF 1
ENDMDL
