MODEL 1
REMARK VINA RESULT: -3.777159798      0.000      0.000
REMARK  1 active torsions:
REMARK  status: ('A' for Active; 'I' for Inactive)
REMARK    1  A    between atoms: N2_3  and  C2_5 
ROOT
HETATM    1  N1  UNL     1       0.976  35.352 -11.294  1.00  0.00    -0.097 NA
HETATM    2  C1  UNL     1       1.903  34.513 -11.945  1.00  0.00     0.187 C 
HETATM    3  N2  UNL     1       3.160  34.583 -11.740  1.00  0.00    -0.360 N 
ATOM      4  H2  UNL     1       3.471  35.286 -11.070  1.00  0.00     0.162 HD
ENDROOT
BRANCH   3   5
HETATM    5  C2  UNL     1       4.174  33.792 -12.339  1.00  0.00     0.245 A 
HETATM    6  C3  UNL     1       5.593  34.245 -12.048  1.00  0.00     0.224 A 
HETATM    7  O1  UNL     1       5.009  34.303 -13.316  1.00  0.00    -0.360 OA
ENDBRANCH   3   5
TORSDOF 1
ENDMDL
MODEL 2
REMARK VINA RESULT: -3.589347695      1.363      1.397
REMARK  1 active torsions:
REMARK  status: ('A' for Active; 'I' for Inactive)
REMARK    1  A    between atoms: N2_3  and  C2_5 
ROOT
HETATM    1  N1  UNL     1       1.708  34.674 -13.056  1.00  0.00    -0.097 NA
HETATM    2  C1  UNL     1       2.837  34.148 -12.398  1.00  0.00     0.187 C 
HETATM    3  N2  UNL     1       4.027  34.309 -12.831  1.00  0.00    -0.360 N 
ATOM      4  H2  UNL     1       4.126  34.848 -13.691  1.00  0.00     0.162 HD
ENDROOT
BRANCH   3   5
HETATM    5  C2  UNL     1       5.226  33.824 -12.250  1.00  0.00     0.245 A 
HETATM    6  C3  UNL     1       6.310  34.870 -12.056  1.00  0.00     0.224 A 
HETATM    7  O1  UNL     1       6.417  33.806 -12.955  1.00  0.00    -0.360 OA
ENDBRANCH   3   5
TORSDOF 1
ENDMDL
MODEL 3
REMARK VINA RESULT: -3.580802204      2.741      3.731
REMARK  1 active torsions:
REMARK  status: ('A' for Active; 'I' for Inactive)
REMARK    1  A    between atoms: N2_3  and  C2_5 
ROOT
HETATM    1  N1  UNL     1       6.602  35.266 -12.568  1.00  0.00    -0.097 NA
HETATM    2  C1  UNL     1       6.113  33.983 -12.255  1.00  0.00     0.187 C 
HETATM    3  N2  UNL     1       4.942  33.784 -11.791  1.00  0.00    -0.360 N 
ATOM      4  H2  UNL     1       4.362  34.612 -11.654  1.00  0.00     0.162 HD
ENDROOT
BRANCH   3   5
HETATM    5  C2  UNL     1       4.354  32.540 -11.444  1.00  0.00     0.245 A 
HETATM    6  C3  UNL     1       2.841  32.562 -11.314  1.00  0.00     0.224 A 
HETATM    7  O1  UNL     1       3.705  32.358 -10.235  1.00  0.00    -0.360 OA
ENDBRANCH   3   5
TORSDOF 1
ENDMDL
MODEL 4
REMARK VINA RESULT: -3.546162381      1.966      2.100
REMARK  1 active torsions:
REMARK  status: ('A' for Active; 'I' for Inactive)
REMARK    1  A    between atoms: N2_3  and  C2_5 
ROOT
HETATM    1  N1  UNL     1       1.373  34.782 -13.278  1.00  0.00    -0.097 NA
HETATM    2  C1  UNL     1       2.359  34.347 -12.370  1.00  0.00     0.187 C 
HETATM    3  N2  UNL     1       3.362  33.642 -12.725  1.00  0.00    -0.360 N 
ATOM      4  H2  UNL     1       3.420  33.403 -13.714  1.00  0.00     0.162 HD
ENDROOT
BRANCH   3   5
HETATM    5  C2  UNL     1       4.405  33.154 -11.897  1.00  0.00     0.245 A 
HETATM    6  C3  UNL     1       4.376  31.656 -11.649  1.00  0.00     0.224 A 
HETATM    7  O1  UNL     1       4.146  32.607 -10.652  1.00  0.00    -0.360 OA
ENDBRANCH   3   5
TORSDOF 1
ENDMDL
MODEL 5
REMARK VINA RESULT: -3.529802201      2.197      3.529
REMARK  1 active torsions:
REMARK  status: ('A' for Active; 'I' for Inactive)
REMARK    1  A    between atoms: N2_3  and  C2_5 
ROOT
HETATM    1  N1  UNL     1       6.656  35.226 -12.663  1.00  0.00    -0.097 NA
HETATM    2  C1  UNL     1       5.625  34.371 -12.228  1.00  0.00     0.187 C 
HETATM    3  N2  UNL     1       4.447  34.404 -12.718  1.00  0.00    -0.360 N 
ATOM      4  H2  UNL     1       4.283  35.090 -13.454  1.00  0.00     0.162 HD
ENDROOT
BRANCH   3   5
HETATM    5  C2  UNL     1       3.342  33.592 -12.355  1.00  0.00     0.245 A 
HETATM    6  C3  UNL     1       2.015  34.325 -12.260  1.00  0.00     0.224 A 
HETATM    7  O1  UNL     1       2.673  33.774 -11.157  1.00  0.00    -0.360 OA
ENDBRANCH   3   5
TORSDOF 1
ENDMDL
