MODEL 1
REMARK VINA RESULT: -5.697725677      0.000      0.000
REMARK  8 active torsions:
REMARK  status: ('A' for Active; 'I' for Inactive)
REMARK    1  A    between atoms: N1_1  and  C1_4 
REMARK    2  A    between atoms: N3_9  and  S1_10 
REMARK    3  A    between atoms: S1_10  and  C3_13 
REMARK    4  A    between atoms: C3_13  and  C4_14 
REMARK    5  A    between atoms: C4_14  and  O4_15 
REMARK    6  A    between atoms: C6_21  and  O5_22 
REMARK    7  A    between atoms: C8_28  and  O6_29 
REMARK    8  A    between atoms: N6_31  and  N7_32 
ROOT
HETATM    1  C4  UNL     1       2.171  75.411  18.623  1.00  0.00     0.270 C 
HETATM    2  N4  UNL     1       1.573  75.450  17.311  1.00  0.00    -0.035 N 
ATOM      3  H41 UNL     1       0.843  76.161  17.256  1.00  0.00     0.281 HD
ATOM      4  H42 UNL     1       1.002  74.623  17.138  1.00  0.00     0.281 HD
HETATM    5  C5  UNL     1       2.573  75.633  16.267  1.00  0.00     0.307 C 
HETATM    6  C6  UNL     1       3.534  76.689  16.720  1.00  0.00     0.277 C 
HETATM    7  N5  UNL     1       2.976  77.504  17.814  1.00  0.00    -0.027 N 
ATOM      8  H51 UNL     1       2.027  77.875  17.772  1.00  0.00     0.281 HD
ATOM      9  H52 UNL     1       3.305  78.453  17.993  1.00  0.00     0.281 HD
HETATM   10  C7  UNL     1       3.326  76.391  18.700  1.00  0.00     0.286 C 
HETATM   11  C8  UNL     1       4.441  76.060  17.767  1.00  0.00     0.218 C 
ENDROOT
BRANCH   1  12
HETATM   12  C3  UNL     1       1.153  75.853  19.654  1.00  0.00     0.236 C 
BRANCH  12  13
HETATM   13  S1  UNL     1      -0.356  74.985  19.331  1.00  0.00     0.261 S 
HETATM   14  O2  UNL     1      -1.097  75.719  18.250  1.00  0.00    -0.203 OA
HETATM   15  O3  UNL     1      -0.084  73.594  18.904  1.00  0.00    -0.203 OA
BRANCH  13  16
HETATM   16  N3  UNL     1      -1.376  74.988  20.737  1.00  0.00    -0.090 N 
HETATM   17  C2  UNL     1      -1.781  76.067  21.432  1.00  0.00     0.371 A 
HETATM   18  N2  UNL     1      -2.564  75.660  22.458  1.00  0.00    -0.136 N 
HETATM   19  O1  UNL     1      -1.464  77.264  21.143  1.00  0.00    -0.243 OA
HETATM   20  C1  UNL     1      -2.648  74.321  22.406  1.00  0.00     0.717 A 
ATOM     21  H2  UNL     1      -3.011  76.263  23.148  1.00  0.00     0.189 HD
HETATM   22  N6  UNL     1      -1.917  73.945  21.350  1.00  0.00    -0.006 N 
BRANCH  20  23
HETATM   23  N1  UNL     1      -3.308  73.542  23.217  1.00  0.00    -0.231 N 
ATOM     24  H12 UNL     1      -3.116  73.386  24.207  1.00  0.00     0.174 HD
ATOM     25  H11 UNL     1      -4.118  72.966  22.993  1.00  0.00     0.174 HD
ENDBRANCH  20  23
BRANCH  22  26
HETATM   26  N7  UNL     1      -1.715  72.630  20.909  1.00  0.00    -0.308 N 
ATOM     27  H72 UNL     1      -1.818  71.827  21.529  1.00  0.00     0.179 HD
ATOM     28  H71 UNL     1      -1.457  72.345  19.965  1.00  0.00     0.179 HD
ENDBRANCH  22  26
ENDBRANCH  13  16
ENDBRANCH  12  13
ENDBRANCH   1  12
BRANCH   1  29
HETATM   29  O4  UNL     1       2.587  74.109  18.880  1.00  0.00    -0.362 OA
ATOM     30  H4  UNL     1       2.650  73.615  18.070  1.00  0.00     0.212 HD
ENDBRANCH   1  29
BRANCH  11  31
HETATM   31  O6  UNL     1       4.702  74.732  17.531  1.00  0.00    -0.388 OA
ATOM     32  H6  UNL     1       5.143  74.577  16.703  1.00  0.00     0.210 HD
ENDBRANCH  11  31
BRANCH   6  33
HETATM   33  O5  UNL     1       4.173  77.414  15.747  1.00  0.00    -0.362 OA
ATOM     34  H5  UNL     1       4.752  78.109  16.034  1.00  0.00     0.212 HD
ENDBRANCH   6  33
TORSDOF 8
ENDMDL
MODEL 2
REMARK VINA RESULT: -5.439605480      1.095      1.702
REMARK  8 active torsions:
REMARK  status: ('A' for Active; 'I' for Inactive)
REMARK    1  A    between atoms: N1_1  and  C1_4 
REMARK    2  A    between atoms: N3_9  and  S1_10 
REMARK    3  A    between atoms: S1_10  and  C3_13 
REMARK    4  A    between atoms: C3_13  and  C4_14 
REMARK    5  A    between atoms: C4_14  and  O4_15 
REMARK    6  A    between atoms: C6_21  and  O5_22 
REMARK    7  A    between atoms: C8_28  and  O6_29 
REMARK    8  A    between atoms: N6_31  and  N7_32 
ROOT
HETATM    1  C4  UNL     1       2.380  75.556  18.524  1.00  0.00     0.270 C 
HETATM    2  N4  UNL     1       1.868  75.658  17.180  1.00  0.00    -0.035 N 
ATOM      3  H41 UNL     1       1.080  76.302  17.130  1.00  0.00     0.281 HD
ATOM      4  H42 UNL     1       1.392  74.802  16.898  1.00  0.00     0.281 HD
HETATM    5  C5  UNL     1       2.913  76.022  16.232  1.00  0.00     0.307 C 
HETATM    6  C6  UNL     1       3.736  77.115  16.840  1.00  0.00     0.277 C 
HETATM    7  N5  UNL     1       3.033  77.776  17.952  1.00  0.00    -0.027 N 
ATOM      8  H51 UNL     1       2.058  78.063  17.871  1.00  0.00     0.281 HD
ATOM      9  H52 UNL     1       3.256  78.731  18.233  1.00  0.00     0.281 HD
HETATM   10  C7  UNL     1       3.428  76.624  18.767  1.00  0.00     0.286 C 
HETATM   11  C8  UNL     1       4.629  76.479  17.894  1.00  0.00     0.218 C 
ENDROOT
BRANCH   1  12
HETATM   12  C3  UNL     1       1.259  75.811  19.511  1.00  0.00     0.236 C 
BRANCH  12  13
HETATM   13  S1  UNL     1      -0.176  74.950  18.933  1.00  0.00     0.261 S 
HETATM   14  O2  UNL     1      -0.905  75.846  17.973  1.00  0.00    -0.203 OA
HETATM   15  O3  UNL     1       0.200  73.687  18.260  1.00  0.00    -0.203 OA
BRANCH  13  16
HETATM   16  N3  UNL     1      -1.263  74.625  20.248  1.00  0.00    -0.090 N 
HETATM   17  C2  UNL     1      -1.335  73.491  20.969  1.00  0.00     0.371 A 
HETATM   18  N2  UNL     1      -2.306  73.624  21.903  1.00  0.00    -0.136 N 
HETATM   19  O1  UNL     1      -0.593  72.476  20.781  1.00  0.00    -0.243 OA
HETATM   20  C1  UNL     1      -2.845  74.846  21.764  1.00  0.00     0.717 A 
ATOM     21  H2  UNL     1      -2.579  72.921  22.589  1.00  0.00     0.189 HD
HETATM   22  N6  UNL     1      -2.190  75.427  20.753  1.00  0.00    -0.006 N 
BRANCH  20  23
HETATM   23  N1  UNL     1      -3.810  75.364  22.471  1.00  0.00    -0.231 N 
ATOM     24  H12 UNL     1      -3.774  76.224  23.018  1.00  0.00     0.174 HD
ATOM     25  H11 UNL     1      -4.752  74.992  22.591  1.00  0.00     0.174 HD
ENDBRANCH  20  23
BRANCH  22  26
HETATM   26  N7  UNL     1      -2.418  76.716  20.252  1.00  0.00    -0.308 N 
ATOM     27  H72 UNL     1      -1.892  77.527  20.577  1.00  0.00     0.179 HD
ATOM     28  H71 UNL     1      -3.100  76.973  19.539  1.00  0.00     0.179 HD
ENDBRANCH  22  26
ENDBRANCH  13  16
ENDBRANCH  12  13
ENDBRANCH   1  12
BRANCH   1  29
HETATM   29  O4  UNL     1       2.902  74.278  18.704  1.00  0.00    -0.362 OA
ATOM     30  H4  UNL     1       3.829  74.267  18.493  1.00  0.00     0.212 HD
ENDBRANCH   1  29
BRANCH  11  31
HETATM   31  O6  UNL     1       5.031  75.207  17.570  1.00  0.00    -0.388 OA
ATOM     32  H6  UNL     1       4.506  74.811  16.883  1.00  0.00     0.210 HD
ENDBRANCH  11  31
BRANCH   6  33
HETATM   33  O5  UNL     1       4.366  77.978  15.979  1.00  0.00    -0.362 OA
ATOM     34  H5  UNL     1       5.287  77.825  15.808  1.00  0.00     0.212 HD
ENDBRANCH   6  33
TORSDOF 8
ENDMDL
MODEL 3
REMARK VINA RESULT: -5.408173553      2.891      7.298
REMARK  8 active torsions:
REMARK  status: ('A' for Active; 'I' for Inactive)
REMARK    1  A    between atoms: N1_1  and  C1_4 
REMARK    2  A    between atoms: N3_9  and  S1_10 
REMARK    3  A    between atoms: S1_10  and  C3_13 
REMARK    4  A    between atoms: C3_13  and  C4_14 
REMARK    5  A    between atoms: C4_14  and  O4_15 
REMARK    6  A    between atoms: C6_21  and  O5_22 
REMARK    7  A    between atoms: C8_28  and  O6_29 
REMARK    8  A    between atoms: N6_31  and  N7_32 
ROOT
HETATM    1  C4  UNL     1       1.804  75.335  18.428  1.00  0.00     0.270 C 
HETATM    2  N4  UNL     1       1.555  76.300  19.470  1.00  0.00    -0.035 N 
ATOM      3  H41 UNL     1       1.356  77.222  19.083  1.00  0.00     0.281 HD
ATOM      4  H42 UNL     1       2.408  76.523  19.982  1.00  0.00     0.281 HD
HETATM    5  C5  UNL     1       0.495  75.861  20.370  1.00  0.00     0.307 C 
HETATM    6  C6  UNL     1      -0.619  75.300  19.541  1.00  0.00     0.277 C 
HETATM    7  N5  UNL     1      -0.528  75.733  18.136  1.00  0.00    -0.027 N 
ATOM      8  H51 UNL     1      -0.351  76.707  17.888  1.00  0.00     0.281 HD
ATOM      9  H52 UNL     1      -1.350  75.764  17.532  1.00  0.00     0.281 HD
HETATM   10  C7  UNL     1       0.501  74.702  17.979  1.00  0.00     0.286 C 
HETATM   11  C8  UNL     1      -0.179  73.927  19.056  1.00  0.00     0.218 C 
ENDROOT
BRANCH   1  12
HETATM   12  C3  UNL     1       2.388  76.037  17.220  1.00  0.00     0.236 C 
BRANCH  12  13
HETATM   13  S1  UNL     1       4.104  76.332  17.543  1.00  0.00     0.261 S 
HETATM   14  O2  UNL     1       4.226  76.937  18.912  1.00  0.00    -0.203 OA
HETATM   15  O3  UNL     1       4.878  75.072  17.474  1.00  0.00    -0.203 OA
BRANCH  13  16
HETATM   16  N3  UNL     1       4.747  77.489  16.418  1.00  0.00    -0.090 N 
HETATM   17  C2  UNL     1       4.072  78.488  15.820  1.00  0.00     0.371 A 
HETATM   18  N2  UNL     1       4.920  79.171  15.016  1.00  0.00    -0.136 N 
HETATM   19  O1  UNL     1       2.837  78.726  16.002  1.00  0.00    -0.243 OA
HETATM   20  C1  UNL     1       6.129  78.597  15.111  1.00  0.00     0.717 A 
ATOM     21  H2  UNL     1       4.682  79.979  14.440  1.00  0.00     0.189 HD
HETATM   22  N6  UNL     1       5.991  77.581  15.970  1.00  0.00    -0.006 N 
BRANCH  20  23
HETATM   23  N1  UNL     1       7.221  78.956  14.494  1.00  0.00    -0.231 N 
ATOM     24  H12 UNL     1       7.896  78.342  14.038  1.00  0.00     0.174 HD
ATOM     25  H11 UNL     1       7.574  79.905  14.371  1.00  0.00     0.174 HD
ENDBRANCH  20  23
BRANCH  22  26
HETATM   26  N7  UNL     1       7.000  76.696  16.375  1.00  0.00    -0.308 N 
ATOM     27  H72 UNL     1       7.979  76.836  16.127  1.00  0.00     0.179 HD
ATOM     28  H71 UNL     1       6.873  75.856  16.939  1.00  0.00     0.179 HD
ENDBRANCH  22  26
ENDBRANCH  13  16
ENDBRANCH  12  13
ENDBRANCH   1  12
BRANCH   1  29
HETATM   29  O4  UNL     1       2.694  74.381  18.912  1.00  0.00    -0.362 OA
ATOM     30  H4  UNL     1       2.272  73.532  18.969  1.00  0.00     0.212 HD
ENDBRANCH   1  29
BRANCH  11  31
HETATM   31  O6  UNL     1       0.614  73.261  19.959  1.00  0.00    -0.388 OA
ATOM     32  H6  UNL     1       0.183  73.101  20.791  1.00  0.00     0.210 HD
ENDBRANCH  11  31
BRANCH   6  33
HETATM   33  O5  UNL     1      -1.884  75.359  20.069  1.00  0.00    -0.362 OA
ATOM     34  H5  UNL     1      -1.962  75.319  21.014  1.00  0.00     0.212 HD
ENDBRANCH   6  33
TORSDOF 8
ENDMDL
MODEL 4
REMARK VINA RESULT: -5.312223910      2.989      7.416
REMARK  8 active torsions:
REMARK  status: ('A' for Active; 'I' for Inactive)
REMARK    1  A    between atoms: N1_1  and  C1_4 
REMARK    2  A    between atoms: N3_9  and  S1_10 
REMARK    3  A    between atoms: S1_10  and  C3_13 
REMARK    4  A    between atoms: C3_13  and  C4_14 
REMARK    5  A    between atoms: C4_14  and  O4_15 
REMARK    6  A    between atoms: C6_21  and  O5_22 
REMARK    7  A    between atoms: C8_28  and  O6_29 
REMARK    8  A    between atoms: N6_31  and  N7_32 
ROOT
HETATM    1  C4  UNL     1       1.888  75.456  18.418  1.00  0.00     0.270 C 
HETATM    2  N4  UNL     1       1.583  76.386  19.477  1.00  0.00    -0.035 N 
ATOM      3  H41 UNL     1       1.382  77.316  19.110  1.00  0.00     0.281 HD
ATOM      4  H42 UNL     1       2.412  76.608  20.027  1.00  0.00     0.281 HD
HETATM    5  C5  UNL     1       0.499  75.903  20.323  1.00  0.00     0.307 C 
HETATM    6  C6  UNL     1      -0.573  75.348  19.436  1.00  0.00     0.277 C 
HETATM    7  N5  UNL     1      -0.438  75.824  18.049  1.00  0.00    -0.027 N 
ATOM      8  H51 UNL     1      -0.269  76.807  17.836  1.00  0.00     0.281 HD
ATOM      9  H52 UNL     1      -1.237  75.859  17.415  1.00  0.00     0.281 HD
HETATM   10  C7  UNL     1       0.615  74.816  17.902  1.00  0.00     0.286 C 
HETATM   11  C8  UNL     1      -0.091  73.998  18.929  1.00  0.00     0.218 C 
ENDROOT
BRANCH   1  12
HETATM   12  C3  UNL     1       2.505  76.204  17.254  1.00  0.00     0.236 C 
BRANCH  12  13
HETATM   13  S1  UNL     1       3.773  77.258  17.899  1.00  0.00     0.261 S 
HETATM   14  O2  UNL     1       3.208  78.643  18.033  1.00  0.00    -0.203 OA
HETATM   15  O3  UNL     1       4.245  76.774  19.215  1.00  0.00    -0.203 OA
BRANCH  13  16
HETATM   16  N3  UNL     1       5.105  77.361  16.789  1.00  0.00    -0.090 N 
HETATM   17  C2  UNL     1       6.174  76.545  16.740  1.00  0.00     0.371 A 
HETATM   18  N2  UNL     1       6.990  76.950  15.738  1.00  0.00    -0.136 N 
HETATM   19  O1  UNL     1       6.359  75.561  17.522  1.00  0.00    -0.243 OA
HETATM   20  C1  UNL     1       6.430  78.023  15.159  1.00  0.00     0.717 A 
ATOM     21  H2  UNL     1       7.874  76.516  15.472  1.00  0.00     0.189 HD
HETATM   22  N6  UNL     1       5.287  78.246  15.819  1.00  0.00    -0.006 N 
BRANCH  20  23
HETATM   23  N1  UNL     1       6.900  78.710  14.156  1.00  0.00    -0.231 N 
ATOM     24  H12 UNL     1       6.369  79.091  13.372  1.00  0.00     0.174 HD
ATOM     25  H11 UNL     1       7.871  78.976  13.994  1.00  0.00     0.174 HD
ENDBRANCH  20  23
BRANCH  22  26
HETATM   26  N7  UNL     1       4.368  79.271  15.558  1.00  0.00    -0.308 N 
ATOM     27  H72 UNL     1       4.290  80.096  16.153  1.00  0.00     0.179 HD
ATOM     28  H71 UNL     1       3.708  79.305  14.782  1.00  0.00     0.179 HD
ENDBRANCH  22  26
ENDBRANCH  13  16
ENDBRANCH  12  13
ENDBRANCH   1  12
BRANCH   1  29
HETATM   29  O4  UNL     1       2.777  74.504  18.908  1.00  0.00    -0.362 OA
ATOM     30  H4  UNL     1       2.383  74.023  19.626  1.00  0.00     0.212 HD
ENDBRANCH   1  29
BRANCH  11  31
HETATM   31  O6  UNL     1       0.679  73.319  19.842  1.00  0.00    -0.388 OA
ATOM     32  H6  UNL     1       0.352  73.386  20.732  1.00  0.00     0.210 HD
ENDBRANCH  11  31
BRANCH   6  33
HETATM   33  O5  UNL     1      -1.858  75.371  19.917  1.00  0.00    -0.362 OA
ATOM     34  H5  UNL     1      -1.971  75.308  20.857  1.00  0.00     0.212 HD
ENDBRANCH   6  33
TORSDOF 8
ENDMDL
MODEL 5
REMARK VINA RESULT: -5.288584226      1.116      1.921
REMARK  8 active torsions:
REMARK  status: ('A' for Active; 'I' for Inactive)
REMARK    1  A    between atoms: N1_1  and  C1_4 
REMARK    2  A    between atoms: N3_9  and  S1_10 
REMARK    3  A    between atoms: S1_10  and  C3_13 
REMARK    4  A    between atoms: C3_13  and  C4_14 
REMARK    5  A    between atoms: C4_14  and  O4_15 
REMARK    6  A    between atoms: C6_21  and  O5_22 
REMARK    7  A    between atoms: C8_28  and  O6_29 
REMARK    8  A    between atoms: N6_31  and  N7_32 
ROOT
HETATM    1  C4  UNL     1       2.021  75.918  18.497  1.00  0.00     0.270 C 
HETATM    2  N4  UNL     1       1.759  76.659  17.288  1.00  0.00    -0.035 N 
ATOM      3  H41 UNL     1       1.394  77.589  17.493  1.00  0.00     0.281 HD
ATOM      4  H42 UNL     1       0.957  76.280  16.786  1.00  0.00     0.281 HD
HETATM    5  C5  UNL     1       2.937  76.728  16.432  1.00  0.00     0.307 C 
HETATM    6  C6  UNL     1       4.124  77.031  17.293  1.00  0.00     0.277 C 
HETATM    7  N5  UNL     1       3.725  77.582  18.600  1.00  0.00    -0.027 N 
ATOM      8  H51 UNL     1       3.027  78.321  18.677  1.00  0.00     0.281 HD
ATOM      9  H52 UNL     1       4.357  78.166  19.149  1.00  0.00     0.281 HD
HETATM   10  C7  UNL     1       3.427  76.201  18.989  1.00  0.00     0.286 C 
HETATM   11  C8  UNL     1       4.485  75.754  18.037  1.00  0.00     0.218 C 
ENDROOT
BRANCH   1  12
HETATM   12  C3  UNL     1       1.075  76.381  19.586  1.00  0.00     0.236 C 
BRANCH  12  13
HETATM   13  S1  UNL     1      -0.574  75.997  19.069  1.00  0.00     0.261 S 
HETATM   14  O2  UNL     1      -1.423  77.221  19.261  1.00  0.00    -0.203 OA
HETATM   15  O3  UNL     1      -0.600  75.581  17.649  1.00  0.00    -0.203 OA
BRANCH  13  16
HETATM   16  N3  UNL     1      -1.252  74.749  20.069  1.00  0.00    -0.090 N 
HETATM   17  C2  UNL     1      -0.966  73.435  20.018  1.00  0.00     0.371 A 
HETATM   18  N2  UNL     1      -1.698  72.789  20.957  1.00  0.00    -0.136 N 
HETATM   19  O1  UNL     1      -0.137  72.915  19.208  1.00  0.00    -0.243 OA
HETATM   20  C1  UNL     1      -2.444  73.703  21.596  1.00  0.00     0.717 A 
ATOM     21  H2  UNL     1      -1.683  71.787  21.144  1.00  0.00     0.189 HD
HETATM   22  N6  UNL     1      -2.150  74.881  21.035  1.00  0.00    -0.006 N 
BRANCH  20  23
HETATM   23  N1  UNL     1      -3.286  73.488  22.569  1.00  0.00    -0.231 N 
ATOM     24  H12 UNL     1      -3.710  72.597  22.826  1.00  0.00     0.174 HD
ATOM     25  H11 UNL     1      -3.655  74.176  23.226  1.00  0.00     0.174 HD
ENDBRANCH  20  23
BRANCH  22  26
HETATM   26  N7  UNL     1      -2.695  76.124  21.386  1.00  0.00    -0.308 N 
ATOM     27  H72 UNL     1      -3.695  76.257  21.533  1.00  0.00     0.179 HD
ATOM     28  H71 UNL     1      -2.177  76.990  21.527  1.00  0.00     0.179 HD
ENDBRANCH  22  26
ENDBRANCH  13  16
ENDBRANCH  12  13
ENDBRANCH   1  12
BRANCH   1  29
HETATM   29  O4  UNL     1       1.834  74.564  18.236  1.00  0.00    -0.362 OA
ATOM     30  H4  UNL     1       1.945  74.388  17.309  1.00  0.00     0.212 HD
ENDBRANCH   1  29
BRANCH  11  31
HETATM   31  O6  UNL     1       4.245  74.616  17.308  1.00  0.00    -0.388 OA
ATOM     32  H6  UNL     1       4.909  73.946  17.427  1.00  0.00     0.210 HD
ENDBRANCH  11  31
BRANCH   6  33
HETATM   33  O5  UNL     1       5.175  77.685  16.703  1.00  0.00    -0.362 OA
ATOM     34  H5  UNL     1       5.694  78.259  17.255  1.00  0.00     0.212 HD
ENDBRANCH   6  33
TORSDOF 8
ENDMDL
