MODEL 1
REMARK VINA RESULT: -7.721947872      0.000      0.000
REMARK  16 active torsions:
REMARK  status: ('A' for Active; 'I' for Inactive)
REMARK    1  A    between atoms: C2_2  and  C3_3 
REMARK    2  A    between atoms: C3_3  and  C4_4 
REMARK    3  A    between atoms: C4_4  and  O1_5 
REMARK    4  A    between atoms: O1_5  and  C5_6 
REMARK    5  A    between atoms: C5_6  and  C6_7 
REMARK    6  A    between atoms: C6_7  and  C7_8 
REMARK    7  A    between atoms: C7_8  and  N1_9 
REMARK    8  A    between atoms: N1_9  and  C8_12 
REMARK    9  A    between atoms: C8_12  and  C9_13 
REMARK   10  A    between atoms: C9_13  and  N2_14 
REMARK   11  A    between atoms: N2_14  and  C10_17 
REMARK   12  A    between atoms: C10_17  and  C11_18 
REMARK   13  A    between atoms: C16_23  and  N3_24 
REMARK   14  A    between atoms: N3_24  and  C17_26 
REMARK   15  A    between atoms: C17_26  and  C18_27 
REMARK   16  A    between atoms: C18_27  and  N4_28 
REMARK       I    between atoms: N4_28  and  C19_30 
ROOT
HETATM    1  C10 UNL     1      -0.668  18.302  30.881  1.00  0.00     0.270 C 
ENDROOT
BRANCH   1   2
HETATM    2  N2  UNL     1      -0.503  18.021  29.480  1.00  0.00    -0.070 N 
ATOM      3  H22 UNL     1      -0.583  17.020  29.305  1.00  0.00     0.277 HD
ATOM      4  H21 UNL     1       0.466  18.169  29.199  1.00  0.00     0.277 HD
BRANCH   2   5
HETATM    5  C9  UNL     1      -1.388  18.751  28.629  1.00  0.00     0.260 C 
BRANCH   5   6
HETATM    6  C8  UNL     1      -2.807  18.519  29.170  1.00  0.00     0.259 C 
BRANCH   6   7
HETATM    7  N1  UNL     1      -3.729  18.909  28.133  1.00  0.00    -0.073 N 
ATOM      8  H12 UNL     1      -4.466  19.502  28.516  1.00  0.00     0.277 HD
ATOM      9  H11 UNL     1      -4.286  18.109  27.834  1.00  0.00     0.277 HD
BRANCH   7  10
HETATM   10  C7  UNL     1      -3.117  19.541  27.004  1.00  0.00     0.234 C 
BRANCH  10  11
HETATM   11  C6  UNL     1      -3.944  20.691  26.477  1.00  0.00     0.054 C 
BRANCH  11  12
HETATM   12  C5  UNL     1      -3.468  21.954  27.149  1.00  0.00     0.169 C 
BRANCH  12  13
HETATM   13  O1  UNL     1      -3.693  21.908  28.506  1.00  0.00    -0.391 OA
BRANCH  13  14
HETATM   14  C4  UNL     1      -2.673  22.376  29.292  1.00  0.00     0.171 C 
BRANCH  14  15
HETATM   15  C3  UNL     1      -1.813  23.310  28.488  1.00  0.00     0.052 C 
BRANCH  15  16
HETATM   16  C2  UNL     1      -1.957  24.724  28.835  1.00  0.00    -0.035 C 
HETATM   17  C1  UNL     1      -3.068  25.404  29.001  1.00  0.00     0.007 C 
ENDBRANCH  15  16
ENDBRANCH  14  15
ENDBRANCH  13  14
ENDBRANCH  12  13
ENDBRANCH  11  12
ENDBRANCH  10  11
ENDBRANCH   7  10
ENDBRANCH   6   7
ENDBRANCH   5   6
ENDBRANCH   2   5
ENDBRANCH   1   2
BRANCH   1  18
HETATM   18  C11 UNL     1      -0.085  17.135  31.636  1.00  0.00    -0.030 A 
HETATM   19  C12 UNL     1       0.254  15.994  30.943  1.00  0.00     0.015 A 
HETATM   20  C13 UNL     1       0.788  14.909  31.599  1.00  0.00    -0.059 A 
HETATM   21  C14 UNL     1       1.147  13.679  30.823  1.00  0.00     0.048 C 
HETATM   22  C15 UNL     1       0.974  14.996  32.955  1.00  0.00     0.036 A 
HETATM   23  C16 UNL     1       0.649  16.118  33.691  1.00  0.00     0.029 A 
HETATM   24  C20 UNL     1       0.118  17.173  32.980  1.00  0.00     0.038 A 
BRANCH  23  25
HETATM   25  N3  UNL     1       0.856  16.175  35.101  1.00  0.00    -0.388 N 
ATOM     26  H3  UNL     1       0.309  16.796  35.697  1.00  0.00     0.159 HD
BRANCH  25  27
HETATM   27  C17 UNL     1       1.898  15.298  35.653  1.00  0.00     0.139 C 
BRANCH  27  28
HETATM   28  C18 UNL     1       1.235  14.419  36.667  1.00  0.00     0.143 C 
BRANCH  28  29
HETATM   29  N4  UNL     1       2.206  13.623  37.364  1.00  0.00    -0.344 N 
HETATM   30  C19 UNL     1       2.861  14.085  38.529  1.00  0.00     0.328 C 
HETATM   31  N5  UNL     1       3.834  13.272  39.207  1.00  0.00    -0.040 NA
HETATM   32  O2  UNL     1       2.643  15.209  39.037  1.00  0.00    -0.251 OA
ATOM     33  H4  UNL     1       2.432  12.696  37.007  1.00  0.00     0.163 HD
ENDBRANCH  28  29
ENDBRANCH  27  28
ENDBRANCH  25  27
ENDBRANCH  23  25
ENDBRANCH   1  18
TORSDOF 16
ENDMDL
MODEL 2
REMARK VINA RESULT: -7.501403634      1.284      1.421
REMARK  16 active torsions:
REMARK  status: ('A' for Active; 'I' for Inactive)
REMARK    1  A    between atoms: C2_2  and  C3_3 
REMARK    2  A    between atoms: C3_3  and  C4_4 
REMARK    3  A    between atoms: C4_4  and  O1_5 
REMARK    4  A    between atoms: O1_5  and  C5_6 
REMARK    5  A    between atoms: C5_6  and  C6_7 
REMARK    6  A    between atoms: C6_7  and  C7_8 
REMARK    7  A    between atoms: C7_8  and  N1_9 
REMARK    8  A    between atoms: N1_9  and  C8_12 
REMARK    9  A    between atoms: C8_12  and  C9_13 
REMARK   10  A    between atoms: C9_13  and  N2_14 
REMARK   11  A    between atoms: N2_14  and  C10_17 
REMARK   12  A    between atoms: C10_17  and  C11_18 
REMARK   13  A    between atoms: C16_23  and  N3_24 
REMARK   14  A    between atoms: N3_24  and  C17_26 
REMARK   15  A    between atoms: C17_26  and  C18_27 
REMARK   16  A    between atoms: C18_27  and  N4_28 
REMARK       I    between atoms: N4_28  and  C19_30 
ROOT
HETATM    1  C10 UNL     1      -1.015  17.192  30.297  1.00  0.00     0.270 C 
ENDROOT
BRANCH   1   2
HETATM    2  N2  UNL     1      -1.098  18.572  30.692  1.00  0.00    -0.070 N 
ATOM      3  H22 UNL     1      -0.199  19.034  30.564  1.00  0.00     0.277 HD
ATOM      4  H21 UNL     1      -1.189  18.648  31.705  1.00  0.00     0.277 HD
BRANCH   2   5
HETATM    5  C9  UNL     1      -2.136  19.305  30.040  1.00  0.00     0.260 C 
BRANCH   5   6
HETATM    6  C8  UNL     1      -2.892  18.302  29.157  1.00  0.00     0.259 C 
BRANCH   6   7
HETATM    7  N1  UNL     1      -3.751  19.064  28.284  1.00  0.00    -0.073 N 
ATOM      8  H12 UNL     1      -4.134  19.870  28.777  1.00  0.00     0.277 HD
ATOM      9  H11 UNL     1      -4.612  18.550  28.095  1.00  0.00     0.277 HD
BRANCH   7  10
HETATM   10  C7  UNL     1      -3.136  19.474  27.059  1.00  0.00     0.234 C 
BRANCH  10  11
HETATM   11  C6  UNL     1      -3.918  20.566  26.366  1.00  0.00     0.054 C 
BRANCH  11  12
HETATM   12  C5  UNL     1      -3.439  21.892  26.901  1.00  0.00     0.169 C 
BRANCH  12  13
HETATM   13  O1  UNL     1      -2.186  21.778  27.460  1.00  0.00    -0.391 OA
BRANCH  13  14
HETATM   14  C4  UNL     1      -1.828  22.783  28.319  1.00  0.00     0.171 C 
BRANCH  14  15
HETATM   15  C3  UNL     1      -2.926  22.998  29.322  1.00  0.00     0.052 C 
BRANCH  15  16
HETATM   16  C2  UNL     1      -3.189  24.399  29.648  1.00  0.00    -0.035 C 
HETATM   17  C1  UNL     1      -3.160  25.435  28.840  1.00  0.00     0.007 C 
ENDBRANCH  15  16
ENDBRANCH  14  15
ENDBRANCH  13  14
ENDBRANCH  12  13
ENDBRANCH  11  12
ENDBRANCH  10  11
ENDBRANCH   7  10
ENDBRANCH   6   7
ENDBRANCH   5   6
ENDBRANCH   2   5
ENDBRANCH   1   2
BRANCH   1  18
HETATM   18  C11 UNL     1       0.188  16.607  30.991  1.00  0.00    -0.030 A 
HETATM   19  C12 UNL     1       1.438  16.817  30.451  1.00  0.00     0.015 A 
HETATM   20  C13 UNL     1       2.560  16.298  31.056  1.00  0.00    -0.059 A 
HETATM   21  C14 UNL     1       3.907  16.539  30.447  1.00  0.00     0.048 C 
HETATM   22  C15 UNL     1       2.399  15.571  32.207  1.00  0.00     0.036 A 
HETATM   23  C16 UNL     1       1.167  15.334  32.786  1.00  0.00     0.029 A 
HETATM   24  C20 UNL     1       0.081  15.879  32.135  1.00  0.00     0.038 A 
BRANCH  23  25
HETATM   25  N3  UNL     1       1.036  14.575  33.985  1.00  0.00    -0.388 N 
ATOM     26  H3  UNL     1       0.578  13.664  33.994  1.00  0.00     0.159 HD
BRANCH  25  27
HETATM   27  C17 UNL     1       1.593  15.169  35.209  1.00  0.00     0.139 C 
BRANCH  27  28
HETATM   28  C18 UNL     1       1.283  14.227  36.331  1.00  0.00     0.143 C 
BRANCH  28  29
HETATM   29  N4  UNL     1       2.485  13.817  36.999  1.00  0.00    -0.344 N 
HETATM   30  C19 UNL     1       2.607  13.834  38.408  1.00  0.00     0.328 C 
HETATM   31  N5  UNL     1       3.824  13.423  39.054  1.00  0.00    -0.040 NA
HETATM   32  O2  UNL     1       1.684  14.203  39.170  1.00  0.00    -0.251 OA
ATOM     33  H4  UNL     1       3.278  13.503  36.440  1.00  0.00     0.163 HD
ENDBRANCH  28  29
ENDBRANCH  27  28
ENDBRANCH  25  27
ENDBRANCH  23  25
ENDBRANCH   1  18
TORSDOF 16
ENDMDL
MODEL 3
REMARK VINA RESULT: -7.495368294      0.996      1.129
REMARK  16 active torsions:
REMARK  status: ('A' for Active; 'I' for Inactive)
REMARK    1  A    between atoms: C2_2  and  C3_3 
REMARK    2  A    between atoms: C3_3  and  C4_4 
REMARK    3  A    between atoms: C4_4  and  O1_5 
REMARK    4  A    between atoms: O1_5  and  C5_6 
REMARK    5  A    between atoms: C5_6  and  C6_7 
REMARK    6  A    between atoms: C6_7  and  C7_8 
REMARK    7  A    between atoms: C7_8  and  N1_9 
REMARK    8  A    between atoms: N1_9  and  C8_12 
REMARK    9  A    between atoms: C8_12  and  C9_13 
REMARK   10  A    between atoms: C9_13  and  N2_14 
REMARK   11  A    between atoms: N2_14  and  C10_17 
REMARK   12  A    between atoms: C10_17  and  C11_18 
REMARK   13  A    between atoms: C16_23  and  N3_24 
REMARK   14  A    between atoms: N3_24  and  C17_26 
REMARK   15  A    between atoms: C17_26  and  C18_27 
REMARK   16  A    between atoms: C18_27  and  N4_28 
REMARK       I    between atoms: N4_28  and  C19_30 
ROOT
HETATM    1  C10 UNL     1      -0.609  18.273  31.005  1.00  0.00     0.270 C 
ENDROOT
BRANCH   1   2
HETATM    2  N2  UNL     1      -0.414  18.030  29.601  1.00  0.00    -0.070 N 
ATOM      3  H22 UNL     1      -0.516  17.037  29.394  1.00  0.00     0.277 HD
ATOM      4  H21 UNL     1       0.565  18.159  29.349  1.00  0.00     0.277 HD
BRANCH   2   5
HETATM    5  C9  UNL     1      -1.256  18.808  28.751  1.00  0.00     0.260 C 
BRANCH   5   6
HETATM    6  C8  UNL     1      -2.498  19.172  29.579  1.00  0.00     0.259 C 
BRANCH   6   7
HETATM    7  N1  UNL     1      -3.586  19.371  28.653  1.00  0.00    -0.073 N 
ATOM      8  H12 UNL     1      -4.185  20.134  28.966  1.00  0.00     0.277 HD
ATOM      9  H11 UNL     1      -4.247  18.596  28.709  1.00  0.00     0.277 HD
BRANCH   7  10
HETATM   10  C7  UNL     1      -3.179  19.581  27.297  1.00  0.00     0.234 C 
BRANCH  10  11
HETATM   11  C6  UNL     1      -4.033  20.614  26.599  1.00  0.00     0.054 C 
BRANCH  11  12
HETATM   12  C5  UNL     1      -3.460  21.975  26.904  1.00  0.00     0.169 C 
BRANCH  12  13
HETATM   13  O1  UNL     1      -2.159  21.878  27.343  1.00  0.00    -0.391 OA
BRANCH  13  14
HETATM   14  C4  UNL     1      -1.754  22.854  28.215  1.00  0.00     0.171 C 
BRANCH  14  15
HETATM   15  C3  UNL     1      -2.763  22.986  29.320  1.00  0.00     0.052 C 
BRANCH  15  16
HETATM   16  C2  UNL     1      -3.152  24.362  29.631  1.00  0.00    -0.035 C 
HETATM   17  C1  UNL     1      -3.253  25.378  28.804  1.00  0.00     0.007 C 
ENDBRANCH  15  16
ENDBRANCH  14  15
ENDBRANCH  13  14
ENDBRANCH  12  13
ENDBRANCH  11  12
ENDBRANCH  10  11
ENDBRANCH   7  10
ENDBRANCH   6   7
ENDBRANCH   5   6
ENDBRANCH   2   5
ENDBRANCH   1   2
BRANCH   1  18
HETATM   18  C11 UNL     1      -0.013  17.100  31.742  1.00  0.00    -0.030 A 
HETATM   19  C12 UNL     1       0.275  15.949  31.043  1.00  0.00     0.015 A 
HETATM   20  C13 UNL     1       0.819  14.858  31.683  1.00  0.00    -0.059 A 
HETATM   21  C14 UNL     1       1.121  13.617  30.900  1.00  0.00     0.048 C 
HETATM   22  C15 UNL     1       1.066  14.951  33.028  1.00  0.00     0.036 A 
HETATM   23  C16 UNL     1       0.794  16.084  33.770  1.00  0.00     0.029 A 
HETATM   24  C20 UNL     1       0.251  17.143  33.076  1.00  0.00     0.038 A 
BRANCH  23  25
HETATM   25  N3  UNL     1       1.066  16.146  35.168  1.00  0.00    -0.388 N 
ATOM     26  H3  UNL     1       0.376  15.855  35.860  1.00  0.00     0.159 HD
BRANCH  25  27
HETATM   27  C17 UNL     1       2.389  16.650  35.564  1.00  0.00     0.139 C 
BRANCH  27  28
HETATM   28  C18 UNL     1       3.274  15.457  35.746  1.00  0.00     0.143 C 
BRANCH  28  29
HETATM   29  N4  UNL     1       3.306  15.052  37.123  1.00  0.00    -0.344 N 
HETATM   30  C19 UNL     1       2.384  14.122  37.656  1.00  0.00     0.328 C 
HETATM   31  N5  UNL     1       2.434  13.736  39.040  1.00  0.00    -0.040 NA
HETATM   32  O2  UNL     1       1.481  13.586  36.973  1.00  0.00    -0.251 OA
ATOM     33  H4  UNL     1       4.018  15.448  37.737  1.00  0.00     0.163 HD
ENDBRANCH  28  29
ENDBRANCH  27  28
ENDBRANCH  25  27
ENDBRANCH  23  25
ENDBRANCH   1  18
TORSDOF 16
ENDMDL
MODEL 4
REMARK VINA RESULT: -7.437841339      1.520      1.793
REMARK  16 active torsions:
REMARK  status: ('A' for Active; 'I' for Inactive)
REMARK    1  A    between atoms: C2_2  and  C3_3 
REMARK    2  A    between atoms: C3_3  and  C4_4 
REMARK    3  A    between atoms: C4_4  and  O1_5 
REMARK    4  A    between atoms: O1_5  and  C5_6 
REMARK    5  A    between atoms: C5_6  and  C6_7 
REMARK    6  A    between atoms: C6_7  and  C7_8 
REMARK    7  A    between atoms: C7_8  and  N1_9 
REMARK    8  A    between atoms: N1_9  and  C8_12 
REMARK    9  A    between atoms: C8_12  and  C9_13 
REMARK   10  A    between atoms: C9_13  and  N2_14 
REMARK   11  A    between atoms: N2_14  and  C10_17 
REMARK   12  A    between atoms: C10_17  and  C11_18 
REMARK   13  A    between atoms: C16_23  and  N3_24 
REMARK   14  A    between atoms: N3_24  and  C17_26 
REMARK   15  A    between atoms: C17_26  and  C18_27 
REMARK   16  A    between atoms: C18_27  and  N4_28 
REMARK       I    between atoms: N4_28  and  C19_30 
ROOT
HETATM    1  C10 UNL     1      -0.491  16.758  30.015  1.00  0.00     0.270 C 
ENDROOT
BRANCH   1   2
HETATM    2  N2  UNL     1      -0.577  18.192  30.078  1.00  0.00    -0.070 N 
ATOM      3  H22 UNL     1      -0.501  18.595  29.145  1.00  0.00     0.277 HD
ATOM      4  H21 UNL     1       0.264  18.582  30.503  1.00  0.00     0.277 HD
BRANCH   2   5
HETATM    5  C9  UNL     1      -1.744  18.679  30.741  1.00  0.00     0.260 C 
BRANCH   5   6
HETATM    6  C8  UNL     1      -2.286  19.833  29.884  1.00  0.00     0.259 C 
BRANCH   6   7
HETATM    7  N1  UNL     1      -3.620  19.470  29.473  1.00  0.00    -0.073 N 
ATOM      8  H12 UNL     1      -4.249  20.268  29.561  1.00  0.00     0.277 HD
ATOM      9  H11 UNL     1      -4.042  18.839  30.154  1.00  0.00     0.277 HD
BRANCH   7  10
HETATM   10  C7  UNL     1      -3.703  18.912  28.158  1.00  0.00     0.234 C 
BRANCH  10  11
HETATM   11  C6  UNL     1      -3.007  19.773  27.129  1.00  0.00     0.054 C 
BRANCH  11  12
HETATM   12  C5  UNL     1      -4.055  20.601  26.429  1.00  0.00     0.169 C 
BRANCH  12  13
HETATM   13  O1  UNL     1      -4.404  21.699  27.181  1.00  0.00    -0.391 OA
BRANCH  13  14
HETATM   14  C4  UNL     1      -3.384  22.569  27.465  1.00  0.00     0.171 C 
BRANCH  14  15
HETATM   15  C3  UNL     1      -3.564  23.114  28.854  1.00  0.00     0.052 C 
BRANCH  15  16
HETATM   16  C2  UNL     1      -2.335  23.593  29.485  1.00  0.00    -0.035 C 
HETATM   17  C1  UNL     1      -2.072  23.689  30.769  1.00  0.00     0.007 C 
ENDBRANCH  15  16
ENDBRANCH  14  15
ENDBRANCH  13  14
ENDBRANCH  12  13
ENDBRANCH  11  12
ENDBRANCH  10  11
ENDBRANCH   7  10
ENDBRANCH   6   7
ENDBRANCH   5   6
ENDBRANCH   2   5
ENDBRANCH   1   2
BRANCH   1  18
HETATM   18  C11 UNL     1       0.480  16.328  31.084  1.00  0.00    -0.030 A 
HETATM   19  C12 UNL     1       1.825  16.567  30.901  1.00  0.00     0.015 A 
HETATM   20  C13 UNL     1       2.741  16.187  31.855  1.00  0.00    -0.059 A 
HETATM   21  C14 UNL     1       4.197  16.457  31.629  1.00  0.00     0.048 C 
HETATM   22  C15 UNL     1       2.280  15.569  32.989  1.00  0.00     0.036 A 
HETATM   23  C16 UNL     1       0.943  15.309  33.216  1.00  0.00     0.029 A 
HETATM   24  C20 UNL     1       0.073  15.711  32.226  1.00  0.00     0.038 A 
BRANCH  23  25
HETATM   25  N3  UNL     1       0.498  14.666  34.409  1.00  0.00    -0.388 N 
ATOM     26  H3  UNL     1      -0.121  13.856  34.379  1.00  0.00     0.159 HD
BRANCH  25  27
HETATM   27  C17 UNL     1       0.973  15.227  35.681  1.00  0.00     0.139 C 
BRANCH  27  28
HETATM   28  C18 UNL     1       1.670  14.121  36.412  1.00  0.00     0.143 C 
BRANCH  28  29
HETATM   29  N4  UNL     1       1.226  14.054  37.776  1.00  0.00    -0.344 N 
HETATM   30  C19 UNL     1       2.102  13.725  38.836  1.00  0.00     0.328 C 
HETATM   31  N5  UNL     1       1.633  13.659  40.194  1.00  0.00    -0.040 NA
HETATM   32  O2  UNL     1       3.317  13.473  38.668  1.00  0.00    -0.251 OA
ATOM     33  H4  UNL     1       0.248  14.250  37.986  1.00  0.00     0.163 HD
ENDBRANCH  28  29
ENDBRANCH  27  28
ENDBRANCH  25  27
ENDBRANCH  23  25
ENDBRANCH   1  18
TORSDOF 16
ENDMDL
MODEL 5
REMARK VINA RESULT: -7.374947566      1.124      1.200
REMARK  16 active torsions:
REMARK  status: ('A' for Active; 'I' for Inactive)
REMARK    1  A    between atoms: C2_2  and  C3_3 
REMARK    2  A    between atoms: C3_3  and  C4_4 
REMARK    3  A    between atoms: C4_4  and  O1_5 
REMARK    4  A    between atoms: O1_5  and  C5_6 
REMARK    5  A    between atoms: C5_6  and  C6_7 
REMARK    6  A    between atoms: C6_7  and  C7_8 
REMARK    7  A    between atoms: C7_8  and  N1_9 
REMARK    8  A    between atoms: N1_9  and  C8_12 
REMARK    9  A    between atoms: C8_12  and  C9_13 
REMARK   10  A    between atoms: C9_13  and  N2_14 
REMARK   11  A    between atoms: N2_14  and  C10_17 
REMARK   12  A    between atoms: C10_17  and  C11_18 
REMARK   13  A    between atoms: C16_23  and  N3_24 
REMARK   14  A    between atoms: N3_24  and  C17_26 
REMARK   15  A    between atoms: C17_26  and  C18_27 
REMARK   16  A    between atoms: C18_27  and  N4_28 
REMARK       I    between atoms: N4_28  and  C19_30 
ROOT
HETATM    1  C10 UNL     1      -0.630  18.279  30.815  1.00  0.00     0.270 C 
ENDROOT
BRANCH   1   2
HETATM    2  N2  UNL     1      -0.406  17.994  29.424  1.00  0.00    -0.070 N 
ATOM      3  H22 UNL     1      -0.044  17.048  29.307  1.00  0.00     0.277 HD
ATOM      4  H21 UNL     1       0.389  18.527  29.073  1.00  0.00     0.277 HD
BRANCH   2   5
HETATM    5  C9  UNL     1      -1.550  18.198  28.594  1.00  0.00     0.260 C 
BRANCH   5   6
HETATM    6  C8  UNL     1      -2.669  18.714  29.510  1.00  0.00     0.259 C 
BRANCH   6   7
HETATM    7  N1  UNL     1      -3.689  19.281  28.662  1.00  0.00    -0.073 N 
ATOM      8  H12 UNL     1      -4.101  20.103  29.103  1.00  0.00     0.277 HD
ATOM      9  H11 UNL     1      -4.506  18.671  28.633  1.00  0.00     0.277 HD
BRANCH   7  10
HETATM   10  C7  UNL     1      -3.250  19.592  27.336  1.00  0.00     0.234 C 
BRANCH  10  11
HETATM   11  C6  UNL     1      -4.125  20.633  26.676  1.00  0.00     0.054 C 
BRANCH  11  12
HETATM   12  C5  UNL     1      -3.515  21.987  26.939  1.00  0.00     0.169 C 
BRANCH  12  13
HETATM   13  O1  UNL     1      -3.532  22.286  28.282  1.00  0.00    -0.391 OA
BRANCH  13  14
HETATM   14  C4  UNL     1      -2.369  22.806  28.788  1.00  0.00     0.171 C 
BRANCH  14  15
HETATM   15  C3  UNL     1      -2.420  22.773  30.289  1.00  0.00     0.052 C 
BRANCH  15  16
HETATM   16  C2  UNL     1      -2.026  24.023  30.939  1.00  0.00    -0.035 C 
HETATM   17  C1  UNL     1      -1.662  24.202  32.189  1.00  0.00     0.007 C 
ENDBRANCH  15  16
ENDBRANCH  14  15
ENDBRANCH  13  14
ENDBRANCH  12  13
ENDBRANCH  11  12
ENDBRANCH  10  11
ENDBRANCH   7  10
ENDBRANCH   6   7
ENDBRANCH   5   6
ENDBRANCH   2   5
ENDBRANCH   1   2
BRANCH   1  18
HETATM   18  C11 UNL     1      -0.070  17.119  31.598  1.00  0.00    -0.030 A 
HETATM   19  C12 UNL     1       0.259  15.959  30.931  1.00  0.00     0.015 A 
HETATM   20  C13 UNL     1       0.772  14.879  31.612  1.00  0.00    -0.059 A 
HETATM   21  C14 UNL     1       1.119  13.629  30.863  1.00  0.00     0.048 C 
HETATM   22  C15 UNL     1       0.948  14.990  32.967  1.00  0.00     0.036 A 
HETATM   23  C16 UNL     1       0.633  16.132  33.679  1.00  0.00     0.029 A 
HETATM   24  C20 UNL     1       0.123  17.180  32.943  1.00  0.00     0.038 A 
BRANCH  23  25
HETATM   25  N3  UNL     1       0.831  16.214  35.088  1.00  0.00    -0.388 N 
ATOM     26  H3  UNL     1       0.946  17.110  35.560  1.00  0.00     0.159 HD
BRANCH  25  27
HETATM   27  C17 UNL     1       0.860  14.944  35.828  1.00  0.00     0.139 C 
BRANCH  27  28
HETATM   28  C18 UNL     1       1.954  15.056  36.844  1.00  0.00     0.143 C 
BRANCH  28  29
HETATM   29  N4  UNL     1       1.480  14.684  38.146  1.00  0.00    -0.344 N 
HETATM   30  C19 UNL     1       2.245  13.884  39.026  1.00  0.00     0.328 C 
HETATM   31  N5  UNL     1       1.746  13.520  40.325  1.00  0.00    -0.040 NA
HETATM   32  O2  UNL     1       3.383  13.447  38.738  1.00  0.00    -0.251 OA
ATOM     33  H4  UNL     1       0.560  15.006  38.447  1.00  0.00     0.163 HD
ENDBRANCH  28  29
ENDBRANCH  27  28
ENDBRANCH  25  27
ENDBRANCH  23  25
ENDBRANCH   1  18
TORSDOF 16
ENDMDL
