MODEL 1
REMARK VINA RESULT: -9.681823170      0.000      0.000
REMARK  18 active torsions:
REMARK  status: ('A' for Active; 'I' for Inactive)
REMARK       I    between atoms: C1_4  and  N3_6 
REMARK    1  A    between atoms: N3_6  and  C2_8 
REMARK    2  A    between atoms: N4_11  and  C5_12 
REMARK    3  A    between atoms: C5_12  and  C6_13 
REMARK    4  A    between atoms: C5_12  and  C18_30 
REMARK    5  A    between atoms: C6_13  and  C7_14 
REMARK       I    between atoms: C7_14  and  N5_16 
REMARK    6  A    between atoms: N5_16  and  C8_18 
REMARK    7  A    between atoms: C11_21  and  O2_22 
REMARK       I    between atoms: C18_30  and  N6_32 
REMARK    8  A    between atoms: N6_32  and  C19_34 
REMARK    9  A    between atoms: C19_34  and  C20_35 
REMARK   10  A    between atoms: C19_34  and  C21_38 
REMARK   11  A    between atoms: C20_35  and  O4_36 
REMARK       I    between atoms: C21_38  and  N7_40 
REMARK       I    between atoms: N7_40  and  C22_42 
REMARK   12  A    between atoms: C22_42  and  C23_44 
REMARK       I    between atoms: C23_44  and  N8_46 
REMARK   13  A    between atoms: N8_46  and  S1_48 
REMARK   14  A    between atoms: S1_48  and  N9_49 
REMARK   15  A    between atoms: S1_48  and  O8_52 
REMARK   16  A    between atoms: S1_48  and  O9_54 
REMARK   17  A    between atoms: S1_48  and  N10_56 
REMARK   18  A    between atoms: N10_56  and  N11_58 
ROOT
HETATM    1  C18 UNL     1      -0.226 -43.670 -23.659  1.00  0.00     0.242 C 
HETATM    2  O3  UNL     1       0.057 -44.420 -22.705  1.00  0.00    -0.271 OA
HETATM    3  N6  UNL     1       0.183 -44.047 -24.967  1.00  0.00    -0.344 N 
ATOM      4  H6  UNL     1      -0.051 -43.429 -25.744  1.00  0.00     0.163 HD
ENDROOT
BRANCH   1   5
HETATM    5  C5  UNL     1      -0.971 -42.417 -23.399  1.00  0.00     0.189 C 
BRANCH   5   6
HETATM    6  N4  UNL     1      -0.139 -41.411 -22.783  1.00  0.00    -0.350 N 
HETATM    7  C4  UNL     1       1.051 -41.040 -23.284  1.00  0.00     0.094 A 
HETATM    8  C3  UNL     1       1.579 -40.071 -22.459  1.00  0.00     0.048 A 
HETATM    9  C2  UNL     1       0.695 -39.843 -21.432  1.00  0.00     0.051 A 
HETATM   10  C24 UNL     1      -0.375 -40.708 -21.673  1.00  0.00     0.121 A 
BRANCH   9  11
HETATM   11  N3  UNL     1       0.811 -38.928 -20.340  1.00  0.00    -0.330 N 
HETATM   12  C1  UNL     1       1.301 -39.351 -19.078  1.00  0.00     0.186 C 
HETATM   13  N1  UNL     1       0.606 -40.174 -18.380  1.00  0.00    -0.373 N 
HETATM   14  N2  UNL     1       2.533 -38.886 -18.579  1.00  0.00    -0.064 NA
ATOM     15  H12 UNL     1       0.959 -40.479 -17.472  1.00  0.00     0.158 HD
ATOM     16  H11 UNL     1      -0.286 -40.511 -18.742  1.00  0.00     0.158 HD
ATOM     17  H3  UNL     1       0.537 -37.954 -20.470  1.00  0.00     0.168 HD
ENDBRANCH   9  11
ENDBRANCH   5   6
BRANCH   5  18
HETATM   18  C6  UNL     1      -1.836 -41.945 -24.502  1.00  0.00     0.138 C 
BRANCH  18  19
HETATM   19  C7  UNL     1      -2.876 -40.942 -24.090  1.00  0.00     0.224 C 
HETATM   20  O1  UNL     1      -3.770 -41.230 -23.292  1.00  0.00    -0.273 OA
HETATM   21  N5  UNL     1      -2.783 -39.658 -24.659  1.00  0.00    -0.326 N 
ATOM     22  H5  UNL     1      -2.002 -39.531 -25.303  1.00  0.00     0.169 HD
BRANCH  21  23
HETATM   23  C8  UNL     1      -3.583 -38.533 -24.484  1.00  0.00     0.046 A 
HETATM   24  C9  UNL     1      -4.765 -38.328 -25.168  1.00  0.00     0.033 A 
HETATM   25  C10 UNL     1      -5.529 -37.206 -24.990  1.00  0.00     0.039 A 
HETATM   26  C11 UNL     1      -5.164 -36.222 -24.125  1.00  0.00     0.076 A 
HETATM   27  C12 UNL     1      -3.980 -36.411 -23.428  1.00  0.00     0.009 A 
HETATM   28  C13 UNL     1      -3.638 -35.381 -22.545  1.00  0.00     0.015 A 
HETATM   29  C17 UNL     1      -3.187 -37.533 -23.587  1.00  0.00     0.004 A 
HETATM   30  C14 UNL     1      -2.473 -35.524 -21.830  1.00  0.00     0.001 A 
HETATM   31  C15 UNL     1      -1.662 -36.616 -21.956  1.00  0.00     0.001 A 
HETATM   32  C16 UNL     1      -2.031 -37.620 -22.843  1.00  0.00     0.014 A 
BRANCH  26  33
HETATM   33  O2  UNL     1      -5.922 -35.068 -23.922  1.00  0.00    -0.360 OA
ATOM     34  H2  UNL     1      -5.563 -34.272 -23.547  1.00  0.00     0.217 HD
ENDBRANCH  26  33
ENDBRANCH  21  23
ENDBRANCH  18  19
ENDBRANCH   5  18
ENDBRANCH   1   5
BRANCH   3  35
HETATM   35  C19 UNL     1       0.920 -45.276 -25.257  1.00  0.00     0.200 C 
BRANCH  35  36
HETATM   36  C20 UNL     1       2.406 -45.028 -24.937  1.00  0.00     0.199 C 
BRANCH  36  37
HETATM   37  O4  UNL     1       2.693 -45.694 -23.760  1.00  0.00    -0.398 OA
ATOM     38  H4  UNL     1       3.151 -45.085 -23.191  1.00  0.00     0.209 HD
ENDBRANCH  36  37
ENDBRANCH  35  36
BRANCH  35  39
HETATM   39  C21 UNL     1       0.703 -45.699 -26.640  1.00  0.00     0.249 C 
HETATM   40  O5  UNL     1       1.435 -45.171 -27.555  1.00  0.00    -0.271 OA
HETATM   41  N7  UNL     1      -0.239 -46.644 -27.087  1.00  0.00    -0.287 N 
HETATM   42  C22 UNL     1      -0.338 -47.027 -28.445  1.00  0.00     0.317 C 
ATOM     43  H7  UNL     1      -0.871 -47.068 -26.409  1.00  0.00     0.172 HD
HETATM   44  O6  UNL     1       0.428 -46.475 -29.273  1.00  0.00    -0.262 OA
BRANCH  42  45
HETATM   45  C23 UNL     1      -1.291 -48.033 -28.901  1.00  0.00     0.323 C 
HETATM   46  O7  UNL     1      -0.874 -49.202 -29.117  1.00  0.00    -0.261 OA
HETATM   47  N8  UNL     1      -2.630 -47.704 -29.097  1.00  0.00    -0.248 N 
ATOM     48  H8  UNL     1      -2.954 -46.754 -28.917  1.00  0.00     0.182 HD
BRANCH  47  49
HETATM   49  S1  UNL     1      -3.860 -49.033 -29.698  1.00  0.00     0.136 SA
BRANCH  49  50
HETATM   50  N9  UNL     1      -3.374 -50.803 -29.220  1.00  0.00    -0.330 N 
ATOM     51  H92 UNL     1      -2.401 -51.094 -29.129  1.00  0.00     0.169 HD
ATOM     52  H91 UNL     1      -4.170 -51.423 -29.065  1.00  0.00     0.169 HD
ENDBRANCH  49  50
BRANCH  49  53
HETATM   53  O8  UNL     1      -5.229 -48.660 -30.651  1.00  0.00    -0.292 OA
ATOM     54  H8  UNL     1      -5.207 -48.657 -31.601  1.00  0.00     0.232 HD
ENDBRANCH  49  53
BRANCH  49  55
HETATM   55  O9  UNL     1      -2.974 -49.235 -31.018  1.00  0.00    -0.292 OA
ATOM     56  H9  UNL     1      -3.708 -48.943 -31.546  1.00  0.00     0.232 HD
ENDBRANCH  49  55
BRANCH  49  57
HETATM   57  N10 UNL     1      -4.846 -48.885 -28.241  1.00  0.00    -0.237 N 
ATOM     58  H10 UNL     1      -4.465 -48.481 -27.385  1.00  0.00     0.199 HD
BRANCH  57  59
HETATM   59  N11 UNL     1      -6.193 -49.349 -28.303  1.00  0.00    -0.336 N 
ATOM     60 2H11 UNL     1      -6.863 -48.899 -28.928  1.00  0.00     0.177 HD
ATOM     61 1H11 UNL     1      -6.452 -50.135 -27.706  1.00  0.00     0.177 HD
ENDBRANCH  57  59
ENDBRANCH  49  57
ENDBRANCH  47  49
ENDBRANCH  42  45
ENDBRANCH  35  39
ENDBRANCH   3  35
TORSDOF 18
ENDMDL
MODEL 2
REMARK VINA RESULT: -9.522754500      2.447      2.922
REMARK  18 active torsions:
REMARK  status: ('A' for Active; 'I' for Inactive)
REMARK       I    between atoms: C1_4  and  N3_6 
REMARK    1  A    between atoms: N3_6  and  C2_8 
REMARK    2  A    between atoms: N4_11  and  C5_12 
REMARK    3  A    between atoms: C5_12  and  C6_13 
REMARK    4  A    between atoms: C5_12  and  C18_30 
REMARK    5  A    between atoms: C6_13  and  C7_14 
REMARK       I    between atoms: C7_14  and  N5_16 
REMARK    6  A    between atoms: N5_16  and  C8_18 
REMARK    7  A    between atoms: C11_21  and  O2_22 
REMARK       I    between atoms: C18_30  and  N6_32 
REMARK    8  A    between atoms: N6_32  and  C19_34 
REMARK    9  A    between atoms: C19_34  and  C20_35 
REMARK   10  A    between atoms: C19_34  and  C21_38 
REMARK   11  A    between atoms: C20_35  and  O4_36 
REMARK       I    between atoms: C21_38  and  N7_40 
REMARK       I    between atoms: N7_40  and  C22_42 
REMARK   12  A    between atoms: C22_42  and  C23_44 
REMARK       I    between atoms: C23_44  and  N8_46 
REMARK   13  A    between atoms: N8_46  and  S1_48 
REMARK   14  A    between atoms: S1_48  and  N9_49 
REMARK   15  A    between atoms: S1_48  and  O8_52 
REMARK   16  A    between atoms: S1_48  and  O9_54 
REMARK   17  A    between atoms: S1_48  and  N10_56 
REMARK   18  A    between atoms: N10_56  and  N11_58 
ROOT
HETATM    1  C18 UNL     1      -0.892 -43.932 -23.293  1.00  0.00     0.242 C 
HETATM    2  O3  UNL     1      -1.480 -45.018 -23.126  1.00  0.00    -0.271 OA
HETATM    3  N6  UNL     1       0.182 -43.874 -24.223  1.00  0.00    -0.344 N 
ATOM      4  H6  UNL     1       0.659 -42.982 -24.355  1.00  0.00     0.163 HD
ENDROOT
BRANCH   1   5
HETATM    5  C5  UNL     1      -1.328 -42.746 -22.521  1.00  0.00     0.189 C 
BRANCH   5   6
HETATM    6  N4  UNL     1      -1.825 -43.106 -21.213  1.00  0.00    -0.350 N 
HETATM    7  C4  UNL     1      -3.069 -42.815 -20.799  1.00  0.00     0.094 A 
HETATM    8  C3  UNL     1      -3.213 -43.291 -19.514  1.00  0.00     0.048 A 
HETATM    9  C2  UNL     1      -2.035 -43.885 -19.134  1.00  0.00     0.051 A 
HETATM   10  C24 UNL     1      -1.186 -43.747 -20.233  1.00  0.00     0.121 A 
BRANCH   9  11
HETATM   11  N3  UNL     1      -1.714 -44.519 -17.892  1.00  0.00    -0.330 N 
HETATM   12  C1  UNL     1      -2.647 -44.554 -16.825  1.00  0.00     0.186 C 
HETATM   13  N1  UNL     1      -2.972 -43.459 -16.240  1.00  0.00    -0.373 N 
HETATM   14  N2  UNL     1      -3.222 -45.767 -16.396  1.00  0.00    -0.064 NA
ATOM     15  H12 UNL     1      -3.644 -43.484 -15.472  1.00  0.00     0.158 HD
ATOM     16  H11 UNL     1      -2.555 -42.581 -16.550  1.00  0.00     0.158 HD
ATOM     17  H3  UNL     1      -0.799 -44.953 -17.772  1.00  0.00     0.168 HD
ENDBRANCH   9  11
ENDBRANCH   5   6
BRANCH   5  18
HETATM   18  C6  UNL     1      -0.415 -41.584 -22.560  1.00  0.00     0.138 C 
BRANCH  18  19
HETATM   19  C7  UNL     1      -0.960 -40.391 -23.294  1.00  0.00     0.224 C 
HETATM   20  O1  UNL     1      -0.292 -39.790 -24.136  1.00  0.00    -0.273 OA
HETATM   21  N5  UNL     1      -2.272 -39.992 -22.974  1.00  0.00    -0.326 N 
ATOM     22  H5  UNL     1      -2.732 -40.564 -22.265  1.00  0.00     0.169 HD
BRANCH  21  23
HETATM   23  C8  UNL     1      -3.042 -38.944 -23.467  1.00  0.00     0.046 A 
HETATM   24  C9  UNL     1      -4.005 -39.103 -24.445  1.00  0.00     0.033 A 
HETATM   25  C10 UNL     1      -4.741 -38.053 -24.926  1.00  0.00     0.039 A 
HETATM   26  C11 UNL     1      -4.564 -36.786 -24.466  1.00  0.00     0.076 A 
HETATM   27  C12 UNL     1      -3.601 -36.606 -23.483  1.00  0.00     0.009 A 
HETATM   28  C13 UNL     1      -3.449 -35.291 -23.032  1.00  0.00     0.015 A 
HETATM   29  C17 UNL     1      -2.843 -37.647 -22.979  1.00  0.00     0.004 A 
HETATM   30  C14 UNL     1      -2.509 -35.064 -22.056  1.00  0.00     0.001 A 
HETATM   31  C15 UNL     1      -1.739 -36.062 -21.530  1.00  0.00     0.001 A 
HETATM   32  C16 UNL     1      -1.916 -37.358 -22.001  1.00  0.00     0.014 A 
BRANCH  26  33
HETATM   33  O2  UNL     1      -5.298 -35.697 -24.937  1.00  0.00    -0.360 OA
ATOM     34  H2  UNL     1      -4.932 -34.824 -25.023  1.00  0.00     0.217 HD
ENDBRANCH  26  33
ENDBRANCH  21  23
ENDBRANCH  18  19
ENDBRANCH   5  18
ENDBRANCH   1   5
BRANCH   3  35
HETATM   35  C19 UNL     1       0.637 -45.025 -25.000  1.00  0.00     0.200 C 
BRANCH  35  36
HETATM   36  C20 UNL     1       2.153 -44.879 -25.226  1.00  0.00     0.199 C 
BRANCH  36  37
HETATM   37  O4  UNL     1       2.791 -45.696 -24.311  1.00  0.00    -0.398 OA
ATOM     38  H4  UNL     1       3.722 -45.512 -24.364  1.00  0.00     0.209 HD
ENDBRANCH  36  37
ENDBRANCH  35  36
BRANCH  35  39
HETATM   39  C21 UNL     1      -0.113 -45.139 -26.250  1.00  0.00     0.249 C 
HETATM   40  O5  UNL     1      -0.395 -44.057 -26.884  1.00  0.00    -0.271 OA
HETATM   41  N7  UNL     1      -0.566 -46.329 -26.848  1.00  0.00    -0.287 N 
HETATM   42  C22 UNL     1      -1.241 -46.340 -28.091  1.00  0.00     0.317 C 
ATOM     43  H7  UNL     1      -0.401 -47.215 -26.369  1.00  0.00     0.172 HD
HETATM   44  O6  UNL     1      -1.463 -45.240 -28.654  1.00  0.00    -0.262 OA
BRANCH  42  45
HETATM   45  C23 UNL     1      -1.679 -47.579 -28.726  1.00  0.00     0.323 C 
HETATM   46  O7  UNL     1      -0.805 -48.413 -29.081  1.00  0.00    -0.261 OA
HETATM   47  N8  UNL     1      -3.033 -47.827 -28.938  1.00  0.00    -0.248 N 
ATOM     48  H8  UNL     1      -3.730 -47.142 -28.646  1.00  0.00     0.182 HD
BRANCH  47  49
HETATM   49  S1  UNL     1      -3.584 -49.450 -29.776  1.00  0.00     0.136 SA
BRANCH  49  50
HETATM   50  N9  UNL     1      -2.488 -50.941 -29.359  1.00  0.00    -0.330 N 
ATOM     51  H92 UNL     1      -2.469 -51.779 -29.941  1.00  0.00     0.169 HD
ATOM     52  H91 UNL     1      -1.932 -50.822 -28.513  1.00  0.00     0.169 HD
ENDBRANCH  49  50
BRANCH  49  53
HETATM   53  O8  UNL     1      -4.900 -49.526 -30.865  1.00  0.00    -0.292 OA
ATOM     54  H8  UNL     1      -4.786 -49.657 -31.798  1.00  0.00     0.232 HD
ENDBRANCH  49  53
BRANCH  49  55
HETATM   55  O9  UNL     1      -2.577 -49.152 -30.985  1.00  0.00    -0.292 OA
ATOM     56  H9  UNL     1      -3.303 -49.215 -31.595  1.00  0.00     0.232 HD
ENDBRANCH  49  55
BRANCH  49  57
HETATM   57  N10 UNL     1      -4.674 -49.851 -28.446  1.00  0.00    -0.237 N 
ATOM     58  H10 UNL     1      -4.401 -50.516 -27.722  1.00  0.00     0.199 HD
BRANCH  57  59
HETATM   59  N11 UNL     1      -5.950 -49.213 -28.420  1.00  0.00    -0.336 N 
ATOM     60 2H11 UNL     1      -6.025 -48.225 -28.176  1.00  0.00     0.177 HD
ATOM     61 1H11 UNL     1      -6.767 -49.778 -28.650  1.00  0.00     0.177 HD
ENDBRANCH  57  59
ENDBRANCH  49  57
ENDBRANCH  47  49
ENDBRANCH  42  45
ENDBRANCH  35  39
ENDBRANCH   3  35
TORSDOF 18
ENDMDL
MODEL 3
REMARK VINA RESULT: -9.509602986      2.047      3.137
REMARK  18 active torsions:
REMARK  status: ('A' for Active; 'I' for Inactive)
REMARK       I    between atoms: C1_4  and  N3_6 
REMARK    1  A    between atoms: N3_6  and  C2_8 
REMARK    2  A    between atoms: N4_11  and  C5_12 
REMARK    3  A    between atoms: C5_12  and  C6_13 
REMARK    4  A    between atoms: C5_12  and  C18_30 
REMARK    5  A    between atoms: C6_13  and  C7_14 
REMARK       I    between atoms: C7_14  and  N5_16 
REMARK    6  A    between atoms: N5_16  and  C8_18 
REMARK    7  A    between atoms: C11_21  and  O2_22 
REMARK       I    between atoms: C18_30  and  N6_32 
REMARK    8  A    between atoms: N6_32  and  C19_34 
REMARK    9  A    between atoms: C19_34  and  C20_35 
REMARK   10  A    between atoms: C19_34  and  C21_38 
REMARK   11  A    between atoms: C20_35  and  O4_36 
REMARK       I    between atoms: C21_38  and  N7_40 
REMARK       I    between atoms: N7_40  and  C22_42 
REMARK   12  A    between atoms: C22_42  and  C23_44 
REMARK       I    between atoms: C23_44  and  N8_46 
REMARK   13  A    between atoms: N8_46  and  S1_48 
REMARK   14  A    between atoms: S1_48  and  N9_49 
REMARK   15  A    between atoms: S1_48  and  O8_52 
REMARK   16  A    between atoms: S1_48  and  O9_54 
REMARK   17  A    between atoms: S1_48  and  N10_56 
REMARK   18  A    between atoms: N10_56  and  N11_58 
ROOT
HETATM    1  C18 UNL     1       0.180 -44.065 -24.575  1.00  0.00     0.242 C 
HETATM    2  O3  UNL     1      -0.583 -45.050 -24.607  1.00  0.00    -0.271 OA
HETATM    3  N6  UNL     1       1.488 -44.199 -25.115  1.00  0.00    -0.344 N 
ATOM      4  H6  UNL     1       2.108 -43.388 -25.087  1.00  0.00     0.163 HD
ENDROOT
BRANCH   1   5
HETATM    5  C5  UNL     1      -0.299 -42.797 -23.980  1.00  0.00     0.189 C 
BRANCH   5   6
HETATM    6  N4  UNL     1      -1.287 -43.022 -22.950  1.00  0.00    -0.350 N 
HETATM    7  C4  UNL     1      -2.562 -42.613 -23.059  1.00  0.00     0.094 A 
HETATM    8  C3  UNL     1      -3.227 -42.981 -21.910  1.00  0.00     0.048 A 
HETATM    9  C2  UNL     1      -2.343 -43.628 -21.082  1.00  0.00     0.051 A 
HETATM   10  C24 UNL     1      -1.131 -43.633 -21.774  1.00  0.00     0.121 A 
BRANCH   9  11
HETATM   11  N3  UNL     1      -2.578 -44.189 -19.787  1.00  0.00    -0.330 N 
HETATM   12  C1  UNL     1      -2.525 -43.386 -18.620  1.00  0.00     0.186 C 
HETATM   13  N1  UNL     1      -1.402 -42.884 -18.254  1.00  0.00    -0.373 N 
HETATM   14  N2  UNL     1      -3.682 -43.128 -17.857  1.00  0.00    -0.064 NA
ATOM     15  H12 UNL     1      -1.365 -42.305 -17.414  1.00  0.00     0.158 HD
ATOM     16  H11 UNL     1      -0.565 -43.071 -18.806  1.00  0.00     0.158 HD
ATOM     17  H3  UNL     1      -2.787 -45.184 -19.702  1.00  0.00     0.168 HD
ENDBRANCH   9  11
ENDBRANCH   5   6
BRANCH   5  18
HETATM   18  C6  UNL     1       0.749 -41.805 -23.655  1.00  0.00     0.138 C 
BRANCH  18  19
HETATM   19  C7  UNL     1       0.245 -40.581 -22.944  1.00  0.00     0.224 C 
HETATM   20  O1  UNL     1       0.605 -40.305 -21.799  1.00  0.00    -0.273 OA
HETATM   21  N5  UNL     1      -0.659 -39.763 -23.649  1.00  0.00    -0.326 N 
ATOM     22  H5  UNL     1      -0.883 -40.086 -24.590  1.00  0.00     0.169 HD
BRANCH  21  23
HETATM   23  C8  UNL     1      -1.295 -38.585 -23.269  1.00  0.00     0.046 A 
HETATM   24  C9  UNL     1      -0.738 -37.667 -22.400  1.00  0.00     0.033 A 
HETATM   25  C10 UNL     1      -1.390 -36.521 -22.029  1.00  0.00     0.039 A 
HETATM   26  C11 UNL     1      -2.631 -36.221 -22.498  1.00  0.00     0.076 A 
HETATM   27  C12 UNL     1      -3.206 -37.131 -23.372  1.00  0.00     0.009 A 
HETATM   28  C13 UNL     1      -4.480 -36.788 -23.835  1.00  0.00     0.015 A 
HETATM   29  C17 UNL     1      -2.572 -38.297 -23.764  1.00  0.00     0.004 A 
HETATM   30  C14 UNL     1      -5.091 -37.659 -24.707  1.00  0.00     0.001 A 
HETATM   31  C15 UNL     1      -4.501 -38.819 -25.120  1.00  0.00     0.001 A 
HETATM   32  C16 UNL     1      -3.234 -39.130 -24.640  1.00  0.00     0.014 A 
BRANCH  26  33
HETATM   33  O2  UNL     1      -3.319 -35.062 -22.138  1.00  0.00    -0.360 OA
ATOM     34  H2  UNL     1      -3.347 -34.285 -22.685  1.00  0.00     0.217 HD
ENDBRANCH  26  33
ENDBRANCH  21  23
ENDBRANCH  18  19
ENDBRANCH   5  18
ENDBRANCH   1   5
BRANCH   3  35
HETATM   35  C19 UNL     1       1.991 -45.436 -25.710  1.00  0.00     0.200 C 
BRANCH  35  36
HETATM   36  C20 UNL     1       3.530 -45.367 -25.725  1.00  0.00     0.199 C 
BRANCH  36  37
HETATM   37  O4  UNL     1       3.886 -44.032 -25.778  1.00  0.00    -0.398 OA
ATOM     38  H4  UNL     1       4.530 -43.881 -25.096  1.00  0.00     0.209 HD
ENDBRANCH  36  37
ENDBRANCH  35  36
BRANCH  35  39
HETATM   39  C21 UNL     1       1.422 -45.644 -27.040  1.00  0.00     0.249 C 
HETATM   40  O5  UNL     1       2.080 -45.206 -28.054  1.00  0.00    -0.271 OA
HETATM   41  N7  UNL     1       0.206 -46.287 -27.338  1.00  0.00    -0.287 N 
HETATM   42  C22 UNL     1      -0.237 -46.487 -28.667  1.00  0.00     0.317 C 
ATOM     43  H7  UNL     1      -0.375 -46.622 -26.570  1.00  0.00     0.172 HD
HETATM   44  O6  UNL     1       0.475 -46.043 -29.601  1.00  0.00    -0.262 OA
BRANCH  42  45
HETATM   45  C23 UNL     1      -1.480 -47.186 -28.974  1.00  0.00     0.323 C 
HETATM   46  O7  UNL     1      -2.570 -46.582 -28.795  1.00  0.00    -0.261 OA
HETATM   47  N8  UNL     1      -1.458 -48.494 -29.452  1.00  0.00    -0.248 N 
ATOM     48  H8  UNL     1      -0.567 -48.972 -29.593  1.00  0.00     0.182 HD
BRANCH  47  49
HETATM   49  S1  UNL     1      -3.094 -49.393 -29.844  1.00  0.00     0.136 SA
BRANCH  49  50
HETATM   50  N9  UNL     1      -3.075 -51.243 -29.424  1.00  0.00    -0.330 N 
ATOM     51  H92 UNL     1      -3.199 -51.584 -28.471  1.00  0.00     0.169 HD
ATOM     52  H91 UNL     1      -2.932 -51.849 -30.232  1.00  0.00     0.169 HD
ENDBRANCH  49  50
BRANCH  49  53
HETATM   53  O8  UNL     1      -4.424 -48.611 -30.581  1.00  0.00    -0.292 OA
ATOM     54  H8  UNL     1      -4.960 -49.028 -31.245  1.00  0.00     0.232 HD
ENDBRANCH  49  53
BRANCH  49  55
HETATM   55  O9  UNL     1      -2.512 -49.797 -31.280  1.00  0.00    -0.292 OA
ATOM     56  H9  UNL     1      -3.316 -49.492 -31.683  1.00  0.00     0.232 HD
ENDBRANCH  49  55
BRANCH  49  57
HETATM   57  N10 UNL     1      -3.766 -49.016 -28.255  1.00  0.00    -0.237 N 
ATOM     58  H10 UNL     1      -3.259 -49.245 -27.400  1.00  0.00     0.199 HD
BRANCH  57  59
HETATM   59  N11 UNL     1      -5.042 -48.379 -28.209  1.00  0.00    -0.336 N 
ATOM     60 2H11 UNL     1      -5.165 -47.449 -28.610  1.00  0.00     0.177 HD
ATOM     61 1H11 UNL     1      -5.808 -48.885 -27.767  1.00  0.00     0.177 HD
ENDBRANCH  57  59
ENDBRANCH  49  57
ENDBRANCH  47  49
ENDBRANCH  42  45
ENDBRANCH  35  39
ENDBRANCH   3  35
TORSDOF 18
ENDMDL
MODEL 4
REMARK VINA RESULT: -9.280624621      2.110      4.339
REMARK  18 active torsions:
REMARK  status: ('A' for Active; 'I' for Inactive)
REMARK       I    between atoms: C1_4  and  N3_6 
REMARK    1  A    between atoms: N3_6  and  C2_8 
REMARK    2  A    between atoms: N4_11  and  C5_12 
REMARK    3  A    between atoms: C5_12  and  C6_13 
REMARK    4  A    between atoms: C5_12  and  C18_30 
REMARK    5  A    between atoms: C6_13  and  C7_14 
REMARK       I    between atoms: C7_14  and  N5_16 
REMARK    6  A    between atoms: N5_16  and  C8_18 
REMARK    7  A    between atoms: C11_21  and  O2_22 
REMARK       I    between atoms: C18_30  and  N6_32 
REMARK    8  A    between atoms: N6_32  and  C19_34 
REMARK    9  A    between atoms: C19_34  and  C20_35 
REMARK   10  A    between atoms: C19_34  and  C21_38 
REMARK   11  A    between atoms: C20_35  and  O4_36 
REMARK       I    between atoms: C21_38  and  N7_40 
REMARK       I    between atoms: N7_40  and  C22_42 
REMARK   12  A    between atoms: C22_42  and  C23_44 
REMARK       I    between atoms: C23_44  and  N8_46 
REMARK   13  A    between atoms: N8_46  and  S1_48 
REMARK   14  A    between atoms: S1_48  and  N9_49 
REMARK   15  A    between atoms: S1_48  and  O8_52 
REMARK   16  A    between atoms: S1_48  and  O9_54 
REMARK   17  A    between atoms: S1_48  and  N10_56 
REMARK   18  A    between atoms: N10_56  and  N11_58 
ROOT
HETATM    1  C18 UNL     1      -0.573 -43.755 -23.468  1.00  0.00     0.242 C 
HETATM    2  O3  UNL     1      -1.338 -44.734 -23.372  1.00  0.00    -0.271 OA
HETATM    3  N6  UNL     1       0.557 -43.854 -24.325  1.00  0.00    -0.344 N 
ATOM      4  H6  UNL     1       1.180 -43.049 -24.399  1.00  0.00     0.163 HD
ENDROOT
BRANCH   1   5
HETATM    5  C5  UNL     1      -0.864 -42.529 -22.690  1.00  0.00     0.189 C 
BRANCH   5   6
HETATM    6  N4  UNL     1      -1.490 -41.511 -23.500  1.00  0.00    -0.350 N 
HETATM    7  C4  UNL     1      -0.799 -40.708 -24.326  1.00  0.00     0.094 A 
HETATM    8  C3  UNL     1      -1.692 -39.856 -24.939  1.00  0.00     0.048 A 
HETATM    9  C2  UNL     1      -2.954 -40.143 -24.480  1.00  0.00     0.051 A 
HETATM   10  C24 UNL     1      -2.783 -41.191 -23.574  1.00  0.00     0.121 A 
BRANCH   9  11
HETATM   11  N3  UNL     1      -4.195 -39.525 -24.831  1.00  0.00    -0.330 N 
HETATM   12  C1  UNL     1      -4.527 -38.229 -24.361  1.00  0.00     0.186 C 
HETATM   13  N1  UNL     1      -4.736 -38.051 -23.107  1.00  0.00    -0.373 N 
HETATM   14  N2  UNL     1      -4.630 -37.135 -25.243  1.00  0.00    -0.064 NA
ATOM     15  H12 UNL     1      -4.974 -37.118 -22.768  1.00  0.00     0.158 HD
ATOM     16  H11 UNL     1      -4.661 -38.843 -22.469  1.00  0.00     0.158 HD
ATOM     17  H3  UNL     1      -4.852 -40.024 -25.431  1.00  0.00     0.168 HD
ENDBRANCH   9  11
ENDBRANCH   5   6
BRANCH   5  18
HETATM   18  C6  UNL     1      -1.466 -42.745 -21.356  1.00  0.00     0.138 C 
BRANCH  18  19
HETATM   19  C7  UNL     1      -1.342 -41.573 -20.423  1.00  0.00     0.224 C 
HETATM   20  O1  UNL     1      -2.145 -41.389 -19.507  1.00  0.00    -0.273 OA
HETATM   21  N5  UNL     1      -0.265 -40.694 -20.645  1.00  0.00    -0.326 N 
ATOM     22  H5  UNL     1       0.338 -40.946 -21.429  1.00  0.00     0.169 HD
BRANCH  21  23
HETATM   23  C8  UNL     1       0.111 -39.538 -19.969  1.00  0.00     0.046 A 
HETATM   24  C9  UNL     1       0.781 -39.548 -18.761  1.00  0.00     0.033 A 
HETATM   25  C10 UNL     1       1.127 -38.396 -18.106  1.00  0.00     0.039 A 
HETATM   26  C11 UNL     1       0.828 -37.169 -18.611  1.00  0.00     0.076 A 
HETATM   27  C12 UNL     1       0.156 -37.139 -19.823  1.00  0.00     0.009 A 
HETATM   28  C13 UNL     1      -0.132 -35.861 -20.313  1.00  0.00     0.015 A 
HETATM   29  C17 UNL     1      -0.207 -38.285 -20.507  1.00  0.00     0.004 A 
HETATM   30  C14 UNL     1      -0.796 -35.780 -21.514  1.00  0.00     0.001 A 
HETATM   31  C15 UNL     1      -1.171 -36.885 -22.222  1.00  0.00     0.001 A 
HETATM   32  C16 UNL     1      -0.871 -38.140 -21.706  1.00  0.00     0.014 A 
BRANCH  26  33
HETATM   33  O2  UNL     1       1.168 -35.979 -17.966  1.00  0.00    -0.360 OA
ATOM     34  H2  UNL     1       1.557 -35.238 -18.418  1.00  0.00     0.217 HD
ENDBRANCH  26  33
ENDBRANCH  21  23
ENDBRANCH  18  19
ENDBRANCH   5  18
ENDBRANCH   1   5
BRANCH   3  35
HETATM   35  C19 UNL     1       0.873 -45.049 -25.107  1.00  0.00     0.200 C 
BRANCH  35  36
HETATM   36  C20 UNL     1       2.370 -45.005 -25.462  1.00  0.00     0.199 C 
BRANCH  36  37
HETATM   37  O4  UNL     1       2.470 -44.973 -26.841  1.00  0.00    -0.398 OA
ATOM     38  H4  UNL     1       1.795 -45.545 -27.189  1.00  0.00     0.209 HD
ENDBRANCH  36  37
ENDBRANCH  35  36
BRANCH  35  39
HETATM   39  C21 UNL     1       0.014 -45.140 -26.287  1.00  0.00     0.249 C 
HETATM   40  O5  UNL     1      -0.364 -44.046 -26.844  1.00  0.00    -0.271 OA
HETATM   41  N7  UNL     1      -0.450 -46.322 -26.893  1.00  0.00    -0.287 N 
HETATM   42  C22 UNL     1      -1.237 -46.309 -28.068  1.00  0.00     0.317 C 
ATOM     43  H7  UNL     1      -0.210 -47.219 -26.471  1.00  0.00     0.172 HD
HETATM   44  O6  UNL     1      -1.549 -45.197 -28.560  1.00  0.00    -0.262 OA
BRANCH  42  45
HETATM   45  C23 UNL     1      -1.687 -47.537 -28.716  1.00  0.00     0.323 C 
HETATM   46  O7  UNL     1      -0.823 -48.376 -29.081  1.00  0.00    -0.261 OA
HETATM   47  N8  UNL     1      -3.045 -47.770 -28.927  1.00  0.00    -0.248 N 
ATOM     48  H8  UNL     1      -3.734 -47.082 -28.625  1.00  0.00     0.182 HD
BRANCH  47  49
HETATM   49  S1  UNL     1      -3.613 -49.379 -29.779  1.00  0.00     0.136 SA
BRANCH  49  50
HETATM   50  N9  UNL     1      -2.518 -50.880 -29.397  1.00  0.00    -0.330 N 
ATOM     51  H92 UNL     1      -1.516 -50.793 -29.228  1.00  0.00     0.169 HD
ATOM     52  H91 UNL     1      -3.023 -51.767 -29.378  1.00  0.00     0.169 HD
ENDBRANCH  49  50
BRANCH  49  53
HETATM   53  O8  UNL     1      -4.942 -49.435 -30.853  1.00  0.00    -0.292 OA
ATOM     54  H8  UNL     1      -5.843 -49.466 -30.553  1.00  0.00     0.232 HD
ENDBRANCH  49  53
BRANCH  49  55
HETATM   55  O9  UNL     1      -2.620 -49.069 -30.997  1.00  0.00    -0.292 OA
ATOM     56  H9  UNL     1      -2.292 -48.311 -30.527  1.00  0.00     0.232 HD
ENDBRANCH  49  55
BRANCH  49  57
HETATM   57  N10 UNL     1      -4.688 -49.794 -28.442  1.00  0.00    -0.237 N 
ATOM     58  H10 UNL     1      -4.422 -50.492 -27.748  1.00  0.00     0.199 HD
BRANCH  57  59
HETATM   59  N11 UNL     1      -5.942 -49.119 -28.366  1.00  0.00    -0.336 N 
ATOM     60 2H11 UNL     1      -6.015 -48.139 -28.639  1.00  0.00     0.177 HD
ATOM     61 1H11 UNL     1      -6.747 -49.650 -28.032  1.00  0.00     0.177 HD
ENDBRANCH  57  59
ENDBRANCH  49  57
ENDBRANCH  47  49
ENDBRANCH  42  45
ENDBRANCH  35  39
ENDBRANCH   3  35
TORSDOF 18
ENDMDL
MODEL 5
REMARK VINA RESULT: -9.187718475      4.452      8.956
REMARK  18 active torsions:
REMARK  status: ('A' for Active; 'I' for Inactive)
REMARK       I    between atoms: C1_4  and  N3_6 
REMARK    1  A    between atoms: N3_6  and  C2_8 
REMARK    2  A    between atoms: N4_11  and  C5_12 
REMARK    3  A    between atoms: C5_12  and  C6_13 
REMARK    4  A    between atoms: C5_12  and  C18_30 
REMARK    5  A    between atoms: C6_13  and  C7_14 
REMARK       I    between atoms: C7_14  and  N5_16 
REMARK    6  A    between atoms: N5_16  and  C8_18 
REMARK    7  A    between atoms: C11_21  and  O2_22 
REMARK       I    between atoms: C18_30  and  N6_32 
REMARK    8  A    between atoms: N6_32  and  C19_34 
REMARK    9  A    between atoms: C19_34  and  C20_35 
REMARK   10  A    between atoms: C19_34  and  C21_38 
REMARK   11  A    between atoms: C20_35  and  O4_36 
REMARK       I    between atoms: C21_38  and  N7_40 
REMARK       I    between atoms: N7_40  and  C22_42 
REMARK   12  A    between atoms: C22_42  and  C23_44 
REMARK       I    between atoms: C23_44  and  N8_46 
REMARK   13  A    between atoms: N8_46  and  S1_48 
REMARK   14  A    between atoms: S1_48  and  N9_49 
REMARK   15  A    between atoms: S1_48  and  O8_52 
REMARK   16  A    between atoms: S1_48  and  O9_54 
REMARK   17  A    between atoms: S1_48  and  N10_56 
REMARK   18  A    between atoms: N10_56  and  N11_58 
ROOT
HETATM    1  C18 UNL     1       1.009 -44.937 -24.930  1.00  0.00     0.242 C 
HETATM    2  O3  UNL     1       0.327 -45.665 -25.677  1.00  0.00    -0.271 OA
HETATM    3  N6  UNL     1       0.580 -44.746 -23.588  1.00  0.00    -0.344 N 
ATOM      4  H6  UNL     1       1.143 -44.149 -22.981  1.00  0.00     0.163 HD
ENDROOT
BRANCH   1   5
HETATM    5  C5  UNL     1       2.236 -44.301 -25.462  1.00  0.00     0.189 C 
BRANCH   5   6
HETATM    6  N4  UNL     1       2.946 -45.170 -26.370  1.00  0.00    -0.350 N 
HETATM    7  C4  UNL     1       2.424 -45.594 -27.534  1.00  0.00     0.094 A 
HETATM    8  C3  UNL     1       3.354 -46.404 -28.148  1.00  0.00     0.048 A 
HETATM    9  C2  UNL     1       4.466 -46.479 -27.346  1.00  0.00     0.051 A 
HETATM   10  C24 UNL     1       4.169 -45.687 -26.235  1.00  0.00     0.121 A 
BRANCH   9  11
HETATM   11  N3  UNL     1       5.682 -47.198 -27.569  1.00  0.00    -0.330 N 
HETATM   12  C1  UNL     1       6.053 -48.285 -26.737  1.00  0.00     0.186 C 
HETATM   13  N1  UNL     1       6.351 -48.062 -25.509  1.00  0.00    -0.373 N 
HETATM   14  N2  UNL     1       6.099 -49.603 -27.234  1.00  0.00    -0.064 NA
ATOM     15  H12 UNL     1       6.618 -48.844 -24.910  1.00  0.00     0.158 HD
ATOM     16  H11 UNL     1       6.318 -47.108 -25.150  1.00  0.00     0.158 HD
ATOM     17  H3  UNL     1       6.293 -46.925 -28.339  1.00  0.00     0.168 HD
ENDBRANCH   9  11
ENDBRANCH   5   6
BRANCH   5  18
HETATM   18  C6  UNL     1       2.089 -42.897 -25.904  1.00  0.00     0.138 C 
BRANCH  18  19
HETATM   19  C7  UNL     1       2.014 -41.898 -24.784  1.00  0.00     0.224 C 
HETATM   20  O1  UNL     1       3.025 -41.503 -24.201  1.00  0.00    -0.273 OA
HETATM   21  N5  UNL     1       0.732 -41.435 -24.429  1.00  0.00    -0.326 N 
ATOM     22  H5  UNL     1      -0.031 -41.828 -24.980  1.00  0.00     0.169 HD
BRANCH  21  23
HETATM   23  C8  UNL     1       0.339 -40.529 -23.449  1.00  0.00     0.046 A 
HETATM   24  C9  UNL     1       1.093 -40.252 -22.325  1.00  0.00     0.033 A 
HETATM   25  C10 UNL     1       0.678 -39.367 -21.366  1.00  0.00     0.039 A 
HETATM   26  C11 UNL     1      -0.506 -38.707 -21.466  1.00  0.00     0.076 A 
HETATM   27  C12 UNL     1      -1.277 -38.972 -22.589  1.00  0.00     0.009 A 
HETATM   28  C13 UNL     1      -2.486 -38.273 -22.659  1.00  0.00     0.015 A 
HETATM   29  C17 UNL     1      -0.884 -39.861 -23.573  1.00  0.00     0.004 A 
HETATM   30  C14 UNL     1      -3.283 -38.501 -23.756  1.00  0.00     0.001 A 
HETATM   31  C15 UNL     1      -2.934 -39.369 -24.751  1.00  0.00     0.001 A 
HETATM   32  C16 UNL     1      -1.725 -40.048 -24.649  1.00  0.00     0.014 A 
BRANCH  26  33
HETATM   33  O2  UNL     1      -0.955 -37.800 -20.505  1.00  0.00    -0.360 OA
ATOM     34  H2  UNL     1      -1.571 -37.102 -20.699  1.00  0.00     0.217 HD
ENDBRANCH  26  33
ENDBRANCH  21  23
ENDBRANCH  18  19
ENDBRANCH   5  18
ENDBRANCH   1   5
BRANCH   3  35
HETATM   35  C19 UNL     1      -0.625 -45.359 -23.033  1.00  0.00     0.200 C 
BRANCH  35  36
HETATM   36  C20 UNL     1      -1.845 -44.744 -23.743  1.00  0.00     0.199 C 
BRANCH  36  37
HETATM   37  O4  UNL     1      -1.775 -43.373 -23.577  1.00  0.00    -0.398 OA
ATOM     38  H4  UNL     1      -1.393 -43.009 -24.368  1.00  0.00     0.209 HD
ENDBRANCH  36  37
ENDBRANCH  35  36
BRANCH  35  39
HETATM   39  C21 UNL     1      -0.673 -45.192 -21.581  1.00  0.00     0.249 C 
HETATM   40  O5  UNL     1      -0.093 -46.078 -20.852  1.00  0.00    -0.271 OA
HETATM   41  N7  UNL     1      -1.294 -44.142 -20.880  1.00  0.00    -0.287 N 
HETATM   42  C22 UNL     1      -1.241 -44.040 -19.470  1.00  0.00     0.317 C 
ATOM     43  H7  UNL     1      -1.801 -43.430 -21.407  1.00  0.00     0.172 HD
HETATM   44  O6  UNL     1      -0.640 -44.939 -18.834  1.00  0.00    -0.262 OA
BRANCH  42  45
HETATM   45  C23 UNL     1      -1.857 -42.931 -18.748  1.00  0.00     0.323 C 
HETATM   46  O7  UNL     1      -2.409 -43.168 -17.642  1.00  0.00    -0.261 OA
HETATM   47  N8  UNL     1      -1.836 -41.642 -19.276  1.00  0.00    -0.248 N 
ATOM     48  H8  UNL     1      -1.384 -41.466 -20.174  1.00  0.00     0.182 HD
BRANCH  47  49
HETATM   49  S1  UNL     1      -2.650 -40.208 -18.319  1.00  0.00     0.136 SA
BRANCH  49  50
HETATM   50  N9  UNL     1      -2.873 -40.547 -16.466  1.00  0.00    -0.330 N 
ATOM     51  H92 UNL     1      -2.147 -40.330 -15.783  1.00  0.00     0.169 HD
ATOM     52  H91 UNL     1      -3.774 -40.961 -16.227  1.00  0.00     0.169 HD
ENDBRANCH  49  50
BRANCH  49  53
HETATM   53  O8  UNL     1      -3.200 -38.781 -19.085  1.00  0.00    -0.292 OA
ATOM     54  H8  UNL     1      -3.684 -38.106 -18.625  1.00  0.00     0.232 HD
ENDBRANCH  49  53
BRANCH  49  55
HETATM   55  O9  UNL     1      -4.081 -40.895 -18.533  1.00  0.00    -0.292 OA
ATOM     56  H9  UNL     1      -4.115 -41.096 -17.606  1.00  0.00     0.232 HD
ENDBRANCH  49  55
BRANCH  49  57
HETATM   57  N10 UNL     1      -1.094 -39.431 -18.013  1.00  0.00    -0.237 N 
ATOM     58  H10 UNL     1      -0.219 -39.946 -18.114  1.00  0.00     0.199 HD
BRANCH  57  59
HETATM   59  N11 UNL     1      -1.103 -38.060 -17.620  1.00  0.00    -0.336 N 
ATOM     60 2H11 UNL     1      -1.984 -37.595 -17.402  1.00  0.00     0.177 HD
ATOM     61 1H11 UNL     1      -0.207 -37.576 -17.569  1.00  0.00     0.177 HD
ENDBRANCH  57  59
ENDBRANCH  49  57
ENDBRANCH  47  49
ENDBRANCH  42  45
ENDBRANCH  35  39
ENDBRANCH   3  35
TORSDOF 18
ENDMDL
