MODEL 1
REMARK VINA RESULT: -6.568517212      0.000      0.000
REMARK  6 active torsions:
REMARK  status: ('A' for Active; 'I' for Inactive)
REMARK    1  A    between atoms: N1_1  and  C1_4 
REMARK    2  A    between atoms: C2_7  and  N3_8 
REMARK    3  A    between atoms: C3_10  and  C4_11 
REMARK    4  A    between atoms: C4_11  and  N4_12 
REMARK    5  A    between atoms: C4_11  and  C6_17 
REMARK    6  A    between atoms: C7_20  and  N7_21 
ROOT
HETATM    1  C1  UNL     1      -8.399  -2.028  -3.733  1.00  0.00     0.680 A 
HETATM    2  N2  UNL     1      -9.682  -1.677  -3.963  1.00  0.00    -0.174 N 
ATOM      3  H2  UNL     1      -9.943  -1.306  -4.876  1.00  0.00     0.186 HD
HETATM    4  C2  UNL     1     -10.625  -1.807  -3.007  1.00  0.00     0.159 A 
HETATM    5  C7  UNL     1     -10.233  -2.313  -1.780  1.00  0.00     0.215 A 
HETATM    6  C8  UNL     1      -8.938  -2.667  -1.551  1.00  0.00     0.296 A 
HETATM    7  O5  UNL     1      -8.606  -3.125  -0.424  1.00  0.00    -0.265 OA
HETATM    8  N8  UNL     1      -8.021  -2.522  -2.534  1.00  0.00    -0.154 N 
ATOM      9  H8  UNL     1      -7.048  -2.783  -2.371  1.00  0.00     0.187 HD
ENDROOT
BRANCH   4  10
HETATM   10  N3  UNL     1     -11.945  -1.433  -3.283  1.00  0.00    -0.351 N 
HETATM   11  C3  UNL     1     -12.476  -0.297  -3.119  1.00  0.00     0.098 C 
ATOM     12  H3  UNL     1     -12.550  -2.163  -3.660  1.00  0.00     0.166 HD
BRANCH  11  13
HETATM   13  C4  UNL     1     -13.893  -0.068  -3.464  1.00  0.00     0.224 C 
BRANCH  13  14
HETATM   14  N4  UNL     1     -14.342  -0.861  -4.586  1.00  0.00    -0.348 N 
HETATM   15  C5  UNL     1     -14.386  -0.399  -5.791  1.00  0.00     0.198 C 
HETATM   16  N5  UNL     1     -14.845  -1.257  -6.839  1.00  0.00    -0.067 NA
HETATM   17  N6  UNL     1     -14.003   0.916  -6.144  1.00  0.00    -0.067 NA
ATOM     18  H4  UNL     1     -14.635  -1.823  -4.419  1.00  0.00     0.163 HD
ENDBRANCH  13  14
BRANCH  13  19
HETATM   19  C6  UNL     1     -14.728  -0.435  -2.282  1.00  0.00     0.202 C 
HETATM   20  O1  UNL     1     -14.240  -1.112  -1.340  1.00  0.00    -0.646 OA
HETATM   21  O2  UNL     1     -16.058  -0.050  -2.181  1.00  0.00    -0.646 OA
ENDBRANCH  13  19
ENDBRANCH  11  13
ENDBRANCH   4  10
BRANCH   5  22
HETATM   22  N7  UNL     1     -11.222  -2.449  -0.781  1.00  0.00    -0.106 N 
HETATM   23  O3  UNL     1     -11.949  -3.444  -0.678  1.00  0.00    -0.531 OA
HETATM   24  O4  UNL     1     -11.370  -1.414   0.111  1.00  0.00    -0.531 OA
ENDBRANCH   5  22
BRANCH   1  25
HETATM   25  N1  UNL     1      -7.475  -1.917  -4.621  1.00  0.00    -0.234 N 
ATOM     26  H12 UNL     1      -7.783  -1.703  -5.570  1.00  0.00     0.174 HD
ATOM     27  H11 UNL     1      -6.484  -2.032  -4.407  1.00  0.00     0.174 HD
ENDBRANCH   1  25
TORSDOF 6
ENDMDL
MODEL 2
REMARK VINA RESULT: -6.521862321      3.460      6.374
REMARK  6 active torsions:
REMARK  status: ('A' for Active; 'I' for Inactive)
REMARK    1  A    between atoms: N1_1  and  C1_4 
REMARK    2  A    between atoms: C2_7  and  N3_8 
REMARK    3  A    between atoms: C3_10  and  C4_11 
REMARK    4  A    between atoms: C4_11  and  N4_12 
REMARK    5  A    between atoms: C4_11  and  C6_17 
REMARK    6  A    between atoms: C7_20  and  N7_21 
ROOT
HETATM    1  C1  UNL     1     -12.069   0.579  -0.742  1.00  0.00     0.680 A 
HETATM    2  N2  UNL     1     -11.030   0.566  -1.603  1.00  0.00    -0.174 N 
ATOM      3  H2  UNL     1     -10.888   1.360  -2.227  1.00  0.00     0.186 HD
HETATM    4  C2  UNL     1     -10.176  -0.477  -1.654  1.00  0.00     0.159 A 
HETATM    5  C7  UNL     1     -10.401  -1.536  -0.793  1.00  0.00     0.215 A 
HETATM    6  C8  UNL     1     -11.450  -1.521   0.076  1.00  0.00     0.296 A 
HETATM    7  O5  UNL     1     -11.634  -2.499   0.850  1.00  0.00    -0.265 OA
HETATM    8  N8  UNL     1     -12.285  -0.457   0.098  1.00  0.00    -0.154 N 
ATOM      9  H8  UNL     1     -13.074  -0.437   0.744  1.00  0.00     0.187 HD
ENDROOT
BRANCH   4  10
HETATM   10  N3  UNL     1      -9.110  -0.454  -2.560  1.00  0.00    -0.351 N 
HETATM   11  C3  UNL     1      -8.182   0.401  -2.640  1.00  0.00     0.098 C 
ATOM     12  H3  UNL     1      -9.079  -1.217  -3.237  1.00  0.00     0.166 HD
BRANCH  11  13
HETATM   13  C4  UNL     1      -7.125   0.278  -3.663  1.00  0.00     0.224 C 
BRANCH  13  14
HETATM   14  N4  UNL     1      -5.837   0.755  -3.212  1.00  0.00    -0.348 N 
HETATM   15  C5  UNL     1      -5.132   1.597  -3.890  1.00  0.00     0.198 C 
HETATM   16  N5  UNL     1      -3.868   2.014  -3.366  1.00  0.00    -0.067 NA
HETATM   17  N6  UNL     1      -5.534   2.141  -5.132  1.00  0.00    -0.067 NA
ATOM     18  H4  UNL     1      -5.472   0.414  -2.323  1.00  0.00     0.163 HD
ENDBRANCH  13  14
BRANCH  13  19
HETATM   19  C6  UNL     1      -6.979  -1.166  -4.014  1.00  0.00     0.202 C 
HETATM   20  O1  UNL     1      -6.756  -2.022  -3.119  1.00  0.00    -0.646 OA
HETATM   21  O2  UNL     1      -7.081  -1.611  -5.324  1.00  0.00    -0.646 OA
ENDBRANCH  13  19
ENDBRANCH  11  13
ENDBRANCH   4  10
BRANCH   5  22
HETATM   22  N7  UNL     1      -9.506  -2.628  -0.848  1.00  0.00    -0.106 N 
HETATM   23  O3  UNL     1      -9.526  -3.476  -1.748  1.00  0.00    -0.531 OA
HETATM   24  O4  UNL     1      -8.575  -2.736   0.157  1.00  0.00    -0.531 OA
ENDBRANCH   5  22
BRANCH   1  25
HETATM   25  N1  UNL     1     -12.902   1.557  -0.666  1.00  0.00    -0.234 N 
ATOM     26  H12 UNL     1     -13.824   1.399  -1.074  1.00  0.00     0.174 HD
ATOM     27  H11 UNL     1     -12.672   2.448  -0.227  1.00  0.00     0.174 HD
ENDBRANCH   1  25
TORSDOF 6
ENDMDL
MODEL 3
REMARK VINA RESULT: -6.490042005      1.416      5.752
REMARK  6 active torsions:
REMARK  status: ('A' for Active; 'I' for Inactive)
REMARK    1  A    between atoms: N1_1  and  C1_4 
REMARK    2  A    between atoms: C2_7  and  N3_8 
REMARK    3  A    between atoms: C3_10  and  C4_11 
REMARK    4  A    between atoms: C4_11  and  N4_12 
REMARK    5  A    between atoms: C4_11  and  C6_17 
REMARK    6  A    between atoms: C7_20  and  N7_21 
ROOT
HETATM    1  C1  UNL     1     -13.933  -0.474  -3.788  1.00  0.00     0.680 A 
HETATM    2  N2  UNL     1     -12.653  -0.865  -3.606  1.00  0.00    -0.174 N 
ATOM      3  H2  UNL     1     -12.060  -1.029  -4.419  1.00  0.00     0.186 HD
HETATM    4  C2  UNL     1     -12.145  -1.043  -2.369  1.00  0.00     0.159 A 
HETATM    5  C7  UNL     1     -12.980  -0.812  -1.290  1.00  0.00     0.215 A 
HETATM    6  C8  UNL     1     -14.271  -0.417  -1.476  1.00  0.00     0.296 A 
HETATM    7  O5  UNL     1     -15.012  -0.213  -0.477  1.00  0.00    -0.265 OA
HETATM    8  N8  UNL     1     -14.744  -0.249  -2.732  1.00  0.00    -0.154 N 
ATOM      9  H8  UNL     1     -15.710   0.046  -2.881  1.00  0.00     0.187 HD
ENDROOT
BRANCH   4  10
HETATM   10  N3  UNL     1     -10.814  -1.448  -2.220  1.00  0.00    -0.351 N 
HETATM   11  C3  UNL     1      -9.979  -1.707  -3.134  1.00  0.00     0.098 C 
ATOM     12  H3  UNL     1     -10.479  -1.546  -1.262  1.00  0.00     0.166 HD
BRANCH  11  13
HETATM   13  C4  UNL     1      -8.603  -2.126  -2.804  1.00  0.00     0.224 C 
BRANCH  13  14
HETATM   14  N4  UNL     1      -7.621  -1.090  -3.036  1.00  0.00    -0.348 N 
HETATM   15  C5  UNL     1      -6.987  -0.971  -4.155  1.00  0.00     0.198 C 
HETATM   16  N5  UNL     1      -6.032   0.085  -4.295  1.00  0.00    -0.067 NA
HETATM   17  N6  UNL     1      -7.180  -1.828  -5.263  1.00  0.00    -0.067 NA
ATOM     18  H4  UNL     1      -7.422  -0.427  -2.288  1.00  0.00     0.163 HD
ENDBRANCH  13  14
BRANCH  13  19
HETATM   19  C6  UNL     1      -8.555  -2.481  -1.354  1.00  0.00     0.202 C 
HETATM   20  O1  UNL     1      -8.704  -3.675  -0.984  1.00  0.00    -0.646 OA
HETATM   21  O2  UNL     1      -8.349  -1.520  -0.375  1.00  0.00    -0.646 OA
ENDBRANCH  13  19
ENDBRANCH  11  13
ENDBRANCH   4  10
BRANCH   5  22
HETATM   22  N7  UNL     1     -12.446  -0.998   0.004  1.00  0.00    -0.106 N 
HETATM   23  O3  UNL     1     -12.342  -0.085   0.832  1.00  0.00    -0.531 OA
HETATM   24  O4  UNL     1     -12.027  -2.263   0.342  1.00  0.00    -0.531 OA
ENDBRANCH   5  22
BRANCH   1  25
HETATM   25  N1  UNL     1     -14.449  -0.294  -4.953  1.00  0.00    -0.234 N 
ATOM     26  H12 UNL     1     -14.663   0.670  -5.210  1.00  0.00     0.174 HD
ATOM     27  H11 UNL     1     -14.641  -1.061  -5.598  1.00  0.00     0.174 HD
ENDBRANCH   1  25
TORSDOF 6
ENDMDL
MODEL 4
REMARK VINA RESULT: -6.231424842      3.168      4.191
REMARK  6 active torsions:
REMARK  status: ('A' for Active; 'I' for Inactive)
REMARK    1  A    between atoms: N1_1  and  C1_4 
REMARK    2  A    between atoms: C2_7  and  N3_8 
REMARK    3  A    between atoms: C3_10  and  C4_11 
REMARK    4  A    between atoms: C4_11  and  N4_12 
REMARK    5  A    between atoms: C4_11  and  C6_17 
REMARK    6  A    between atoms: C7_20  and  N7_21 
ROOT
HETATM    1  C1  UNL     1      -6.649   0.007  -2.361  1.00  0.00     0.680 A 
HETATM    2  N2  UNL     1      -7.813  -0.016  -1.678  1.00  0.00    -0.174 N 
ATOM      3  H2  UNL     1      -7.877   0.467  -0.782  1.00  0.00     0.186 HD
HETATM    4  C2  UNL     1      -8.894  -0.666  -2.158  1.00  0.00     0.159 A 
HETATM    5  C7  UNL     1      -8.769  -1.311  -3.376  1.00  0.00     0.215 A 
HETATM    6  C8  UNL     1      -7.593  -1.286  -4.063  1.00  0.00     0.296 A 
HETATM    7  O5  UNL     1      -7.505  -1.882  -5.171  1.00  0.00    -0.265 OA
HETATM    8  N8  UNL     1      -6.532  -0.624  -3.549  1.00  0.00    -0.154 N 
ATOM      9  H8  UNL     1      -5.647  -0.600  -4.057  1.00  0.00     0.187 HD
ENDROOT
BRANCH   4  10
HETATM   10  N3  UNL     1     -10.083  -0.667  -1.422  1.00  0.00    -0.351 N 
HETATM   11  C3  UNL     1     -10.757   0.333  -1.039  1.00  0.00     0.098 C 
ATOM     12  H3  UNL     1     -10.451  -1.583  -1.162  1.00  0.00     0.166 HD
BRANCH  11  13
HETATM   13  C4  UNL     1     -12.000   0.156  -0.264  1.00  0.00     0.224 C 
BRANCH  13  14
HETATM   14  N4  UNL     1     -13.133   0.845  -0.840  1.00  0.00    -0.348 N 
HETATM   15  C5  UNL     1     -14.049   1.401  -0.119  1.00  0.00     0.198 C 
HETATM   16  N5  UNL     1     -15.135   2.060  -0.777  1.00  0.00    -0.067 NA
HETATM   17  N6  UNL     1     -14.046   1.400   1.295  1.00  0.00    -0.067 NA
ATOM     18  H4  UNL     1     -13.213   0.894  -1.856  1.00  0.00     0.163 HD
ENDBRANCH  13  14
BRANCH  13  19
HETATM   19  C6  UNL     1     -12.324  -1.300  -0.223  1.00  0.00     0.202 C 
HETATM   20  O1  UNL     1     -13.068  -1.815  -1.097  1.00  0.00    -0.646 OA
HETATM   21  O2  UNL     1     -11.823  -2.130   0.770  1.00  0.00    -0.646 OA
ENDBRANCH  13  19
ENDBRANCH  11  13
ENDBRANCH   4  10
BRANCH   5  22
HETATM   22  N7  UNL     1      -9.901  -1.991  -3.877  1.00  0.00    -0.106 N 
HETATM   23  O3  UNL     1     -10.351  -3.024  -3.368  1.00  0.00    -0.531 OA
HETATM   24  O4  UNL     1     -10.519  -1.463  -4.986  1.00  0.00    -0.531 OA
ENDBRANCH   5  22
BRANCH   1  25
HETATM   25  N1  UNL     1      -5.600   0.617  -1.932  1.00  0.00    -0.234 N 
ATOM     26  H12 UNL     1      -5.760   1.415  -1.318  1.00  0.00     0.174 HD
ATOM     27  H11 UNL     1      -4.653   0.332  -2.182  1.00  0.00     0.174 HD
ENDBRANCH   1  25
TORSDOF 6
ENDMDL
MODEL 5
REMARK VINA RESULT: -6.179919982      2.360      5.740
REMARK  6 active torsions:
REMARK  status: ('A' for Active; 'I' for Inactive)
REMARK    1  A    between atoms: N1_1  and  C1_4 
REMARK    2  A    between atoms: C2_7  and  N3_8 
REMARK    3  A    between atoms: C3_10  and  C4_11 
REMARK    4  A    between atoms: C4_11  and  N4_12 
REMARK    5  A    between atoms: C4_11  and  C6_17 
REMARK    6  A    between atoms: C7_20  and  N7_21 
ROOT
HETATM    1  C1  UNL     1     -13.882  -0.499  -3.405  1.00  0.00     0.680 A 
HETATM    2  N2  UNL     1     -12.532  -0.525  -3.399  1.00  0.00    -0.174 N 
ATOM      3  H2  UNL     1     -12.025  -0.376  -4.271  1.00  0.00     0.186 HD
HETATM    4  C2  UNL     1     -11.842  -0.745  -2.261  1.00  0.00     0.159 A 
HETATM    5  C7  UNL     1     -12.564  -0.944  -1.097  1.00  0.00     0.215 A 
HETATM    6  C8  UNL     1     -13.925  -0.917  -1.106  1.00  0.00     0.296 A 
HETATM    7  O5  UNL     1     -14.561  -1.103  -0.033  1.00  0.00    -0.265 OA
HETATM    8  N8  UNL     1     -14.583  -0.694  -2.267  1.00  0.00    -0.154 N 
ATOM      9  H8  UNL     1     -15.603  -0.673  -2.284  1.00  0.00     0.187 HD
ENDROOT
BRANCH   4  10
HETATM   10  N3  UNL     1     -10.443  -0.764  -2.294  1.00  0.00    -0.351 N 
HETATM   11  C3  UNL     1      -9.659   0.223  -2.400  1.00  0.00     0.098 C 
ATOM     12  H3  UNL     1     -10.004  -1.682  -2.224  1.00  0.00     0.166 HD
BRANCH  11  13
HETATM   13  C4  UNL     1      -8.196   0.028  -2.419  1.00  0.00     0.224 C 
BRANCH  13  14
HETATM   14  N4  UNL     1      -7.689  -0.356  -3.717  1.00  0.00    -0.348 N 
HETATM   15  C5  UNL     1      -7.638  -1.586  -4.107  1.00  0.00     0.198 C 
HETATM   16  N5  UNL     1      -7.120  -1.872  -5.409  1.00  0.00    -0.067 NA
HETATM   17  N6  UNL     1      -8.066  -2.680  -3.320  1.00  0.00    -0.067 NA
ATOM     18  H4  UNL     1      -7.360   0.373  -4.350  1.00  0.00     0.163 HD
ENDBRANCH  13  14
BRANCH  13  19
HETATM   19  C6  UNL     1      -7.546   1.317  -2.039  1.00  0.00     0.202 C 
HETATM   20  O1  UNL     1      -6.641   1.813  -2.759  1.00  0.00    -0.646 OA
HETATM   21  O2  UNL     1      -7.911   2.007  -0.891  1.00  0.00    -0.646 OA
ENDBRANCH  13  19
ENDBRANCH  11  13
ENDBRANCH   4  10
BRANCH   5  22
HETATM   22  N7  UNL     1     -11.839  -1.174   0.093  1.00  0.00    -0.106 N 
HETATM   23  O3  UNL     1     -11.433  -0.264   0.825  1.00  0.00    -0.531 OA
HETATM   24  O4  UNL     1     -11.582  -2.480   0.438  1.00  0.00    -0.531 OA
ENDBRANCH   5  22
BRANCH   1  25
HETATM   25  N1  UNL     1     -14.571  -0.292  -4.472  1.00  0.00    -0.234 N 
ATOM     26  H12 UNL     1     -14.949   0.648  -4.591  1.00  0.00     0.174 HD
ATOM     27  H11 UNL     1     -14.741  -1.015  -5.170  1.00  0.00     0.174 HD
ENDBRANCH   1  25
TORSDOF 6
ENDMDL
