MODEL 1
REMARK VINA RESULT: -6.344479729      0.000      0.000
REMARK  8 active torsions:
REMARK  status: ('A' for Active; 'I' for Inactive)
REMARK    1  A    between atoms: C2_2  and  N1_4 
REMARK    2  A    between atoms: C2_2  and  C4_8 
REMARK    3  A    between atoms: C6_11  and  C7_12 
REMARK    4  A    between atoms: C7_12  and  C8_13 
REMARK    5  A    between atoms: C7_12  and  N2_19 
REMARK    6  A    between atoms: C8_13  and  C9_14 
REMARK       I    between atoms: N2_19  and  C14_21 
REMARK    7  A    between atoms: C14_21  and  C15_23 
REMARK    8  A    between atoms: C18_26  and  C19_27 
ROOT
HETATM    1  C7  UNL     1      13.452   3.785   4.194  1.00  0.00     0.160 C 
ENDROOT
BRANCH   1   2
HETATM    2  C6  UNL     1      12.076   4.212   3.907  1.00  0.00     0.146 A 
HETATM    3  O1  UNL     1      11.228   4.829   4.722  1.00  0.00    -0.305 OA
HETATM    4  C5  UNL     1      10.093   5.067   4.161  1.00  0.00     0.171 A 
HETATM    5  C4  UNL     1      10.143   4.585   2.866  1.00  0.00     0.069 A 
HETATM    6  N3  UNL     1      11.379   4.062   2.735  1.00  0.00    -0.338 N 
ATOM      7  H3  UNL     1      11.741   3.622   1.890  1.00  0.00     0.167 HD
BRANCH   5   8
HETATM    8  C2  UNL     1       9.054   4.636   1.840  1.00  0.00     0.160 C 
HETATM    9  C1  UNL     1       9.539   4.044   0.538  1.00  0.00     0.052 C 
HETATM   10  C3  UNL     1       8.663   6.086   1.652  1.00  0.00     0.052 C 
BRANCH   8  11
HETATM   11  N1  UNL     1       7.945   3.864   2.366  1.00  0.00    -0.065 N 
ATOM     12  H13 UNL     1       8.258   3.153   3.028  1.00  0.00     0.275 HD
ATOM     13  H12 UNL     1       7.365   4.416   2.999  1.00  0.00     0.275 HD
ATOM     14  H11 UNL     1       7.399   3.460   1.606  1.00  0.00     0.275 HD
ENDBRANCH   8  11
ENDBRANCH   5   8
ENDBRANCH   1   2
BRANCH   1  15
HETATM   15  C8  UNL     1      14.467   4.784   4.558  1.00  0.00     0.038 C 
BRANCH  15  16
HETATM   16  C9  UNL     1      14.476   6.099   3.880  1.00  0.00    -0.012 C 
HETATM   17  C10 UNL     1      14.011   7.201   4.853  1.00  0.00     0.005 C 
HETATM   18  C11 UNL     1      14.792   8.443   4.469  1.00  0.00     0.000 C 
HETATM   19  C12 UNL     1      16.127   7.896   4.081  1.00  0.00     0.000 C 
HETATM   20  C13 UNL     1      15.856   6.517   3.471  1.00  0.00     0.005 C 
ENDBRANCH  15  16
ENDBRANCH   1  15
BRANCH   1  21
HETATM   21  N2  UNL     1      13.896   2.997   3.039  1.00  0.00    -0.349 N 
HETATM   22  C14 UNL     1      14.395   1.683   3.116  1.00  0.00     0.222 C 
HETATM   23  O2  UNL     1      14.473   1.128   4.237  1.00  0.00    -0.273 OA
ATOM     24  H2  UNL     1      13.838   3.430   2.118  1.00  0.00     0.163 HD
BRANCH  22  25
HETATM   25  C15 UNL     1      14.807   1.015   1.859  1.00  0.00     0.078 C 
HETATM   26  C16 UNL     1      15.389   2.024   0.887  1.00  0.00     0.015 C 
HETATM   27  C17 UNL     1      16.001   1.197  -0.217  1.00  0.00     0.016 C 
HETATM   28  C18 UNL     1      14.930   0.482  -0.950  1.00  0.00     0.087 C 
HETATM   29  C20 UNL     1      13.654   0.218  -0.235  1.00  0.00     0.016 C 
HETATM   30  C21 UNL     1      13.674   0.255   1.230  1.00  0.00     0.015 C 
BRANCH  28  31
HETATM   31  C19 UNL     1      15.530  -0.809  -1.461  1.00  0.00     0.177 C 
HETATM   32  O3  UNL     1      16.583  -1.287  -1.001  1.00  0.00    -0.648 OA
HETATM   33  O4  UNL     1      14.866  -1.474  -2.481  1.00  0.00    -0.648 OA
ENDBRANCH  28  31
ENDBRANCH  22  25
ENDBRANCH   1  21
TORSDOF 8
ENDMDL
MODEL 2
REMARK VINA RESULT: -6.287054913      1.274      1.804
REMARK  8 active torsions:
REMARK  status: ('A' for Active; 'I' for Inactive)
REMARK    1  A    between atoms: C2_2  and  N1_4 
REMARK    2  A    between atoms: C2_2  and  C4_8 
REMARK    3  A    between atoms: C6_11  and  C7_12 
REMARK    4  A    between atoms: C7_12  and  C8_13 
REMARK    5  A    between atoms: C7_12  and  N2_19 
REMARK    6  A    between atoms: C8_13  and  C9_14 
REMARK       I    between atoms: N2_19  and  C14_21 
REMARK    7  A    between atoms: C14_21  and  C15_23 
REMARK    8  A    between atoms: C18_26  and  C19_27 
ROOT
HETATM    1  C7  UNL     1      12.322   4.631   3.095  1.00  0.00     0.160 C 
ENDROOT
BRANCH   1   2
HETATM    2  C6  UNL     1      10.882   4.620   2.805  1.00  0.00     0.146 A 
HETATM    3  O1  UNL     1      10.024   3.621   2.978  1.00  0.00    -0.305 OA
HETATM    4  C5  UNL     1       8.826   3.936   2.625  1.00  0.00     0.171 A 
HETATM    5  C4  UNL     1       8.839   5.241   2.172  1.00  0.00     0.069 A 
HETATM    6  N3  UNL     1      10.121   5.640   2.294  1.00  0.00    -0.338 N 
ATOM      7  H3  UNL     1      10.473   6.565   2.044  1.00  0.00     0.167 HD
BRANCH   5   8
HETATM    8  C2  UNL     1       7.677   6.032   1.657  1.00  0.00     0.160 C 
HETATM    9  C1  UNL     1       7.866   7.498   1.969  1.00  0.00     0.052 C 
HETATM   10  C3  UNL     1       6.426   5.504   2.326  1.00  0.00     0.052 C 
BRANCH   8  11
HETATM   11  N1  UNL     1       7.627   5.820   0.224  1.00  0.00    -0.065 N 
ATOM     12  H13 UNL     1       8.234   6.470  -0.277  1.00  0.00     0.275 HD
ATOM     13  H12 UNL     1       8.082   4.948  -0.046  1.00  0.00     0.275 HD
ATOM     14  H11 UNL     1       6.665   5.866  -0.111  1.00  0.00     0.275 HD
ENDBRANCH   8  11
ENDBRANCH   5   8
ENDBRANCH   1   2
BRANCH   1  15
HETATM   15  C8  UNL     1      13.075   5.891   3.020  1.00  0.00     0.038 C 
BRANCH  15  16
HETATM   16  C9  UNL     1      14.200   6.128   3.951  1.00  0.00    -0.012 C 
HETATM   17  C10 UNL     1      15.527   6.209   3.170  1.00  0.00     0.005 C 
HETATM   18  C11 UNL     1      16.384   7.209   3.920  1.00  0.00     0.000 C 
HETATM   19  C12 UNL     1      15.390   8.222   4.387  1.00  0.00     0.000 C 
HETATM   20  C13 UNL     1      14.092   7.451   4.646  1.00  0.00     0.005 C 
ENDBRANCH  15  16
ENDBRANCH   1  15
BRANCH   1  21
HETATM   21  N2  UNL     1      12.931   3.614   2.231  1.00  0.00    -0.349 N 
HETATM   22  C14 UNL     1      13.839   2.633   2.671  1.00  0.00     0.222 C 
HETATM   23  O2  UNL     1      14.162   2.606   3.882  1.00  0.00    -0.273 OA
ATOM     24  H2  UNL     1      12.678   3.618   1.242  1.00  0.00     0.163 HD
BRANCH  22  25
HETATM   25  C15 UNL     1      14.372   1.672   1.676  1.00  0.00     0.078 C 
HETATM   26  C16 UNL     1      15.305   2.375   0.708  1.00  0.00     0.015 C 
HETATM   27  C17 UNL     1      15.973   1.265  -0.067  1.00  0.00     0.016 C 
HETATM   28  C18 UNL     1      14.963   0.564  -0.895  1.00  0.00     0.087 C 
HETATM   29  C20 UNL     1      13.543   0.625  -0.460  1.00  0.00     0.016 C 
HETATM   30  C21 UNL     1      13.273   0.958   0.942  1.00  0.00     0.015 C 
BRANCH  28  31
HETATM   31  C19 UNL     1      15.418  -0.872  -1.025  1.00  0.00     0.177 C 
HETATM   32  O3  UNL     1      16.619  -1.199  -1.008  1.00  0.00    -0.648 OA
HETATM   33  O4  UNL     1      14.445  -1.851  -1.168  1.00  0.00    -0.648 OA
ENDBRANCH  28  31
ENDBRANCH  22  25
ENDBRANCH   1  21
TORSDOF 8
ENDMDL
MODEL 3
REMARK VINA RESULT: -6.245338638      1.038      1.541
REMARK  8 active torsions:
REMARK  status: ('A' for Active; 'I' for Inactive)
REMARK    1  A    between atoms: C2_2  and  N1_4 
REMARK    2  A    between atoms: C2_2  and  C4_8 
REMARK    3  A    between atoms: C6_11  and  C7_12 
REMARK    4  A    between atoms: C7_12  and  C8_13 
REMARK    5  A    between atoms: C7_12  and  N2_19 
REMARK    6  A    between atoms: C8_13  and  C9_14 
REMARK       I    between atoms: N2_19  and  C14_21 
REMARK    7  A    between atoms: C14_21  and  C15_23 
REMARK    8  A    between atoms: C18_26  and  C19_27 
ROOT
HETATM    1  C7  UNL     1      13.003   4.381   3.363  1.00  0.00     0.160 C 
ENDROOT
BRANCH   1   2
HETATM    2  C6  UNL     1      11.535   4.335   3.379  1.00  0.00     0.146 A 
HETATM    3  O1  UNL     1      10.757   3.379   3.873  1.00  0.00    -0.305 OA
HETATM    4  C5  UNL     1       9.504   3.643   3.730  1.00  0.00     0.171 A 
HETATM    5  C4  UNL     1       9.391   4.864   3.092  1.00  0.00     0.069 A 
HETATM    6  N3  UNL     1      10.660   5.269   2.887  1.00  0.00    -0.338 N 
ATOM      7  H3  UNL     1      10.930   6.143   2.434  1.00  0.00     0.167 HD
BRANCH   5   8
HETATM    8  C2  UNL     1       8.128   5.573   2.714  1.00  0.00     0.160 C 
HETATM    9  C1  UNL     1       8.427   6.673   1.722  1.00  0.00     0.052 C 
HETATM   10  C3  UNL     1       7.524   6.148   3.977  1.00  0.00     0.052 C 
BRANCH   8  11
HETATM   11  N1  UNL     1       7.251   4.582   2.123  1.00  0.00    -0.065 N 
ATOM     12  H13 UNL     1       6.895   4.883   1.215  1.00  0.00     0.275 HD
ATOM     13  H12 UNL     1       7.764   3.754   1.819  1.00  0.00     0.275 HD
ATOM     14  H11 UNL     1       6.495   4.345   2.766  1.00  0.00     0.275 HD
ENDBRANCH   8  11
ENDBRANCH   5   8
ENDBRANCH   1   2
BRANCH   1  15
HETATM   15  C8  UNL     1      13.692   5.652   3.100  1.00  0.00     0.038 C 
BRANCH  15  16
HETATM   16  C9  UNL     1      14.629   6.199   4.107  1.00  0.00    -0.012 C 
HETATM   17  C10 UNL     1      15.903   6.725   3.415  1.00  0.00     0.005 C 
HETATM   18  C11 UNL     1      16.353   7.917   4.237  1.00  0.00     0.000 C 
HETATM   19  C12 UNL     1      15.064   8.545   4.654  1.00  0.00     0.000 C 
HETATM   20  C13 UNL     1      14.066   7.394   4.815  1.00  0.00     0.005 C 
ENDBRANCH  15  16
ENDBRANCH   1  15
BRANCH   1  21
HETATM   21  N2  UNL     1      13.444   3.350   2.418  1.00  0.00    -0.349 N 
HETATM   22  C14 UNL     1      14.572   2.528   2.603  1.00  0.00     0.222 C 
HETATM   23  O2  UNL     1      15.259   2.667   3.641  1.00  0.00    -0.273 OA
ATOM     24  H2  UNL     1      12.896   3.220   1.567  1.00  0.00     0.163 HD
BRANCH  22  25
HETATM   25  C15 UNL     1      14.893   1.530   1.555  1.00  0.00     0.078 C 
HETATM   26  C16 UNL     1      15.637   2.187   0.408  1.00  0.00     0.015 C 
HETATM   27  C17 UNL     1      16.129   1.043  -0.445  1.00  0.00     0.016 C 
HETATM   28  C18 UNL     1      14.971   0.340  -1.046  1.00  0.00     0.087 C 
HETATM   29  C20 UNL     1      13.660   0.442  -0.354  1.00  0.00     0.016 C 
HETATM   30  C21 UNL     1      13.665   0.818   1.063  1.00  0.00     0.015 C 
BRANCH  28  31
HETATM   31  C19 UNL     1      15.372  -1.108  -1.216  1.00  0.00     0.177 C 
HETATM   32  O3  UNL     1      14.548  -2.007  -1.464  1.00  0.00    -0.648 OA
HETATM   33  O4  UNL     1      16.715  -1.429  -1.087  1.00  0.00    -0.648 OA
ENDBRANCH  28  31
ENDBRANCH  22  25
ENDBRANCH   1  21
TORSDOF 8
ENDMDL
MODEL 4
REMARK VINA RESULT: -6.192779821      3.765      6.592
REMARK  8 active torsions:
REMARK  status: ('A' for Active; 'I' for Inactive)
REMARK    1  A    between atoms: C2_2  and  N1_4 
REMARK    2  A    between atoms: C2_2  and  C4_8 
REMARK    3  A    between atoms: C6_11  and  C7_12 
REMARK    4  A    between atoms: C7_12  and  C8_13 
REMARK    5  A    between atoms: C7_12  and  N2_19 
REMARK    6  A    between atoms: C8_13  and  C9_14 
REMARK       I    between atoms: N2_19  and  C14_21 
REMARK    7  A    between atoms: C14_21  and  C15_23 
REMARK    8  A    between atoms: C18_26  and  C19_27 
ROOT
HETATM    1  C7  UNL     1       9.113   4.175   1.908  1.00  0.00     0.160 C 
ENDROOT
BRANCH   1   2
HETATM    2  C6  UNL     1       9.057   3.840   0.479  1.00  0.00     0.146 A 
HETATM    3  O1  UNL     1      10.072   3.570  -0.334  1.00  0.00    -0.305 OA
HETATM    4  C5  UNL     1       9.685   3.312  -1.535  1.00  0.00     0.171 A 
HETATM    5  C4  UNL     1       8.307   3.407  -1.573  1.00  0.00     0.069 A 
HETATM    6  N3  UNL     1       7.945   3.734  -0.316  1.00  0.00    -0.338 N 
ATOM      7  H3  UNL     1       6.985   3.880  -0.002  1.00  0.00     0.167 HD
BRANCH   5   8
HETATM    8  C2  UNL     1       7.418   3.194  -2.759  1.00  0.00     0.160 C 
HETATM    9  C1  UNL     1       6.017   2.858  -2.304  1.00  0.00     0.052 C 
HETATM   10  C3  UNL     1       7.998   2.059  -3.574  1.00  0.00     0.052 C 
BRANCH   8  11
HETATM   11  N1  UNL     1       7.422   4.431  -3.515  1.00  0.00    -0.065 N 
ATOM     12  H13 UNL     1       6.683   5.065  -3.210  1.00  0.00     0.275 HD
ATOM     13  H12 UNL     1       8.227   5.013  -3.284  1.00  0.00     0.275 HD
ATOM     14  H11 UNL     1       7.368   4.238  -4.515  1.00  0.00     0.275 HD
ENDBRANCH   8  11
ENDBRANCH   5   8
ENDBRANCH   1   2
BRANCH   1  15
HETATM   15  C8  UNL     1       8.003   4.911   2.531  1.00  0.00     0.038 C 
BRANCH  15  16
HETATM   16  C9  UNL     1       8.188   6.329   2.910  1.00  0.00    -0.012 C 
HETATM   17  C10 UNL     1       7.972   7.239   1.684  1.00  0.00     0.005 C 
HETATM   18  C11 UNL     1       7.355   8.515   2.224  1.00  0.00     0.000 C 
HETATM   19  C12 UNL     1       6.469   8.023   3.321  1.00  0.00     0.000 C 
HETATM   20  C13 UNL     1       7.164   6.788   3.903  1.00  0.00     0.005 C 
ENDBRANCH  15  16
ENDBRANCH   1  15
BRANCH   1  21
HETATM   21  N2  UNL     1      10.383   4.877   2.124  1.00  0.00    -0.349 N 
HETATM   22  C14 UNL     1      11.310   4.555   3.132  1.00  0.00     0.222 C 
HETATM   23  O2  UNL     1      11.056   3.605   3.909  1.00  0.00    -0.273 OA
ATOM     24  H2  UNL     1      10.609   5.652   1.500  1.00  0.00     0.163 HD
BRANCH  22  25
HETATM   25  C15 UNL     1      12.552   5.359   3.227  1.00  0.00     0.078 C 
HETATM   26  C16 UNL     1      12.980   5.837   1.852  1.00  0.00     0.015 C 
HETATM   27  C17 UNL     1      14.076   6.842   2.111  1.00  0.00     0.016 C 
HETATM   28  C18 UNL     1      15.249   6.154   2.698  1.00  0.00     0.087 C 
HETATM   29  C20 UNL     1      15.017   4.876   3.420  1.00  0.00     0.016 C 
HETATM   30  C21 UNL     1      13.660   4.603   3.903  1.00  0.00     0.015 C 
BRANCH  28  31
HETATM   31  C19 UNL     1      15.945   7.153   3.595  1.00  0.00     0.177 C 
HETATM   32  O3  UNL     1      15.380   8.175   4.025  1.00  0.00    -0.648 OA
HETATM   33  O4  UNL     1      17.264   6.904   3.943  1.00  0.00    -0.648 OA
ENDBRANCH  28  31
ENDBRANCH  22  25
ENDBRANCH   1  21
TORSDOF 8
ENDMDL
MODEL 5
REMARK VINA RESULT: -6.100211647      3.975      6.825
REMARK  8 active torsions:
REMARK  status: ('A' for Active; 'I' for Inactive)
REMARK    1  A    between atoms: C2_2  and  N1_4 
REMARK    2  A    between atoms: C2_2  and  C4_8 
REMARK    3  A    between atoms: C6_11  and  C7_12 
REMARK    4  A    between atoms: C7_12  and  C8_13 
REMARK    5  A    between atoms: C7_12  and  N2_19 
REMARK    6  A    between atoms: C8_13  and  C9_14 
REMARK       I    between atoms: N2_19  and  C14_21 
REMARK    7  A    between atoms: C14_21  and  C15_23 
REMARK    8  A    between atoms: C18_26  and  C19_27 
ROOT
HETATM    1  C7  UNL     1       8.848   5.144   1.341  1.00  0.00     0.160 C 
ENDROOT
BRANCH   1   2
HETATM    2  C6  UNL     1       8.819   4.388   0.082  1.00  0.00     0.146 A 
HETATM    3  O1  UNL     1       9.792   3.660  -0.453  1.00  0.00    -0.305 OA
HETATM    4  C5  UNL     1       9.446   3.121  -1.570  1.00  0.00     0.171 A 
HETATM    5  C4  UNL     1       8.143   3.493  -1.842  1.00  0.00     0.069 A 
HETATM    6  N3  UNL     1       7.780   4.276  -0.806  1.00  0.00    -0.338 N 
ATOM      7  H3  UNL     1       6.867   4.718  -0.698  1.00  0.00     0.167 HD
BRANCH   5   8
HETATM    8  C2  UNL     1       7.322   3.108  -3.034  1.00  0.00     0.160 C 
HETATM    9  C1  UNL     1       5.914   2.767  -2.606  1.00  0.00     0.052 C 
HETATM   10  C3  UNL     1       7.984   1.913  -3.684  1.00  0.00     0.052 C 
BRANCH   8  11
HETATM   11  N1  UNL     1       7.318   4.249  -3.928  1.00  0.00    -0.065 N 
ATOM     12  H13 UNL     1       6.395   4.414  -4.329  1.00  0.00     0.275 HD
ATOM     13  H12 UNL     1       7.423   5.128  -3.421  1.00  0.00     0.275 HD
ATOM     14  H11 UNL     1       8.031   4.140  -4.649  1.00  0.00     0.275 HD
ENDBRANCH   8  11
ENDBRANCH   5   8
ENDBRANCH   1   2
BRANCH   1  15
HETATM   15  C8  UNL     1       8.079   6.390   1.464  1.00  0.00     0.038 C 
BRANCH  15  16
HETATM   16  C9  UNL     1       7.768   6.928   2.807  1.00  0.00    -0.012 C 
HETATM   17  C10 UNL     1       6.785   8.110   2.691  1.00  0.00     0.005 C 
HETATM   18  C11 UNL     1       5.915   8.044   3.931  1.00  0.00     0.000 C 
HETATM   19  C12 UNL     1       5.752   6.576   4.150  1.00  0.00     0.000 C 
HETATM   20  C13 UNL     1       7.054   5.930   3.667  1.00  0.00     0.005 C 
ENDBRANCH  15  16
ENDBRANCH   1  15
BRANCH   1  21
HETATM   21  N2  UNL     1      10.262   5.377   1.657  1.00  0.00    -0.349 N 
HETATM   22  C14 UNL     1      10.918   4.869   2.794  1.00  0.00     0.222 C 
HETATM   23  O2  UNL     1      10.272   4.165   3.604  1.00  0.00    -0.273 OA
ATOM     24  H2  UNL     1      10.806   5.946   1.008  1.00  0.00     0.163 HD
BRANCH  22  25
HETATM   25  C15 UNL     1      12.353   5.193   2.978  1.00  0.00     0.078 C 
HETATM   26  C16 UNL     1      12.569   5.912   4.297  1.00  0.00     0.015 C 
HETATM   27  C17 UNL     1      14.066   5.944   4.484  1.00  0.00     0.016 C 
HETATM   28  C18 UNL     1      14.676   6.798   3.438  1.00  0.00     0.087 C 
HETATM   29  C20 UNL     1      13.928   6.984   2.168  1.00  0.00     0.016 C 
HETATM   30  C21 UNL     1      12.899   5.996   1.832  1.00  0.00     0.015 C 
BRANCH  28  31
HETATM   31  C19 UNL     1      16.058   6.245   3.166  1.00  0.00     0.177 C 
HETATM   32  O3  UNL     1      16.264   5.328   2.351  1.00  0.00    -0.648 OA
HETATM   33  O4  UNL     1      17.125   6.795   3.860  1.00  0.00    -0.648 OA
ENDBRANCH  28  31
ENDBRANCH  22  25
ENDBRANCH   1  21
TORSDOF 8
ENDMDL
