MODEL 1
REMARK VINA RESULT: -6.414484042      0.000      0.000
REMARK  8 active torsions:
REMARK  status: ('A' for Active; 'I' for Inactive)
REMARK    1  A    between atoms: C2_2  and  C4_4 
REMARK    2  A    between atoms: C4_4  and  N1_5 
REMARK    3  A    between atoms: N1_5  and  C5_7 
REMARK    4  A    between atoms: C8_10  and  C9_11 
REMARK    5  A    between atoms: C9_11  and  C10_12 
REMARK    6  A    between atoms: C10_12  and  N3_15 
REMARK    7  A    between atoms: N3_15  and  C12_17 
REMARK    8  A    between atoms: C14_21  and  C15_22 
ROOT
HETATM    1  C10 UNL     1       9.959   4.899   2.041  1.00  0.00     0.191 C 
HETATM    2  C11 UNL     1       9.846   4.103   0.807  1.00  0.00     0.084 C 
HETATM    3  N2  UNL     1       9.755   3.500  -0.175  1.00  0.00    -0.195 NA
ENDROOT
BRANCH   1   4
HETATM    4  C9  UNL     1      11.405   5.446   2.017  1.00  0.00     0.044 C 
BRANCH   4   5
HETATM    5  C8  UNL     1      12.387   4.335   2.333  1.00  0.00    -0.012 C 
HETATM    6  C7  UNL     1      13.433   4.307   1.291  1.00  0.00     0.007 C 
HETATM    7  C6  UNL     1      14.651   3.585   1.805  1.00  0.00     0.025 C 
HETATM    8  C5  UNL     1      15.201   4.310   3.004  1.00  0.00     0.076 C 
HETATM    9  C21 UNL     1      14.207   4.517   4.084  1.00  0.00     0.025 C 
HETATM   10  C20 UNL     1      12.785   4.246   3.749  1.00  0.00     0.007 C 
BRANCH   8  11
HETATM   11  N1  UNL     1      15.795   5.548   2.562  1.00  0.00    -0.417 N 
ATOM     12  H1  UNL     1      16.068   5.704   1.592  1.00  0.00     0.153 HD
BRANCH  11  13
HETATM   13  C4  UNL     1      15.975   6.538   3.571  1.00  0.00     0.118 C 
BRANCH  13  14
HETATM   14  C2  UNL     1      15.254   7.829   3.193  1.00  0.00    -0.005 C 
HETATM   15  C1  UNL     1      14.368   8.255   4.339  1.00  0.00     0.011 C 
HETATM   16  C3  UNL     1      14.477   7.670   1.903  1.00  0.00     0.011 C 
ENDBRANCH  13  14
ENDBRANCH  11  13
ENDBRANCH   8  11
ENDBRANCH   4   5
ENDBRANCH   1   4
BRANCH   1  17
HETATM   17  N3  UNL     1       9.083   6.006   1.921  1.00  0.00    -0.353 N 
ATOM     18  H3  UNL     1       9.134   6.541   1.054  1.00  0.00     0.163 HD
BRANCH  17  19
HETATM   19  C12 UNL     1       8.246   6.393   2.781  1.00  0.00     0.145 A 
HETATM   20  N4  UNL     1       7.445   7.438   2.638  1.00  0.00    -0.346 N 
HETATM   21  C13 UNL     1       6.545   7.904   3.498  1.00  0.00     0.104 A 
ATOM     22  H4  UNL     1       7.529   7.948   1.758  1.00  0.00     0.167 HD
HETATM   23  C14 UNL     1       6.231   7.417   4.739  1.00  0.00     0.014 A 
HETATM   24  C19 UNL     1       6.864   6.288   5.289  1.00  0.00     0.068 A 
HETATM   25  S1  UNL     1       8.045   5.579   4.295  1.00  0.00    -0.065 SA
BRANCH  23  26
HETATM   26  C15 UNL     1       5.197   8.012   5.592  1.00  0.00     0.059 A 
HETATM   27  C16 UNL     1       4.928   7.585   6.867  1.00  0.00     0.120 A 
HETATM   28  N5  UNL     1       3.963   8.199   7.627  1.00  0.00    -0.349 N 
HETATM   29  C17 UNL     1       3.254   9.220   7.174  1.00  0.00     0.114 A 
ATOM     30  H5  UNL     1       3.788   7.857   8.572  1.00  0.00     0.167 HD
HETATM   31  N6  UNL     1       2.348   9.796   7.876  1.00  0.00    -0.384 N 
HETATM   32  C18 UNL     1       3.512   9.656   5.899  1.00  0.00     0.136 A 
ATOM     33  H62 UNL     1       2.156   9.472   8.824  1.00  0.00     0.157 HD
ATOM     34  H61 UNL     1       1.801  10.583   7.527  1.00  0.00     0.157 HD
HETATM   35  N7  UNL     1       4.452   9.060   5.150  1.00  0.00    -0.361 N 
ATOM     36  H7  UNL     1       4.616   9.411   4.206  1.00  0.00     0.165 HD
ENDBRANCH  23  26
ENDBRANCH  17  19
ENDBRANCH   1  17
TORSDOF 8
ENDMDL
MODEL 2
REMARK VINA RESULT: -6.120071875      2.095      3.177
REMARK  8 active torsions:
REMARK  status: ('A' for Active; 'I' for Inactive)
REMARK    1  A    between atoms: C2_2  and  C4_4 
REMARK    2  A    between atoms: C4_4  and  N1_5 
REMARK    3  A    between atoms: N1_5  and  C5_7 
REMARK    4  A    between atoms: C8_10  and  C9_11 
REMARK    5  A    between atoms: C9_11  and  C10_12 
REMARK    6  A    between atoms: C10_12  and  N3_15 
REMARK    7  A    between atoms: N3_15  and  C12_17 
REMARK    8  A    between atoms: C14_21  and  C15_22 
ROOT
HETATM    1  C10 UNL     1      12.295   5.019   5.154  1.00  0.00     0.191 C 
HETATM    2  C11 UNL     1      13.125   5.711   6.155  1.00  0.00     0.084 C 
HETATM    3  N2  UNL     1      13.768   6.239   6.957  1.00  0.00    -0.195 NA
ENDROOT
BRANCH   1   4
HETATM    4  C9  UNL     1      13.058   3.705   4.862  1.00  0.00     0.044 C 
BRANCH   4   5
HETATM    5  C8  UNL     1      13.138   3.472   3.366  1.00  0.00    -0.012 C 
HETATM    6  C7  UNL     1      12.619   4.666   2.666  1.00  0.00     0.007 C 
HETATM    7  C6  UNL     1      13.119   4.685   1.245  1.00  0.00     0.025 C 
HETATM    8  C5  UNL     1      14.623   4.754   1.239  1.00  0.00     0.076 C 
HETATM    9  C21 UNL     1      15.273   3.674   2.019  1.00  0.00     0.025 C 
HETATM   10  C20 UNL     1      14.396   2.861   2.902  1.00  0.00     0.007 C 
BRANCH   8  11
HETATM   11  N1  UNL     1      15.027   6.067   1.680  1.00  0.00    -0.417 N 
ATOM     12  H1  UNL     1      14.745   6.915   1.189  1.00  0.00     0.153 HD
BRANCH  11  13
HETATM   13  C4  UNL     1      15.846   6.098   2.846  1.00  0.00     0.118 C 
BRANCH  13  14
HETATM   14  C2  UNL     1      15.384   7.198   3.798  1.00  0.00    -0.005 C 
HETATM   15  C1  UNL     1      14.313   8.020   3.123  1.00  0.00     0.011 C 
HETATM   16  C3  UNL     1      16.548   8.050   4.262  1.00  0.00     0.011 C 
ENDBRANCH  13  14
ENDBRANCH  11  13
ENDBRANCH   8  11
ENDBRANCH   4   5
ENDBRANCH   1   4
BRANCH   1  17
HETATM   17  N3  UNL     1      11.071   4.671   5.777  1.00  0.00    -0.353 N 
ATOM     18  H3  UNL     1      11.088   3.872   6.410  1.00  0.00     0.163 HD
BRANCH  17  19
HETATM   19  C12 UNL     1       9.964   5.254   5.624  1.00  0.00     0.145 A 
HETATM   20  N4  UNL     1       9.322   5.917   6.574  1.00  0.00    -0.346 N 
HETATM   21  C13 UNL     1       8.157   6.550   6.488  1.00  0.00     0.104 A 
ATOM     22  H4  UNL     1       9.779   5.945   7.486  1.00  0.00     0.167 HD
HETATM   23  C14 UNL     1       7.339   6.668   5.395  1.00  0.00     0.014 A 
HETATM   24  C19 UNL     1       7.655   6.097   4.150  1.00  0.00     0.068 A 
HETATM   25  S1  UNL     1       9.128   5.252   4.108  1.00  0.00    -0.065 SA
BRANCH  23  26
HETATM   26  C15 UNL     1       6.077   7.415   5.420  1.00  0.00     0.059 A 
HETATM   27  C16 UNL     1       5.506   7.976   4.307  1.00  0.00     0.120 A 
HETATM   28  N5  UNL     1       4.309   8.643   4.388  1.00  0.00    -0.349 N 
HETATM   29  C17 UNL     1       3.654   8.777   5.531  1.00  0.00     0.114 A 
ATOM     30  H5  UNL     1       3.910   9.049   3.541  1.00  0.00     0.167 HD
HETATM   31  N6  UNL     1       2.537   9.403   5.616  1.00  0.00    -0.384 N 
HETATM   32  C18 UNL     1       4.215   8.222   6.652  1.00  0.00     0.136 A 
ATOM     33  H62 UNL     1       2.120   9.816   4.782  1.00  0.00     0.157 HD
ATOM     34  H61 UNL     1       2.032   9.506   6.497  1.00  0.00     0.157 HD
HETATM   35  N7  UNL     1       5.385   7.569   6.580  1.00  0.00    -0.361 N 
ATOM     36  H7  UNL     1       5.773   7.170   7.435  1.00  0.00     0.165 HD
ENDBRANCH  23  26
ENDBRANCH  17  19
ENDBRANCH   1  17
TORSDOF 8
ENDMDL
MODEL 3
REMARK VINA RESULT: -6.104914521      5.506      7.265
REMARK  8 active torsions:
REMARK  status: ('A' for Active; 'I' for Inactive)
REMARK    1  A    between atoms: C2_2  and  C4_4 
REMARK    2  A    between atoms: C4_4  and  N1_5 
REMARK    3  A    between atoms: N1_5  and  C5_7 
REMARK    4  A    between atoms: C8_10  and  C9_11 
REMARK    5  A    between atoms: C9_11  and  C10_12 
REMARK    6  A    between atoms: C10_12  and  N3_15 
REMARK    7  A    between atoms: N3_15  and  C12_17 
REMARK    8  A    between atoms: C14_21  and  C15_22 
ROOT
HETATM    1  C10 UNL     1      13.841   3.597   2.678  1.00  0.00     0.191 C 
HETATM    2  C11 UNL     1      14.858   2.639   3.143  1.00  0.00     0.084 C 
HETATM    3  N2  UNL     1      15.646   1.869   3.495  1.00  0.00    -0.195 NA
ENDROOT
BRANCH   1   4
HETATM    4  C9  UNL     1      14.296   3.980   1.250  1.00  0.00     0.044 C 
BRANCH   4   5
HETATM    5  C8  UNL     1      14.851   5.390   1.241  1.00  0.00    -0.012 C 
HETATM    6  C7  UNL     1      13.730   6.347   1.347  1.00  0.00     0.007 C 
HETATM    7  C6  UNL     1      14.238   7.682   1.826  1.00  0.00     0.025 C 
HETATM    8  C5  UNL     1      14.856   7.528   3.190  1.00  0.00     0.076 C 
HETATM    9  C21 UNL     1      15.920   6.498   3.251  1.00  0.00     0.025 C 
HETATM   10  C20 UNL     1      16.045   5.591   2.080  1.00  0.00     0.007 C 
BRANCH   8  11
HETATM   11  N1  UNL     1      13.805   7.286   4.148  1.00  0.00    -0.417 N 
ATOM     12  H1  UNL     1      12.821   7.430   3.923  1.00  0.00     0.153 HD
BRANCH  11  13
HETATM   13  C4  UNL     1      14.233   6.834   5.430  1.00  0.00     0.118 C 
BRANCH  13  14
HETATM   14  C2  UNL     1      13.360   5.679   5.913  1.00  0.00    -0.005 C 
HETATM   15  C1  UNL     1      12.112   5.614   5.066  1.00  0.00     0.011 C 
HETATM   16  C3  UNL     1      13.040   5.810   7.388  1.00  0.00     0.011 C 
ENDBRANCH  13  14
ENDBRANCH  11  13
ENDBRANCH   8  11
ENDBRANCH   4   5
ENDBRANCH   1   4
BRANCH   1  17
HETATM   17  N3  UNL     1      12.613   2.900   2.562  1.00  0.00    -0.353 N 
ATOM     18  H3  UNL     1      12.411   2.204   3.279  1.00  0.00     0.163 HD
BRANCH  17  19
HETATM   19  C12 UNL     1      11.748   3.056   1.659  1.00  0.00     0.145 A 
HETATM   20  N4  UNL     1      11.648   2.309   0.571  1.00  0.00    -0.346 N 
HETATM   21  C13 UNL     1      10.768   2.415  -0.419  1.00  0.00     0.104 A 
ATOM     22  H4  UNL     1      12.333   1.558   0.481  1.00  0.00     0.167 HD
HETATM   23  C14 UNL     1       9.752   3.325  -0.551  1.00  0.00     0.014 A 
HETATM   24  C19 UNL     1       9.500   4.321   0.409  1.00  0.00     0.068 A 
HETATM   25  S1  UNL     1      10.553   4.306   1.742  1.00  0.00    -0.065 SA
BRANCH  23  26
HETATM   26  C15 UNL     1       8.827   3.329  -1.689  1.00  0.00     0.059 A 
HETATM   27  C16 UNL     1       8.100   4.427  -2.072  1.00  0.00     0.120 A 
HETATM   28  N5  UNL     1       7.268   4.376  -3.163  1.00  0.00    -0.349 N 
HETATM   29  C17 UNL     1       7.127   3.280  -3.891  1.00  0.00     0.114 A 
ATOM     30  H5  UNL     1       6.741   5.211  -3.422  1.00  0.00     0.167 HD
HETATM   31  N6  UNL     1       6.348   3.224  -4.908  1.00  0.00    -0.384 N 
HETATM   32  C18 UNL     1       7.847   2.174  -3.518  1.00  0.00     0.136 A 
ATOM     33  H62 UNL     1       5.812   4.046  -5.186  1.00  0.00     0.157 HD
ATOM     34  H61 UNL     1       6.239   2.378  -5.470  1.00  0.00     0.157 HD
HETATM   35  N7  UNL     1       8.662   2.215  -2.452  1.00  0.00    -0.361 N 
ATOM     36  H7  UNL     1       9.181   1.373  -2.204  1.00  0.00     0.165 HD
ENDBRANCH  23  26
ENDBRANCH  17  19
ENDBRANCH   1  17
TORSDOF 8
ENDMDL
MODEL 4
REMARK VINA RESULT: -6.088183849      5.125      6.533
REMARK  8 active torsions:
REMARK  status: ('A' for Active; 'I' for Inactive)
REMARK    1  A    between atoms: C2_2  and  C4_4 
REMARK    2  A    between atoms: C4_4  and  N1_5 
REMARK    3  A    between atoms: N1_5  and  C5_7 
REMARK    4  A    between atoms: C8_10  and  C9_11 
REMARK    5  A    between atoms: C9_11  and  C10_12 
REMARK    6  A    between atoms: C10_12  and  N3_15 
REMARK    7  A    between atoms: N3_15  and  C12_17 
REMARK    8  A    between atoms: C14_21  and  C15_22 
ROOT
HETATM    1  C10 UNL     1      13.899   3.521   2.672  1.00  0.00     0.191 C 
HETATM    2  C11 UNL     1      14.931   2.575   3.130  1.00  0.00     0.084 C 
HETATM    3  N2  UNL     1      15.731   1.816   3.476  1.00  0.00    -0.195 NA
ENDROOT
BRANCH   1   4
HETATM    4  C9  UNL     1      14.328   3.894   1.234  1.00  0.00     0.044 C 
BRANCH   4   5
HETATM    5  C8  UNL     1      14.861   5.312   1.202  1.00  0.00    -0.012 C 
HETATM    6  C7  UNL     1      13.727   6.255   1.297  1.00  0.00     0.007 C 
HETATM    7  C6  UNL     1      14.217   7.604   1.754  1.00  0.00     0.025 C 
HETATM    8  C5  UNL     1      14.840   7.480   3.119  1.00  0.00     0.076 C 
HETATM    9  C21 UNL     1      15.920   6.467   3.192  1.00  0.00     0.025 C 
HETATM   10  C20 UNL     1      16.054   5.543   2.035  1.00  0.00     0.007 C 
BRANCH   8  11
HETATM   11  N1  UNL     1      13.795   7.237   4.083  1.00  0.00    -0.417 N 
ATOM     12  H1  UNL     1      12.810   7.385   3.866  1.00  0.00     0.153 HD
BRANCH  11  13
HETATM   13  C4  UNL     1      14.231   6.777   5.359  1.00  0.00     0.118 C 
BRANCH  13  14
HETATM   14  C2  UNL     1      13.335   5.648   5.860  1.00  0.00    -0.005 C 
HETATM   15  C1  UNL     1      12.104   5.569   4.990  1.00  0.00     0.011 C 
HETATM   16  C3  UNL     1      12.986   5.830   7.323  1.00  0.00     0.011 C 
ENDBRANCH  13  14
ENDBRANCH  11  13
ENDBRANCH   8  11
ENDBRANCH   4   5
ENDBRANCH   1   4
BRANCH   1  17
HETATM   17  N3  UNL     1      12.676   2.812   2.582  1.00  0.00    -0.353 N 
ATOM     18  H3  UNL     1      12.537   2.047   3.243  1.00  0.00     0.163 HD
BRANCH  17  19
HETATM   19  C12 UNL     1      11.742   3.034   1.765  1.00  0.00     0.145 A 
HETATM   20  N4  UNL     1      10.942   4.088   1.800  1.00  0.00    -0.346 N 
HETATM   21  C13 UNL     1       9.941   4.386   0.978  1.00  0.00     0.104 A 
ATOM     22  H4  UNL     1      11.116   4.756   2.552  1.00  0.00     0.167 HD
HETATM   23  C14 UNL     1       9.495   3.671  -0.103  1.00  0.00     0.014 A 
HETATM   24  C19 UNL     1      10.083   2.457  -0.500  1.00  0.00     0.068 A 
HETATM   25  S1  UNL     1      11.387   1.949   0.464  1.00  0.00    -0.065 SA
BRANCH  23  26
HETATM   26  C15 UNL     1       8.384   4.116  -0.950  1.00  0.00     0.059 A 
HETATM   27  C16 UNL     1       7.343   4.884  -0.496  1.00  0.00     0.120 A 
HETATM   28  N5  UNL     1       6.344   5.291  -1.344  1.00  0.00    -0.349 N 
HETATM   29  C17 UNL     1       6.334   4.967  -2.627  1.00  0.00     0.114 A 
ATOM     30  H5  UNL     1       5.583   5.862  -0.974  1.00  0.00     0.167 HD
HETATM   31  N6  UNL     1       5.402   5.340  -3.425  1.00  0.00    -0.384 N 
HETATM   32  C18 UNL     1       7.369   4.198  -3.095  1.00  0.00     0.136 A 
ATOM     33  H62 UNL     1       4.632   5.911  -3.078  1.00  0.00     0.157 HD
ATOM     34  H61 UNL     1       5.395   5.090  -4.415  1.00  0.00     0.157 HD
HETATM   35  N7  UNL     1       8.349   3.796  -2.272  1.00  0.00    -0.361 N 
ATOM     36  H7  UNL     1       9.102   3.224  -2.654  1.00  0.00     0.165 HD
ENDBRANCH  23  26
ENDBRANCH  17  19
ENDBRANCH   1  17
TORSDOF 8
ENDMDL
MODEL 5
REMARK VINA RESULT: -6.060311585      4.323      6.464
REMARK  8 active torsions:
REMARK  status: ('A' for Active; 'I' for Inactive)
REMARK    1  A    between atoms: C2_2  and  C4_4 
REMARK    2  A    between atoms: C4_4  and  N1_5 
REMARK    3  A    between atoms: N1_5  and  C5_7 
REMARK    4  A    between atoms: C8_10  and  C9_11 
REMARK    5  A    between atoms: C9_11  and  C10_12 
REMARK    6  A    between atoms: C10_12  and  N3_15 
REMARK    7  A    between atoms: N3_15  and  C12_17 
REMARK    8  A    between atoms: C14_21  and  C15_22 
ROOT
HETATM    1  C10 UNL     1       9.922   5.075   2.684  1.00  0.00     0.191 C 
HETATM    2  C11 UNL     1       9.607   4.336   3.918  1.00  0.00     0.084 C 
HETATM    3  N2  UNL     1       9.373   3.736   4.878  1.00  0.00    -0.195 NA
ENDROOT
BRANCH   1   4
HETATM    4  C9  UNL     1      11.374   5.567   2.889  1.00  0.00     0.044 C 
BRANCH   4   5
HETATM    5  C8  UNL     1      12.348   4.436   2.624  1.00  0.00    -0.012 C 
HETATM    6  C7  UNL     1      13.074   4.713   1.367  1.00  0.00     0.007 C 
HETATM    7  C6  UNL     1      14.348   3.910   1.322  1.00  0.00     0.025 C 
HETATM    8  C5  UNL     1      15.235   4.304   2.473  1.00  0.00     0.076 C 
HETATM    9  C21 UNL     1      14.578   4.191   3.798  1.00  0.00     0.025 C 
HETATM   10  C20 UNL     1      13.106   3.984   3.803  1.00  0.00     0.007 C 
BRANCH   8  11
HETATM   11  N1  UNL     1      15.748   5.629   2.228  1.00  0.00    -0.417 N 
ATOM     12  H1  UNL     1      15.969   5.961   1.290  1.00  0.00     0.153 HD
BRANCH  11  13
HETATM   13  C4  UNL     1      15.928   6.442   3.384  1.00  0.00     0.118 C 
BRANCH  13  14
HETATM   14  C2  UNL     1      15.183   7.766   3.232  1.00  0.00    -0.005 C 
HETATM   15  C1  UNL     1      14.270   7.960   4.419  1.00  0.00     0.011 C 
HETATM   16  C3  UNL     1      14.430   7.827   1.919  1.00  0.00     0.011 C 
ENDBRANCH  13  14
ENDBRANCH  11  13
ENDBRANCH   8  11
ENDBRANCH   4   5
ENDBRANCH   1   4
BRANCH   1  17
HETATM   17  N3  UNL     1       9.933   4.145   1.616  1.00  0.00    -0.353 N 
ATOM     18  H3  UNL     1      10.584   3.364   1.693  1.00  0.00     0.163 HD
BRANCH  17  19
HETATM   19  C12 UNL     1       9.217   4.189   0.579  1.00  0.00     0.145 A 
HETATM   20  N4  UNL     1       8.130   4.932   0.444  1.00  0.00    -0.346 N 
HETATM   21  C13 UNL     1       7.328   5.027  -0.613  1.00  0.00     0.104 A 
ATOM     22  H4  UNL     1       7.875   5.503   1.250  1.00  0.00     0.167 HD
HETATM   23  C14 UNL     1       7.434   4.378  -1.814  1.00  0.00     0.014 A 
HETATM   24  C19 UNL     1       8.474   3.474  -2.095  1.00  0.00     0.068 A 
HETATM   25  S1  UNL     1       9.585   3.252  -0.829  1.00  0.00    -0.065 SA
BRANCH  23  26
HETATM   26  C15 UNL     1       6.491   4.583  -2.918  1.00  0.00     0.059 A 
HETATM   27  C16 UNL     1       6.334   3.700  -3.955  1.00  0.00     0.120 A 
HETATM   28  N5  UNL     1       5.415   3.934  -4.948  1.00  0.00    -0.349 N 
HETATM   29  C17 UNL     1       4.644   5.010  -4.955  1.00  0.00     0.114 A 
ATOM     30  H5  UNL     1       5.323   3.257  -5.706  1.00  0.00     0.167 HD
HETATM   31  N6  UNL     1       3.787   5.238  -5.881  1.00  0.00    -0.384 N 
HETATM   32  C18 UNL     1       4.792   5.902  -3.924  1.00  0.00     0.136 A 
ATOM     33  H62 UNL     1       3.678   4.575  -6.648  1.00  0.00     0.157 HD
ATOM     34  H61 UNL     1       3.193   6.068  -5.886  1.00  0.00     0.157 HD
HETATM   35  N7  UNL     1       5.689   5.681  -2.951  1.00  0.00    -0.361 N 
ATOM     36  H7  UNL     1       5.772   6.367  -2.200  1.00  0.00     0.165 HD
ENDBRANCH  23  26
ENDBRANCH  17  19
ENDBRANCH   1  17
TORSDOF 8
ENDMDL
