MODEL 1
REMARK VINA RESULT: -6.331473586      0.000      0.000
REMARK  11 active torsions:
REMARK  status: ('A' for Active; 'I' for Inactive)
REMARK    1  A    between atoms: C2_3  and  O1_4 
REMARK    2  A    between atoms: C5_8  and  C6_9 
REMARK    3  A    between atoms: C6_9  and  O2_10 
REMARK    4  A    between atoms: C6_9  and  N2_12 
REMARK    5  A    between atoms: C9_15  and  O3_16 
REMARK    6  A    between atoms: C12_21  and  C13_22 
REMARK    7  A    between atoms: C13_22  and  C14_23 
REMARK    8  A    between atoms: C14_23  and  C15_24 
REMARK    9  A    between atoms: C15_24  and  C16_25 
REMARK   10  A    between atoms: C16_25  and  C17_26 
REMARK   11  A    between atoms: C17_26  and  C18_27 
ROOT
HETATM    1  C1  UNL     1      14.655  -1.172  -1.589  1.00  0.00     0.161 C 
HETATM    2  N1  UNL     1      14.423  -0.089  -0.651  1.00  0.00    -0.298 N 
HETATM    3  C2  UNL     1      15.445   0.693  -0.282  1.00  0.00     0.153 A 
HETATM    4  C3  UNL     1      15.230   1.706   0.595  1.00  0.00     0.028 A 
HETATM    5  C4  UNL     1      13.955   1.963   1.129  1.00  0.00     0.001 A 
HETATM    6  C5  UNL     1      12.896   1.151   0.748  1.00  0.00     0.067 A 
HETATM    7  C11 UNL     1      13.171   0.132  -0.149  1.00  0.00     0.260 A 
HETATM    8  O4  UNL     1      12.244  -0.623  -0.515  1.00  0.00    -0.267 OA
HETATM    9  C12 UNL     1      14.052   3.114   2.023  1.00  0.00     0.220 C 
HETATM   10  N3  UNL     1      15.386   3.651   1.869  1.00  0.00    -0.063 N 
ATOM     11  H31 UNL     1      15.799   3.946   2.753  1.00  0.00     0.278 HD
ATOM     12  H32 UNL     1      15.395   4.560   1.406  1.00  0.00     0.278 HD
HETATM   13  C22 UNL     1      16.170   2.682   1.192  1.00  0.00     0.276 C 
ENDROOT
BRANCH   6  14
HETATM   14  C6  UNL     1      11.530   1.283   1.279  1.00  0.00     0.256 C 
BRANCH  14  15
HETATM   15  O2  UNL     1      11.331   0.178   2.171  1.00  0.00    -0.372 OA
ATOM     16  H2  UNL     1      10.508   0.336   2.617  1.00  0.00     0.212 HD
ENDBRANCH  14  15
BRANCH  14  17
HETATM   17  N2  UNL     1      10.465   1.396   0.410  1.00  0.00    -0.381 N 
HETATM   18  C7  UNL     1       9.123   1.244   0.791  1.00  0.00     0.122 C 
HETATM   19  C8  UNL     1       8.298   1.663  -0.433  1.00  0.00     0.053 C 
HETATM   20  C9  UNL     1       9.172   2.729  -1.052  1.00  0.00     0.137 C 
HETATM   21  C10 UNL     1      10.560   2.522  -0.475  1.00  0.00     0.151 C 
BRANCH  20  22
HETATM   22  O3  UNL     1       9.169   2.600  -2.432  1.00  0.00    -0.394 OA
ATOM     23  H3  UNL     1       8.504   3.163  -2.809  1.00  0.00     0.210 HD
ENDBRANCH  20  22
ENDBRANCH  14  17
ENDBRANCH   6  14
BRANCH   9  24
HETATM   24  C13 UNL     1      13.058   4.194   1.898  1.00  0.00     0.038 C 
BRANCH  24  25
HETATM   25  C14 UNL     1      13.228   5.235   0.867  1.00  0.00     0.002 C 
BRANCH  25  26
HETATM   26  C15 UNL     1      13.118   6.660   1.274  1.00  0.00     0.000 C 
BRANCH  26  27
HETATM   27  C16 UNL     1      14.449   7.323   1.579  1.00  0.00     0.001 C 
BRANCH  27  28
HETATM   28  C17 UNL     1      14.289   8.085   2.878  1.00  0.00     0.008 C 
BRANCH  28  29
HETATM   29  C18 UNL     1      15.065   7.423   3.998  1.00  0.00    -0.051 C 
HETATM   30  C19 UNL     1      15.958   6.331   3.440  1.00  0.00     0.014 C 
HETATM   31  C20 UNL     1      15.929   8.471   4.660  1.00  0.00     0.014 C 
HETATM   32  C21 UNL     1      14.157   6.850   5.048  1.00  0.00     0.014 C 
ENDBRANCH  28  29
ENDBRANCH  27  28
ENDBRANCH  26  27
ENDBRANCH  25  26
ENDBRANCH  24  25
ENDBRANCH   9  24
BRANCH   3  33
HETATM   33  O1  UNL     1      16.726   0.491  -0.776  1.00  0.00    -0.345 OA
ATOM     34  H1  UNL     1      16.903   0.493  -1.709  1.00  0.00     0.219 HD
ENDBRANCH   3  33
TORSDOF 11
ENDMDL
MODEL 2
REMARK VINA RESULT: -6.162260618      3.824      6.377
REMARK  11 active torsions:
REMARK  status: ('A' for Active; 'I' for Inactive)
REMARK    1  A    between atoms: C2_3  and  O1_4 
REMARK    2  A    between atoms: C5_8  and  C6_9 
REMARK    3  A    between atoms: C6_9  and  O2_10 
REMARK    4  A    between atoms: C6_9  and  N2_12 
REMARK    5  A    between atoms: C9_15  and  O3_16 
REMARK    6  A    between atoms: C12_21  and  C13_22 
REMARK    7  A    between atoms: C13_22  and  C14_23 
REMARK    8  A    between atoms: C14_23  and  C15_24 
REMARK    9  A    between atoms: C15_24  and  C16_25 
REMARK   10  A    between atoms: C16_25  and  C17_26 
REMARK   11  A    between atoms: C17_26  and  C18_27 
ROOT
HETATM    1  C1  UNL     1      16.780   1.938   1.486  1.00  0.00     0.161 C 
HETATM    2  N1  UNL     1      15.398   2.377   1.472  1.00  0.00    -0.298 N 
HETATM    3  C2  UNL     1      14.424   1.482   1.260  1.00  0.00     0.153 A 
HETATM    4  C3  UNL     1      13.130   1.891   1.247  1.00  0.00     0.028 A 
HETATM    5  C4  UNL     1      12.778   3.236   1.452  1.00  0.00     0.001 A 
HETATM    6  C5  UNL     1      13.787   4.164   1.670  1.00  0.00     0.067 A 
HETATM    7  C11 UNL     1      15.089   3.693   1.673  1.00  0.00     0.260 A 
HETATM    8  O4  UNL     1      16.027   4.499   1.864  1.00  0.00    -0.267 OA
HETATM    9  C12 UNL     1      11.323   3.347   1.389  1.00  0.00     0.220 C 
HETATM   10  N3  UNL     1      10.804   1.999   1.319  1.00  0.00    -0.063 N 
ATOM     11  H31 UNL     1      10.021   1.910   0.672  1.00  0.00     0.278 HD
ATOM     12  H32 UNL     1      10.310   1.721   2.167  1.00  0.00     0.278 HD
HETATM   13  C22 UNL     1      11.881   1.134   1.002  1.00  0.00     0.276 C 
ENDROOT
BRANCH   6  14
HETATM   14  C6  UNL     1      13.550   5.607   1.842  1.00  0.00     0.256 C 
BRANCH  14  15
HETATM   15  O2  UNL     1      13.981   6.237   0.628  1.00  0.00    -0.372 OA
ATOM     16  H2  UNL     1      14.426   7.037   0.883  1.00  0.00     0.212 HD
ENDBRANCH  14  15
BRANCH  14  17
HETATM   17  N2  UNL     1      14.075   6.261   2.936  1.00  0.00    -0.381 N 
HETATM   18  C7  UNL     1      14.527   7.590   2.913  1.00  0.00     0.122 C 
HETATM   19  C8  UNL     1      14.815   7.953   4.375  1.00  0.00     0.053 C 
HETATM   20  C9  UNL     1      13.780   7.135   5.112  1.00  0.00     0.137 C 
HETATM   21  C10 UNL     1      13.326   6.059   4.143  1.00  0.00     0.151 C 
BRANCH  20  22
HETATM   22  O3  UNL     1      14.337   6.588   6.257  1.00  0.00    -0.394 OA
ATOM     23  H3  UNL     1      13.666   6.468   6.918  1.00  0.00     0.210 HD
ENDBRANCH  20  22
ENDBRANCH  14  17
ENDBRANCH   6  14
BRANCH   9  24
HETATM   24  C13 UNL     1      10.624   4.101   2.444  1.00  0.00     0.038 C 
BRANCH  24  25
HETATM   25  C14 UNL     1       9.753   5.236   2.082  1.00  0.00     0.002 C 
BRANCH  25  26
HETATM   26  C15 UNL     1       8.721   5.031   1.032  1.00  0.00     0.000 C 
BRANCH  26  27
HETATM   27  C16 UNL     1       7.428   5.788   1.277  1.00  0.00     0.001 C 
BRANCH  27  28
HETATM   28  C17 UNL     1       7.401   6.180   2.739  1.00  0.00     0.008 C 
BRANCH  28  29
HETATM   29  C18 UNL     1       6.741   7.529   2.931  1.00  0.00    -0.051 C 
HETATM   30  C19 UNL     1       6.786   7.928   4.395  1.00  0.00     0.014 C 
HETATM   31  C20 UNL     1       7.505   8.551   2.122  1.00  0.00     0.014 C 
HETATM   32  C21 UNL     1       5.320   7.534   2.448  1.00  0.00     0.014 C 
ENDBRANCH  28  29
ENDBRANCH  27  28
ENDBRANCH  26  27
ENDBRANCH  25  26
ENDBRANCH  24  25
ENDBRANCH   9  24
BRANCH   3  33
HETATM   33  O1  UNL     1      14.708   0.140   1.052  1.00  0.00    -0.345 OA
ATOM     34  H1  UNL     1      15.249  -0.145   0.326  1.00  0.00     0.219 HD
ENDBRANCH   3  33
TORSDOF 11
ENDMDL
MODEL 3
REMARK VINA RESULT: -6.099943414      3.190      5.863
REMARK  11 active torsions:
REMARK  status: ('A' for Active; 'I' for Inactive)
REMARK    1  A    between atoms: C2_3  and  O1_4 
REMARK    2  A    between atoms: C5_8  and  C6_9 
REMARK    3  A    between atoms: C6_9  and  O2_10 
REMARK    4  A    between atoms: C6_9  and  N2_12 
REMARK    5  A    between atoms: C9_15  and  O3_16 
REMARK    6  A    between atoms: C12_21  and  C13_22 
REMARK    7  A    between atoms: C13_22  and  C14_23 
REMARK    8  A    between atoms: C14_23  and  C15_24 
REMARK    9  A    between atoms: C15_24  and  C16_25 
REMARK   10  A    between atoms: C16_25  and  C17_26 
REMARK   11  A    between atoms: C17_26  and  C18_27 
ROOT
HETATM    1  C1  UNL     1      11.916   3.649   7.032  1.00  0.00     0.161 C 
HETATM    2  N1  UNL     1      12.183   3.354   5.637  1.00  0.00    -0.298 N 
HETATM    3  C2  UNL     1      11.822   4.237   4.696  1.00  0.00     0.153 A 
HETATM    4  C3  UNL     1      12.071   3.963   3.391  1.00  0.00     0.028 A 
HETATM    5  C4  UNL     1      12.703   2.772   2.993  1.00  0.00     0.001 A 
HETATM    6  C5  UNL     1      13.076   1.857   3.967  1.00  0.00     0.067 A 
HETATM    7  C11 UNL     1      12.797   2.186   5.283  1.00  0.00     0.260 A 
HETATM    8  O4  UNL     1      13.115   1.386   6.191  1.00  0.00    -0.267 OA
HETATM    9  C12 UNL     1      12.834   2.783   1.538  1.00  0.00     0.220 C 
HETATM   10  N3  UNL     1      12.425   4.095   1.091  1.00  0.00    -0.063 N 
ATOM     11  H31 UNL     1      11.869   4.067   0.237  1.00  0.00     0.278 HD
ATOM     12  H32 UNL     1      13.201   4.650   0.730  1.00  0.00     0.278 HD
HETATM   13  C22 UNL     1      11.750   4.730   2.165  1.00  0.00     0.276 C 
ENDROOT
BRANCH   6  14
HETATM   14  C6  UNL     1      13.692   0.552   3.674  1.00  0.00     0.256 C 
BRANCH  14  15
HETATM   15  O2  UNL     1      12.807  -0.444   4.204  1.00  0.00    -0.372 OA
ATOM     16  H2  UNL     1      12.413  -0.879   3.457  1.00  0.00     0.212 HD
ENDBRANCH  14  15
BRANCH  14  17
HETATM   17  N2  UNL     1      14.989   0.304   4.071  1.00  0.00    -0.381 N 
HETATM   18  C7  UNL     1      15.396  -0.868   4.729  1.00  0.00     0.122 C 
HETATM   19  C8  UNL     1      16.928  -0.802   4.776  1.00  0.00     0.053 C 
HETATM   20  C9  UNL     1      17.251  -0.067   3.496  1.00  0.00     0.137 C 
HETATM   21  C10 UNL     1      15.969   0.627   3.074  1.00  0.00     0.151 C 
BRANCH  20  22
HETATM   22  O3  UNL     1      18.273   0.842   3.718  1.00  0.00    -0.394 OA
ATOM     23  H3  UNL     1      18.613   1.157   2.889  1.00  0.00     0.210 HD
ENDBRANCH  20  22
ENDBRANCH  14  17
ENDBRANCH   6  14
BRANCH   9  24
HETATM   24  C13 UNL     1      14.135   2.431   0.942  1.00  0.00     0.038 C 
BRANCH  24  25
HETATM   25  C14 UNL     1      15.101   3.494   0.605  1.00  0.00     0.002 C 
BRANCH  25  26
HETATM   26  C15 UNL     1      15.882   4.115   1.706  1.00  0.00     0.000 C 
BRANCH  26  27
HETATM   27  C16 UNL     1      15.604   5.594   1.907  1.00  0.00     0.001 C 
BRANCH  27  28
HETATM   28  C17 UNL     1      15.382   5.818   3.387  1.00  0.00     0.008 C 
BRANCH  28  29
HETATM   29  C18 UNL     1      15.082   7.273   3.682  1.00  0.00    -0.051 C 
HETATM   30  C19 UNL     1      14.531   7.953   2.442  1.00  0.00     0.014 C 
HETATM   31  C20 UNL     1      14.041   7.331   4.776  1.00  0.00     0.014 C 
HETATM   32  C21 UNL     1      16.297   8.010   4.167  1.00  0.00     0.014 C 
ENDBRANCH  28  29
ENDBRANCH  27  28
ENDBRANCH  26  27
ENDBRANCH  25  26
ENDBRANCH  24  25
ENDBRANCH   9  24
BRANCH   3  33
HETATM   33  O1  UNL     1      11.196   5.430   5.026  1.00  0.00    -0.345 OA
ATOM     34  H1  UNL     1      11.354   6.225   4.532  1.00  0.00     0.219 HD
ENDBRANCH   3  33
TORSDOF 11
ENDMDL
MODEL 4
REMARK VINA RESULT: -6.077375425      2.886      6.650
REMARK  11 active torsions:
REMARK  status: ('A' for Active; 'I' for Inactive)
REMARK    1  A    between atoms: C2_3  and  O1_4 
REMARK    2  A    between atoms: C5_8  and  C6_9 
REMARK    3  A    between atoms: C6_9  and  O2_10 
REMARK    4  A    between atoms: C6_9  and  N2_12 
REMARK    5  A    between atoms: C9_15  and  O3_16 
REMARK    6  A    between atoms: C12_21  and  C13_22 
REMARK    7  A    between atoms: C13_22  and  C14_23 
REMARK    8  A    between atoms: C14_23  and  C15_24 
REMARK    9  A    between atoms: C15_24  and  C16_25 
REMARK   10  A    between atoms: C16_25  and  C17_26 
REMARK   11  A    between atoms: C17_26  and  C18_27 
ROOT
HETATM    1  C1  UNL     1      16.747   1.840   1.622  1.00  0.00     0.161 C 
HETATM    2  N1  UNL     1      15.379   2.319   1.576  1.00  0.00    -0.298 N 
HETATM    3  C2  UNL     1      14.380   1.443   1.403  1.00  0.00     0.153 A 
HETATM    4  C3  UNL     1      13.099   1.889   1.361  1.00  0.00     0.028 A 
HETATM    5  C4  UNL     1      12.786   3.252   1.495  1.00  0.00     0.001 A 
HETATM    6  C5  UNL     1      13.821   4.160   1.672  1.00  0.00     0.067 A 
HETATM    7  C11 UNL     1      15.109   3.652   1.708  1.00  0.00     0.260 A 
HETATM    8  O4  UNL     1      16.069   4.438   1.863  1.00  0.00    -0.267 OA
HETATM    9  C12 UNL     1      11.335   3.403   1.417  1.00  0.00     0.220 C 
HETATM   10  N3  UNL     1      10.776   2.070   1.412  1.00  0.00    -0.063 N 
ATOM     11  H31 UNL     1       9.994   1.970   0.765  1.00  0.00     0.278 HD
ATOM     12  H32 UNL     1      10.270   1.850   2.270  1.00  0.00     0.278 HD
HETATM   13  C22 UNL     1      11.829   1.157   1.146  1.00  0.00     0.276 C 
ENDROOT
BRANCH   6  14
HETATM   14  C6  UNL     1      13.627   5.616   1.768  1.00  0.00     0.256 C 
BRANCH  14  15
HETATM   15  O2  UNL     1      14.140   6.176   0.552  1.00  0.00    -0.372 OA
ATOM     16  H2  UNL     1      13.802   7.062   0.500  1.00  0.00     0.212 HD
ENDBRANCH  14  15
BRANCH  14  17
HETATM   17  N2  UNL     1      14.119   6.302   2.859  1.00  0.00    -0.381 N 
HETATM   18  C7  UNL     1      14.516   7.647   2.824  1.00  0.00     0.122 C 
HETATM   19  C8  UNL     1      14.782   8.036   4.284  1.00  0.00     0.053 C 
HETATM   20  C9  UNL     1      13.776   7.184   5.024  1.00  0.00     0.137 C 
HETATM   21  C10 UNL     1      13.371   6.081   4.064  1.00  0.00     0.151 C 
BRANCH  20  22
HETATM   22  O3  UNL     1      14.349   6.671   6.177  1.00  0.00    -0.394 OA
ATOM     23  H3  UNL     1      13.677   6.512   6.830  1.00  0.00     0.210 HD
ENDBRANCH  20  22
ENDBRANCH  14  17
ENDBRANCH   6  14
BRANCH   9  24
HETATM   24  C13 UNL     1      10.654   4.231   2.427  1.00  0.00     0.038 C 
BRANCH  24  25
HETATM   25  C14 UNL     1      10.078   5.534   2.043  1.00  0.00     0.002 C 
BRANCH  25  26
HETATM   26  C15 UNL     1       8.602   5.701   2.104  1.00  0.00     0.000 C 
BRANCH  26  27
HETATM   27  C16 UNL     1       7.829   4.704   1.259  1.00  0.00     0.001 C 
BRANCH  27  28
HETATM   28  C17 UNL     1       7.748   5.266  -0.144  1.00  0.00     0.008 C 
BRANCH  28  29
HETATM   29  C18 UNL     1       7.801   4.161  -1.180  1.00  0.00    -0.051 C 
HETATM   30  C19 UNL     1       6.983   2.971  -0.714  1.00  0.00     0.014 C 
HETATM   31  C20 UNL     1       7.210   4.688  -2.467  1.00  0.00     0.014 C 
HETATM   32  C21 UNL     1       9.209   3.728  -1.467  1.00  0.00     0.014 C 
ENDBRANCH  28  29
ENDBRANCH  27  28
ENDBRANCH  26  27
ENDBRANCH  25  26
ENDBRANCH  24  25
ENDBRANCH   9  24
BRANCH   3  33
HETATM   33  O1  UNL     1      14.625   0.084   1.266  1.00  0.00    -0.345 OA
ATOM     34  H1  UNL     1      15.250  -0.245   0.632  1.00  0.00     0.219 HD
ENDBRANCH   3  33
TORSDOF 11
ENDMDL
MODEL 5
REMARK VINA RESULT: -5.843498215      4.429      6.797
REMARK  11 active torsions:
REMARK  status: ('A' for Active; 'I' for Inactive)
REMARK    1  A    between atoms: C2_3  and  O1_4 
REMARK    2  A    between atoms: C5_8  and  C6_9 
REMARK    3  A    between atoms: C6_9  and  O2_10 
REMARK    4  A    between atoms: C6_9  and  N2_12 
REMARK    5  A    between atoms: C9_15  and  O3_16 
REMARK    6  A    between atoms: C12_21  and  C13_22 
REMARK    7  A    between atoms: C13_22  and  C14_23 
REMARK    8  A    between atoms: C14_23  and  C15_24 
REMARK    9  A    between atoms: C15_24  and  C16_25 
REMARK   10  A    between atoms: C16_25  and  C17_26 
REMARK   11  A    between atoms: C17_26  and  C18_27 
ROOT
HETATM    1  C1  UNL     1      15.234   1.581   1.486  1.00  0.00     0.161 C 
HETATM    2  N1  UNL     1      14.040   2.405   1.451  1.00  0.00    -0.298 N 
HETATM    3  C2  UNL     1      12.849   1.830   1.241  1.00  0.00     0.153 A 
HETATM    4  C3  UNL     1      11.731   2.598   1.209  1.00  0.00     0.028 A 
HETATM    5  C4  UNL     1      11.786   3.991   1.393  1.00  0.00     0.001 A 
HETATM    6  C5  UNL     1      13.020   4.587   1.608  1.00  0.00     0.067 A 
HETATM    7  C11 UNL     1      14.128   3.757   1.631  1.00  0.00     0.260 A 
HETATM    8  O4  UNL     1      15.259   4.256   1.820  1.00  0.00    -0.267 OA
HETATM    9  C12 UNL     1      10.427   4.521   1.313  1.00  0.00     0.220 C 
HETATM   10  N3  UNL     1       9.537   3.383   1.256  1.00  0.00    -0.063 N 
ATOM     11  H31 UNL     1       8.766   3.516   0.602  1.00  0.00     0.278 HD
ATOM     12  H32 UNL     1       8.979   3.275   2.103  1.00  0.00     0.278 HD
HETATM   13  C22 UNL     1      10.317   2.235   0.961  1.00  0.00     0.276 C 
ENDROOT
BRANCH   6  14
HETATM   14  C6  UNL     1      13.215   6.038   1.758  1.00  0.00     0.256 C 
BRANCH  14  15
HETATM   15  O2  UNL     1      13.812   6.497   0.537  1.00  0.00    -0.372 OA
ATOM     16  H2  UNL     1      14.180   7.353   0.722  1.00  0.00     0.212 HD
ENDBRANCH  14  15
BRANCH  14  17
HETATM   17  N2  UNL     1      13.907   6.528   2.845  1.00  0.00    -0.381 N 
HETATM   18  C7  UNL     1      14.565   7.768   2.862  1.00  0.00     0.122 C 
HETATM   19  C8  UNL     1      15.001   7.983   4.317  1.00  0.00     0.053 C 
HETATM   20  C9  UNL     1      13.896   7.291   5.081  1.00  0.00     0.137 C 
HETATM   21  C10 UNL     1      13.213   6.367   4.091  1.00  0.00     0.151 C 
BRANCH  20  22
HETATM   22  O3  UNL     1      14.429   6.589   6.151  1.00  0.00    -0.394 OA
ATOM     23  H3  UNL     1      14.181   7.004   6.967  1.00  0.00     0.210 HD
ENDBRANCH  20  22
ENDBRANCH  14  17
ENDBRANCH   6  14
BRANCH   9  24
HETATM   24  C13 UNL     1       9.973   5.464   2.350  1.00  0.00     0.038 C 
BRANCH  24  25
HETATM   25  C14 UNL     1       8.557   5.877   2.399  1.00  0.00     0.002 C 
BRANCH  25  26
HETATM   26  C15 UNL     1       8.150   7.097   1.654  1.00  0.00     0.000 C 
BRANCH  26  27
HETATM   27  C16 UNL     1       7.397   8.114   2.493  1.00  0.00     0.001 C 
BRANCH  27  28
HETATM   28  C17 UNL     1       5.982   7.603   2.662  1.00  0.00     0.008 C 
BRANCH  28  29
HETATM   29  C18 UNL     1       5.630   7.443   4.127  1.00  0.00    -0.051 C 
HETATM   30  C19 UNL     1       5.468   5.973   4.467  1.00  0.00     0.014 C 
HETATM   31  C20 UNL     1       6.760   8.015   4.952  1.00  0.00     0.014 C 
HETATM   32  C21 UNL     1       4.378   8.188   4.489  1.00  0.00     0.014 C 
ENDBRANCH  28  29
ENDBRANCH  27  28
ENDBRANCH  26  27
ENDBRANCH  25  26
ENDBRANCH  24  25
ENDBRANCH   9  24
BRANCH   3  33
HETATM   33  O1  UNL     1      12.729   0.460   1.055  1.00  0.00    -0.345 OA
ATOM     34  H1  UNL     1      13.460  -0.126   1.210  1.00  0.00     0.219 HD
ENDBRANCH   3  33
TORSDOF 11
ENDMDL
