MODEL 1
REMARK VINA RESULT: -4.955578484      0.000      0.000
REMARK  2 active torsions:
REMARK  status: ('A' for Active; 'I' for Inactive)
REMARK    1  A    between atoms: N1_1  and  C1_5 
REMARK    2  A    between atoms: C1_5  and  C2_6 
ROOT
HETATM    1  C2  UNL     1      13.335   9.606   0.559  1.00  0.00     0.015 C 
HETATM    2  C3  UNL     1      14.460   8.600   0.542  1.00  0.00     0.007 C 
HETATM    3  C4  UNL     1      14.629   7.984  -0.815  1.00  0.00     0.005 C 
HETATM    4  C5  UNL     1      14.996   8.953  -1.882  1.00  0.00    -0.014 C 
HETATM    5  C6  UNL     1      15.830  10.109  -1.392  1.00  0.00     0.005 C 
HETATM    6  C7  UNL     1      15.058  11.042  -0.506  1.00  0.00     0.005 C 
HETATM    7  C8  UNL     1      13.600  10.722  -0.426  1.00  0.00    -0.009 C 
HETATM    8  C9  UNL     1      12.967  10.376  -1.728  1.00  0.00     0.005 C 
HETATM    9  C10 UNL     1      13.807   9.517  -2.619  1.00  0.00     0.005 C 
ENDROOT
BRANCH   1  10
HETATM   10  C1  UNL     1      13.230  10.231   1.927  1.00  0.00     0.234 C 
BRANCH  10  11
HETATM   11  N1  UNL     1      12.237   9.604   2.760  1.00  0.00    -0.079 N 
ATOM     12  H13 UNL     1      12.547   8.681   3.064  1.00  0.00     0.274 HD
ATOM     13  H12 UNL     1      12.177  10.067   3.666  1.00  0.00     0.274 HD
ATOM     14  H11 UNL     1      11.319   9.552   2.317  1.00  0.00     0.274 HD
ENDBRANCH  10  11
ENDBRANCH   1  10
TORSDOF 2
ENDMDL
MODEL 2
REMARK VINA RESULT: -4.927515565      2.261      3.671
REMARK  2 active torsions:
REMARK  status: ('A' for Active; 'I' for Inactive)
REMARK    1  A    between atoms: N1_1  and  C1_5 
REMARK    2  A    between atoms: C1_5  and  C2_6 
ROOT
HETATM    1  C2  UNL     1      13.366   9.522  -2.270  1.00  0.00     0.015 C 
HETATM    2  C3  UNL     1      13.122  10.808  -1.518  1.00  0.00     0.007 C 
HETATM    3  C4  UNL     1      13.270  10.619  -0.038  1.00  0.00     0.005 C 
HETATM    4  C5  UNL     1      14.634  10.206   0.389  1.00  0.00    -0.014 C 
HETATM    5  C6  UNL     1      15.734  10.745  -0.487  1.00  0.00     0.005 C 
HETATM    6  C7  UNL     1      15.738  10.128  -1.855  1.00  0.00     0.005 C 
HETATM    7  C8  UNL     1      14.762   9.006  -2.007  1.00  0.00    -0.009 C 
HETATM    8  C9  UNL     1      14.718   8.060  -0.858  1.00  0.00     0.005 C 
HETATM    9  C10 UNL     1      14.807   8.711   0.486  1.00  0.00     0.005 C 
ENDROOT
BRANCH   1  10
HETATM   10  C1  UNL     1      13.250   9.768  -3.753  1.00  0.00     0.234 C 
BRANCH  10  11
HETATM   11  N1  UNL     1      11.893   9.708  -4.231  1.00  0.00    -0.079 N 
ATOM     12  H13 UNL     1      11.809  10.153  -5.145  1.00  0.00     0.274 HD
ATOM     13  H12 UNL     1      11.640   8.754  -4.486  1.00  0.00     0.274 HD
ATOM     14  H11 UNL     1      11.219  10.099  -3.573  1.00  0.00     0.274 HD
ENDBRANCH  10  11
ENDBRANCH   1  10
TORSDOF 2
ENDMDL
MODEL 3
REMARK VINA RESULT: -4.892233054      2.725      3.956
REMARK  2 active torsions:
REMARK  status: ('A' for Active; 'I' for Inactive)
REMARK    1  A    between atoms: N1_1  and  C1_5 
REMARK    2  A    between atoms: C1_5  and  C2_6 
ROOT
HETATM    1  C2  UNL     1      15.226   9.716  -2.497  1.00  0.00     0.015 C 
HETATM    2  C3  UNL     1      14.453   8.477  -2.112  1.00  0.00     0.007 C 
HETATM    3  C4  UNL     1      14.794   8.023  -0.724  1.00  0.00     0.005 C 
HETATM    4  C5  UNL     1      14.453   9.005   0.339  1.00  0.00    -0.014 C 
HETATM    5  C6  UNL     1      13.245   9.848   0.022  1.00  0.00     0.005 C 
HETATM    6  C7  UNL     1      13.495  10.816  -1.097  1.00  0.00     0.005 C 
HETATM    7  C8  UNL     1      14.920  10.853  -1.549  1.00  0.00    -0.009 C 
HETATM    8  C9  UNL     1      15.922  10.846  -0.448  1.00  0.00     0.005 C 
HETATM    9  C10 UNL     1      15.589   9.933   0.690  1.00  0.00     0.005 C 
ENDROOT
BRANCH   1  10
HETATM   10  C1  UNL     1      14.820  10.161  -3.879  1.00  0.00     0.234 C 
BRANCH  10  11
HETATM   11  N1  UNL     1      15.781   9.809  -4.891  1.00  0.00    -0.079 N 
ATOM     12  H13 UNL     1      16.664  10.298  -4.740  1.00  0.00     0.274 HD
ATOM     13  H12 UNL     1      16.100   8.848  -4.771  1.00  0.00     0.274 HD
ATOM     14  H11 UNL     1      15.438   9.963  -5.839  1.00  0.00     0.274 HD
ENDBRANCH  10  11
ENDBRANCH   1  10
TORSDOF 2
ENDMDL
MODEL 4
REMARK VINA RESULT: -4.727302214      1.234      1.252
REMARK  2 active torsions:
REMARK  status: ('A' for Active; 'I' for Inactive)
REMARK    1  A    between atoms: N1_1  and  C1_5 
REMARK    2  A    between atoms: C1_5  and  C2_6 
ROOT
HETATM    1  C2  UNL     1      13.874   9.219   0.409  1.00  0.00     0.015 C 
HETATM    2  C3  UNL     1      14.814   8.229  -0.236  1.00  0.00     0.007 C 
HETATM    3  C4  UNL     1      14.606   8.157  -1.720  1.00  0.00     0.005 C 
HETATM    4  C5  UNL     1      14.879   9.432  -2.435  1.00  0.00    -0.014 C 
HETATM    5  C6  UNL     1      15.954  10.270  -1.793  1.00  0.00     0.005 C 
HETATM    6  C7  UNL     1      15.528  10.847  -0.475  1.00  0.00     0.005 C 
HETATM    7  C8  UNL     1      14.087  10.605  -0.155  1.00  0.00    -0.009 C 
HETATM    8  C9  UNL     1      13.154  10.809  -1.296  1.00  0.00     0.005 C 
HETATM    9  C10 UNL     1      13.657  10.299  -2.610  1.00  0.00     0.005 C 
ENDROOT
BRANCH   1  10
HETATM   10  C1  UNL     1      14.148   9.290   1.890  1.00  0.00     0.234 C 
BRANCH  10  11
HETATM   11  N1  UNL     1      15.350   8.596   2.277  1.00  0.00    -0.079 N 
ATOM     12  H13 UNL     1      15.225   7.586   2.208  1.00  0.00     0.274 HD
ATOM     13  H12 UNL     1      16.082   8.722   1.578  1.00  0.00     0.274 HD
ATOM     14  H11 UNL     1      15.683   8.860   3.204  1.00  0.00     0.274 HD
ENDBRANCH  10  11
ENDBRANCH   1  10
TORSDOF 2
ENDMDL
MODEL 5
REMARK VINA RESULT: -4.690328586      2.026      3.817
REMARK  2 active torsions:
REMARK  status: ('A' for Active; 'I' for Inactive)
REMARK    1  A    between atoms: N1_1  and  C1_5 
REMARK    2  A    between atoms: C1_5  and  C2_6 
ROOT
HETATM    1  C2  UNL     1      14.124  10.357  -0.059  1.00  0.00     0.015 C 
HETATM    2  C3  UNL     1      15.607  10.204   0.184  1.00  0.00     0.007 C 
HETATM    3  C4  UNL     1      16.008  10.762   1.517  1.00  0.00     0.005 C 
HETATM    4  C5  UNL     1      15.380  10.076   2.678  1.00  0.00    -0.014 C 
HETATM    5  C6  UNL     1      15.110   8.612   2.445  1.00  0.00     0.005 C 
HETATM    6  C7  UNL     1      14.021   8.379   1.439  1.00  0.00     0.005 C 
HETATM    7  C8  UNL     1      13.331   9.633   1.004  1.00  0.00    -0.009 C 
HETATM    8  C9  UNL     1      13.018  10.584   2.105  1.00  0.00     0.005 C 
HETATM    9  C10 UNL     1      14.094  10.720   3.135  1.00  0.00     0.005 C 
ENDROOT
BRANCH   1  10
HETATM   10  C1  UNL     1      13.760   9.745  -1.388  1.00  0.00     0.234 C 
BRANCH  10  11
HETATM   11  N1  UNL     1      12.656  10.408  -2.032  1.00  0.00    -0.079 N 
ATOM     12  H13 UNL     1      12.284  11.152  -1.441  1.00  0.00     0.274 HD
ATOM     13  H12 UNL     1      12.979  10.968  -2.821  1.00  0.00     0.274 HD
ATOM     14  H11 UNL     1      11.916   9.768  -2.319  1.00  0.00     0.274 HD
ENDBRANCH  10  11
ENDBRANCH   1  10
TORSDOF 2
ENDMDL
