MODEL 1
REMARK VINA RESULT: -4.806149867      0.000      0.000
REMARK  1 active torsions:
REMARK  status: ('A' for Active; 'I' for Inactive)
REMARK    1  A    between atoms: C2_2  and  C4_4 
ROOT
HETATM    1  C4  UNL     1      14.875   9.197  -0.624  1.00  0.00     0.251 C 
HETATM    2  N1  UNL     1      14.542   7.893  -0.148  1.00  0.00    -0.060 N 
ATOM      3  H11 UNL     1      15.273   7.220  -0.379  1.00  0.00     0.278 HD
ATOM      4  H12 UNL     1      13.774   7.491  -0.686  1.00  0.00     0.278 HD
HETATM    5  C5  UNL     1      14.259   7.876   1.219  1.00  0.00     0.253 C 
HETATM    6  C6  UNL     1      13.653   9.107   1.728  1.00  0.00     0.027 C 
HETATM    7  C7  UNL     1      14.611   9.762   2.732  1.00  0.00     0.028 C 
HETATM    8  C8  UNL     1      12.283   8.954   2.324  1.00  0.00     0.028 C 
HETATM    9  S1  UNL     1      13.650  10.198   0.275  1.00  0.00    -0.125 SA
ENDROOT
BRANCH   1  10
HETATM   10  C2  UNL     1      14.705   9.311  -2.114  1.00  0.00     0.018 C 
HETATM   11  C1  UNL     1      13.412   9.940  -2.515  1.00  0.00     0.012 C 
HETATM   12  C3  UNL     1      15.840  10.162  -2.648  1.00  0.00     0.012 C 
ENDBRANCH   1  10
TORSDOF 1
ENDMDL
MODEL 2
REMARK VINA RESULT: -4.724741293      1.414      4.179
REMARK  1 active torsions:
REMARK  status: ('A' for Active; 'I' for Inactive)
REMARK    1  A    between atoms: C2_2  and  C4_4 
ROOT
HETATM    1  C4  UNL     1      14.548   9.532   0.468  1.00  0.00     0.251 C 
HETATM    2  N1  UNL     1      13.635  10.552   0.060  1.00  0.00    -0.060 N 
ATOM      3  H11 UNL     1      13.644  11.335   0.713  1.00  0.00     0.278 HD
ATOM      4  H12 UNL     1      12.669  10.248   0.180  1.00  0.00     0.278 HD
HETATM    5  C5  UNL     1      13.866  10.986  -1.246  1.00  0.00     0.253 C 
HETATM    6  C6  UNL     1      14.390   9.958  -2.145  1.00  0.00     0.027 C 
HETATM    7  C7  UNL     1      15.801  10.357  -2.599  1.00  0.00     0.028 C 
HETATM    8  C8  UNL     1      13.526   9.631  -3.328  1.00  0.00     0.028 C 
HETATM    9  S1  UNL     1      14.619   8.527  -1.047  1.00  0.00    -0.125 SA
ENDROOT
BRANCH   1  10
HETATM   10  C2  UNL     1      14.024   8.745   1.637  1.00  0.00     0.018 C 
HETATM   11  C1  UNL     1      12.629   9.114   2.021  1.00  0.00     0.012 C 
HETATM   12  C3  UNL     1      14.046   7.277   1.258  1.00  0.00     0.012 C 
ENDBRANCH   1  10
TORSDOF 1
ENDMDL
MODEL 3
REMARK VINA RESULT: -4.701452717      4.853      7.112
REMARK  1 active torsions:
REMARK  status: ('A' for Active; 'I' for Inactive)
REMARK    1  A    between atoms: C2_2  and  C4_4 
ROOT
HETATM    1  C4  UNL     1      13.948   9.561   6.339  1.00  0.00     0.251 C 
HETATM    2  N1  UNL     1      13.482   9.166   5.048  1.00  0.00    -0.060 N 
ATOM      3  H11 UNL     1      12.508   9.435   4.912  1.00  0.00     0.278 HD
ATOM      4  H12 UNL     1      13.382   8.153   4.988  1.00  0.00     0.278 HD
HETATM    5  C5  UNL     1      14.285   9.653   4.016  1.00  0.00     0.253 C 
HETATM    6  C6  UNL     1      15.700   9.791   4.361  1.00  0.00     0.027 C 
HETATM    7  C7  UNL     1      16.090  11.274   4.306  1.00  0.00     0.028 C 
HETATM    8  C8  UNL     1      16.649   8.963   3.544  1.00  0.00     0.028 C 
HETATM    9  S1  UNL     1      15.741   9.342   6.122  1.00  0.00    -0.125 SA
ENDROOT
BRANCH   1  10
HETATM   10  C2  UNL     1      13.404   8.677   7.427  1.00  0.00     0.018 C 
HETATM   11  C1  UNL     1      14.133   7.380   7.554  1.00  0.00     0.012 C 
HETATM   12  C3  UNL     1      13.523   9.426   8.740  1.00  0.00     0.012 C 
ENDBRANCH   1  10
TORSDOF 1
ENDMDL
MODEL 4
REMARK VINA RESULT: -4.693596303      7.270      9.468
REMARK  1 active torsions:
REMARK  status: ('A' for Active; 'I' for Inactive)
REMARK    1  A    between atoms: C2_2  and  C4_4 
ROOT
HETATM    1  C4  UNL     1      13.782  10.300   9.210  1.00  0.00     0.251 C 
HETATM    2  N1  UNL     1      14.979   9.601   9.553  1.00  0.00    -0.060 N 
ATOM      3  H11 UNL     1      14.929   9.229  10.501  1.00  0.00     0.278 HD
ATOM      4  H12 UNL     1      15.760  10.247   9.671  1.00  0.00     0.278 HD
HETATM    5  C5  UNL     1      15.294   8.597   8.636  1.00  0.00     0.253 C 
HETATM    6  C6  UNL     1      14.883   8.878   7.261  1.00  0.00     0.027 C 
HETATM    7  C7  UNL     1      13.826   7.852   6.831  1.00  0.00     0.028 C 
HETATM    8  C8  UNL     1      15.995   8.947   6.254  1.00  0.00     0.028 C 
HETATM    9  S1  UNL     1      13.996  10.457   7.410  1.00  0.00    -0.125 SA
ENDROOT
BRANCH   1  10
HETATM   10  C2  UNL     1      13.704  11.642   9.884  1.00  0.00     0.018 C 
HETATM   11  C1  UNL     1      12.334  12.236   9.862  1.00  0.00     0.012 C 
HETATM   12  C3  UNL     1      14.128  11.464  11.329  1.00  0.00     0.012 C 
ENDBRANCH   1  10
TORSDOF 1
ENDMDL
MODEL 5
REMARK VINA RESULT: -4.685433189      1.132      4.174
REMARK  1 active torsions:
REMARK  status: ('A' for Active; 'I' for Inactive)
REMARK    1  A    between atoms: C2_2  and  C4_4 
ROOT
HETATM    1  C4  UNL     1      13.296   9.666   0.100  1.00  0.00     0.251 C 
HETATM    2  N1  UNL     1      14.327   8.690  -0.051  1.00  0.00    -0.060 N 
ATOM      3  H11 UNL     1      14.050   7.798   0.359  1.00  0.00     0.278 HD
ATOM      4  H12 UNL     1      15.125   8.904   0.547  1.00  0.00     0.278 HD
HETATM    5  C5  UNL     1      14.724   8.530  -1.379  1.00  0.00     0.253 C 
HETATM    6  C6  UNL     1      14.629   9.743  -2.192  1.00  0.00     0.027 C 
HETATM    7  C7  UNL     1      13.587   9.526  -3.299  1.00  0.00     0.028 C 
HETATM    8  C8  UNL     1      15.923  10.236  -2.771  1.00  0.00     0.028 C 
HETATM    9  S1  UNL     1      13.884  10.946  -1.052  1.00  0.00    -0.125 SA
ENDROOT
BRANCH   1  10
HETATM   10  C2  UNL     1      13.211  10.180   1.510  1.00  0.00     0.018 C 
HETATM   11  C1  UNL     1      12.421   9.293   2.416  1.00  0.00     0.012 C 
HETATM   12  C3  UNL     1      14.622  10.287   2.053  1.00  0.00     0.012 C 
ENDBRANCH   1  10
TORSDOF 1
ENDMDL
