MODEL 1
REMARK VINA RESULT: -7.558606614      0.000      0.000
REMARK  4 active torsions:
REMARK  status: ('A' for Active; 'I' for Inactive)
REMARK    1  A    between atoms: S1_2  and  C2_3 
REMARK    2  A    between atoms: C3_8  and  N3_9 
REMARK    3  A    between atoms: C7_19  and  N7_20 
REMARK    4  A    between atoms: C8_25  and  N9_26 
ROOT
HETATM    1  N3  UNL     1      15.355  10.103   1.153  1.00  0.00    -0.063 N 
HETATM    2  N4  UNL     1      14.198   9.743   1.731  1.00  0.00    -0.219 N 
ATOM      3  H4  UNL     1      14.092   9.550   2.727  1.00  0.00     0.209 HD
HETATM    4  N5  UNL     1      13.228   9.672   0.866  1.00  0.00    -0.268 N 
ATOM      5  H5  UNL     1      12.263   9.418   1.079  1.00  0.00     0.190 HD
HETATM    6  C4  UNL     1      13.695   9.984  -0.344  1.00  0.00     0.155 A 
HETATM    7  N6  UNL     1      12.977  10.017  -1.484  1.00  0.00    -0.340 N 
ATOM      8  H6  UNL     1      11.974  10.169  -1.383  1.00  0.00     0.167 HD
HETATM    9  C5  UNL     1      13.443   9.871  -2.755  1.00  0.00     0.051 C 
HETATM   10  C6  UNL     1      12.497   9.378  -3.782  1.00  0.00     0.072 C 
HETATM   11  C7  UNL     1      14.731  10.144  -3.174  1.00  0.00     0.123 C 
HETATM   12  N8  UNL     1      15.831  10.429  -2.455  1.00  0.00    -0.326 N 
ATOM     13  H8  UNL     1      16.698  10.507  -2.987  1.00  0.00     0.169 HD
HETATM   14  C8  UNL     1      15.944  10.626  -1.121  1.00  0.00     0.134 C 
HETATM   15  C9  UNL     1      15.034  10.255  -0.158  1.00  0.00     0.165 A 
ENDROOT
BRANCH   1  16
HETATM   16  C3  UNL     1      16.615  10.282   1.771  1.00  0.00     0.722 A 
HETATM   17  N2  UNL     1      16.998  11.377   2.441  1.00  0.00    -0.128 N 
HETATM   18  N1  UNL     1      18.239  11.208   2.886  1.00  0.00    -0.265 N 
ATOM     19  H2  UNL     1      16.427  12.210   2.588  1.00  0.00     0.205 HD
HETATM   20  C2  UNL     1      18.673  10.010   2.516  1.00  0.00     0.174 A 
ATOM     21  H1  UNL     1      18.772  11.889   3.426  1.00  0.00     0.189 HD
HETATM   22  N10 UNL     1      17.654   9.436   1.819  1.00  0.00    -0.166 N 
ATOM     23  H10 UNL     1      17.678   8.506   1.399  1.00  0.00     0.186 HD
BRANCH  20  24
HETATM   24  S1  UNL     1      20.278   9.286   2.858  1.00  0.00    -0.097 SA
HETATM   25  C1  UNL     1      21.443   9.826   1.608  1.00  0.00     0.099 C 
ENDBRANCH  20  24
ENDBRANCH   1  16
BRANCH  14  26
HETATM   26  N9  UNL     1      16.994  11.216  -0.676  1.00  0.00    -0.383 N 
ATOM     27  H92 UNL     1      16.813  12.000  -0.050  1.00  0.00     0.157 HD
ATOM     28  H91 UNL     1      17.908  10.871  -0.969  1.00  0.00     0.157 HD
ENDBRANCH  14  26
BRANCH  11  29
HETATM   29  N7  UNL     1      14.853  10.111  -4.468  1.00  0.00    -0.384 N 
ATOM     30  H72 UNL     1      14.823  11.001  -4.966  1.00  0.00     0.157 HD
ATOM     31  H71 UNL     1      14.965   9.163  -4.828  1.00  0.00     0.157 HD
ENDBRANCH  11  29
TORSDOF 4
ENDMDL
MODEL 2
REMARK VINA RESULT: -7.549403744      3.702      6.904
REMARK  4 active torsions:
REMARK  status: ('A' for Active; 'I' for Inactive)
REMARK    1  A    between atoms: S1_2  and  C2_3 
REMARK    2  A    between atoms: C3_8  and  N3_9 
REMARK    3  A    between atoms: C7_19  and  N7_20 
REMARK    4  A    between atoms: C8_25  and  N9_26 
ROOT
HETATM    1  N3  UNL     1      17.011   9.225   2.964  1.00  0.00    -0.063 N 
HETATM    2  N4  UNL     1      17.901   8.265   3.260  1.00  0.00    -0.219 N 
ATOM      3  H4  UNL     1      18.552   7.861   2.586  1.00  0.00     0.209 HD
HETATM    4  N5  UNL     1      17.833   7.912   4.511  1.00  0.00    -0.268 N 
ATOM      5  H5  UNL     1      18.413   7.201   4.957  1.00  0.00     0.190 HD
HETATM    6  C4  UNL     1      16.884   8.626   5.117  1.00  0.00     0.155 A 
HETATM    7  N6  UNL     1      16.531   8.533   6.414  1.00  0.00    -0.340 N 
ATOM      8  H6  UNL     1      17.243   8.176   7.053  1.00  0.00     0.167 HD
HETATM    9  C5  UNL     1      15.332   8.862   6.968  1.00  0.00     0.051 C 
HETATM   10  C6  UNL     1      14.947   8.187   8.228  1.00  0.00     0.072 C 
HETATM   11  C7  UNL     1      14.436   9.779   6.453  1.00  0.00     0.123 C 
HETATM   12  N8  UNL     1      14.427  10.405   5.263  1.00  0.00    -0.326 N 
ATOM     13  H8  UNL     1      13.605  10.977   5.071  1.00  0.00     0.169 HD
HETATM   14  C8  UNL     1      15.362  10.378   4.285  1.00  0.00     0.134 C 
HETATM   15  C9  UNL     1      16.370   9.452   4.139  1.00  0.00     0.165 A 
ENDROOT
BRANCH   1  16
HETATM   16  C3  UNL     1      16.794   9.852   1.715  1.00  0.00     0.722 A 
HETATM   17  N2  UNL     1      17.496  10.891   1.240  1.00  0.00    -0.128 N 
HETATM   18  N1  UNL     1      17.026  11.228   0.044  1.00  0.00    -0.265 N 
ATOM     19  H2  UNL     1      18.271  11.350   1.721  1.00  0.00     0.205 HD
HETATM   20  C2  UNL     1      16.022  10.419  -0.272  1.00  0.00     0.174 A 
ATOM     21  H1  UNL     1      17.379  11.987  -0.538  1.00  0.00     0.189 HD
HETATM   22  N10 UNL     1      15.882   9.562   0.776  1.00  0.00    -0.166 N 
ATOM     23  H10 UNL     1      15.191   8.814   0.837  1.00  0.00     0.186 HD
BRANCH  20  24
HETATM   24  S1  UNL     1      15.042  10.444  -1.773  1.00  0.00    -0.097 SA
HETATM   25  C1  UNL     1      13.322  10.707  -1.346  1.00  0.00     0.099 C 
ENDBRANCH  20  24
ENDBRANCH   1  16
BRANCH  14  26
HETATM   26  N9  UNL     1      15.336  11.295   3.386  1.00  0.00    -0.383 N 
ATOM     27  H92 UNL     1      16.008  12.050   3.524  1.00  0.00     0.157 HD
ATOM     28  H91 UNL     1      14.667  11.209   2.622  1.00  0.00     0.157 HD
ENDBRANCH  14  26
BRANCH  11  29
HETATM   29  N7  UNL     1      13.468  10.050   7.279  1.00  0.00    -0.384 N 
ATOM     30  H72 UNL     1      13.716  10.491   8.165  1.00  0.00     0.157 HD
ATOM     31  H71 UNL     1      12.555   9.774   6.918  1.00  0.00     0.157 HD
ENDBRANCH  11  29
TORSDOF 4
ENDMDL
MODEL 3
REMARK VINA RESULT: -7.427776951      2.574      3.881
REMARK  4 active torsions:
REMARK  status: ('A' for Active; 'I' for Inactive)
REMARK    1  A    between atoms: S1_2  and  C2_3 
REMARK    2  A    between atoms: C3_8  and  N3_9 
REMARK    3  A    between atoms: C7_19  and  N7_20 
REMARK    4  A    between atoms: C8_25  and  N9_26 
ROOT
HETATM    1  N3  UNL     1      15.640  10.446   1.360  1.00  0.00    -0.063 N 
HETATM    2  N4  UNL     1      16.867  10.854   1.002  1.00  0.00    -0.219 N 
ATOM      3  H4  UNL     1      17.580  11.170   1.660  1.00  0.00     0.209 HD
HETATM    4  N5  UNL     1      17.038  10.797  -0.287  1.00  0.00    -0.268 N 
ATOM      5  H5  UNL     1      17.891  11.058  -0.783  1.00  0.00     0.190 HD
HETATM    6  C4  UNL     1      15.922  10.344  -0.858  1.00  0.00     0.155 A 
HETATM    7  N6  UNL     1      15.730  10.153  -2.178  1.00  0.00    -0.340 N 
ATOM      8  H6  UNL     1      16.567   9.996  -2.740  1.00  0.00     0.167 HD
HETATM    9  C5  UNL     1      14.543  10.146  -2.846  1.00  0.00     0.051 C 
HETATM   10  C6  UNL     1      14.562  10.487  -4.286  1.00  0.00     0.072 C 
HETATM   11  C7  UNL     1      13.313   9.846  -2.292  1.00  0.00     0.123 C 
HETATM   12  N8  UNL     1      12.963   9.675  -1.005  1.00  0.00    -0.326 N 
ATOM     13  H8  UNL     1      11.966   9.547  -0.832  1.00  0.00     0.169 HD
HETATM   14  C8  UNL     1      13.755   9.651   0.092  1.00  0.00     0.134 C 
HETATM   15  C9  UNL     1      15.045  10.123   0.183  1.00  0.00     0.165 A 
ENDROOT
BRANCH   1  16
HETATM   16  C3  UNL     1      15.097  10.371   2.664  1.00  0.00     0.722 A 
HETATM   17  N2  UNL     1      14.379  11.334   3.260  1.00  0.00    -0.128 N 
HETATM   18  N1  UNL     1      14.031  10.932   4.478  1.00  0.00    -0.265 N 
ATOM     19  H2  UNL     1      14.138  12.233   2.843  1.00  0.00     0.205 HD
HETATM   20  C2  UNL     1      14.512   9.713   4.687  1.00  0.00     0.174 A 
ATOM     21  H1  UNL     1      13.483  11.474   5.145  1.00  0.00     0.189 HD
HETATM   22  N10 UNL     1      15.177   9.367   3.551  1.00  0.00    -0.166 N 
ATOM     23  H10 UNL     1      15.661   8.482   3.397  1.00  0.00     0.186 HD
BRANCH  20  24
HETATM   24  S1  UNL     1      14.329   8.716   6.166  1.00  0.00    -0.097 SA
HETATM   25  C1  UNL     1      13.655   9.731   7.479  1.00  0.00     0.099 C 
ENDBRANCH  20  24
ENDBRANCH   1  16
BRANCH  14  26
HETATM   26  N9  UNL     1      13.287   9.142   1.174  1.00  0.00    -0.383 N 
ATOM     27  H92 UNL     1      13.861   8.406   1.586  1.00  0.00     0.157 HD
ATOM     28  H91 UNL     1      12.402   9.496   1.537  1.00  0.00     0.157 HD
ENDBRANCH  14  26
BRANCH  11  29
HETATM   29  N7  UNL     1      12.380   9.717  -3.189  1.00  0.00    -0.384 N 
ATOM     30  H72 UNL     1      12.560   9.084  -3.967  1.00  0.00     0.157 HD
ATOM     31  H71 UNL     1      11.560  10.290  -2.987  1.00  0.00     0.157 HD
ENDBRANCH  11  29
TORSDOF 4
ENDMDL
MODEL 4
REMARK VINA RESULT: -7.328035172      4.633      6.883
REMARK  4 active torsions:
REMARK  status: ('A' for Active; 'I' for Inactive)
REMARK    1  A    between atoms: S1_2  and  C2_3 
REMARK    2  A    between atoms: C3_8  and  N3_9 
REMARK    3  A    between atoms: C7_19  and  N7_20 
REMARK    4  A    between atoms: C8_25  and  N9_26 
ROOT
HETATM    1  N3  UNL     1      16.373  10.268   3.985  1.00  0.00    -0.063 N 
HETATM    2  N4  UNL     1      15.407  11.131   3.631  1.00  0.00    -0.219 N 
ATOM      3  H4  UNL     1      15.467  11.758   2.829  1.00  0.00     0.209 HD
HETATM    4  N5  UNL     1      14.385  11.069   4.435  1.00  0.00    -0.268 N 
ATOM      5  H5  UNL     1      13.538  11.632   4.359  1.00  0.00     0.190 HD
HETATM    6  C4  UNL     1      14.622  10.153   5.375  1.00  0.00     0.155 A 
HETATM    7  N6  UNL     1      13.787   9.815   6.378  1.00  0.00    -0.340 N 
ATOM      8  H6  UNL     1      12.794   9.990   6.219  1.00  0.00     0.167 HD
HETATM    9  C5  UNL     1      14.121   9.267   7.578  1.00  0.00     0.051 C 
HETATM   10  C6  UNL     1      13.202   9.492   8.717  1.00  0.00     0.072 C 
HETATM   11  C7  UNL     1      15.251   8.514   7.830  1.00  0.00     0.123 C 
HETATM   12  N8  UNL     1      16.332   8.294   7.060  1.00  0.00    -0.326 N 
ATOM     13  H8  UNL     1      17.088   7.770   7.500  1.00  0.00     0.169 HD
HETATM   14  C8  UNL     1      16.552   8.675   5.780  1.00  0.00     0.134 C 
HETATM   15  C9  UNL     1      15.873   9.651   5.087  1.00  0.00     0.165 A 
ENDROOT
BRANCH   1  16
HETATM   16  C3  UNL     1      17.620  10.054   3.353  1.00  0.00     0.722 A 
HETATM   17  N2  UNL     1      17.837   9.206   2.338  1.00  0.00    -0.128 N 
HETATM   18  N1  UNL     1      19.119   9.254   1.992  1.00  0.00    -0.265 N 
ATOM     19  H2  UNL     1      17.129   8.616   1.900  1.00  0.00     0.205 HD
HETATM   20  C2  UNL     1      19.746  10.128   2.769  1.00  0.00     0.174 A 
ATOM     21  H1  UNL     1      19.552   8.707   1.249  1.00  0.00     0.189 HD
HETATM   22  N10 UNL     1      18.804  10.625   3.618  1.00  0.00    -0.166 N 
ATOM     23  H10 UNL     1      18.973  11.323   4.343  1.00  0.00     0.186 HD
BRANCH  20  24
HETATM   24  S1  UNL     1      21.483  10.570   2.721  1.00  0.00    -0.097 SA
HETATM   25  C1  UNL     1      22.223   9.879   1.243  1.00  0.00     0.099 C 
ENDBRANCH  20  24
ENDBRANCH   1  16
BRANCH  14  26
HETATM   26  N9  UNL     1      17.481   8.086   5.117  1.00  0.00    -0.383 N 
ATOM     27  H92 UNL     1      18.246   7.719   5.682  1.00  0.00     0.157 HD
ATOM     28  H91 UNL     1      17.393   8.028   4.102  1.00  0.00     0.157 HD
ENDBRANCH  14  26
BRANCH  11  29
HETATM   29  N7  UNL     1      15.225   7.948   9.000  1.00  0.00    -0.384 N 
ATOM     30  H72 UNL     1      14.532   8.284   9.669  1.00  0.00     0.157 HD
ATOM     31  H71 UNL     1      15.927   7.215   9.098  1.00  0.00     0.157 HD
ENDBRANCH  11  29
TORSDOF 4
ENDMDL
MODEL 5
REMARK VINA RESULT: -7.273229700      3.948      7.221
REMARK  4 active torsions:
REMARK  status: ('A' for Active; 'I' for Inactive)
REMARK    1  A    between atoms: S1_2  and  C2_3 
REMARK    2  A    between atoms: C3_8  and  N3_9 
REMARK    3  A    between atoms: C7_19  and  N7_20 
REMARK    4  A    between atoms: C8_25  and  N9_26 
ROOT
HETATM    1  N3  UNL     1      15.951   8.968   2.812  1.00  0.00    -0.063 N 
HETATM    2  N4  UNL     1      17.244   8.694   3.044  1.00  0.00    -0.219 N 
ATOM      3  H4  UNL     1      17.938   8.548   2.310  1.00  0.00     0.209 HD
HETATM    4  N5  UNL     1      17.505   8.636   4.318  1.00  0.00    -0.268 N 
ATOM      5  H5  UNL     1      18.419   8.440   4.726  1.00  0.00     0.190 HD
HETATM    6  C4  UNL     1      16.387   8.871   5.005  1.00  0.00     0.155 A 
HETATM    7  N6  UNL     1      16.275   8.893   6.348  1.00  0.00    -0.340 N 
ATOM      8  H6  UNL     1      17.126   9.100   6.871  1.00  0.00     0.167 HD
HETATM    9  C5  UNL     1      15.152   8.669   7.084  1.00  0.00     0.051 C 
HETATM   10  C6  UNL     1      15.324   8.182   8.472  1.00  0.00     0.072 C 
HETATM   11  C7  UNL     1      13.855   8.858   6.647  1.00  0.00     0.123 C 
HETATM   12  N8  UNL     1      13.388   9.116   5.412  1.00  0.00    -0.326 N 
ATOM     13  H8  UNL     1      12.372   9.127   5.317  1.00  0.00     0.169 HD
HETATM   14  C8  UNL     1      14.084   9.363   4.278  1.00  0.00     0.134 C 
HETATM   15  C9  UNL     1      15.412   9.081   4.053  1.00  0.00     0.165 A 
ENDROOT
BRANCH   1  16
HETATM   16  C3  UNL     1      15.304   9.109   1.562  1.00  0.00     0.722 A 
HETATM   17  N2  UNL     1      14.647   8.134   0.918  1.00  0.00    -0.128 N 
HETATM   18  N1  UNL     1      14.166   8.610  -0.226  1.00  0.00    -0.265 N 
ATOM     19  H2  UNL     1      14.533   7.177   1.254  1.00  0.00     0.205 HD
HETATM   20  C2  UNL     1      14.500   9.889  -0.338  1.00  0.00     0.174 A 
ATOM     21  H1  UNL     1      13.627   8.077  -0.908  1.00  0.00     0.189 HD
HETATM   22  N10 UNL     1      15.211  10.195   0.782  1.00  0.00    -0.166 N 
ATOM     23  H10 UNL     1      15.611  11.110   0.994  1.00  0.00     0.186 HD
BRANCH  20  24
HETATM   24  S1  UNL     1      14.102  10.998  -1.690  1.00  0.00    -0.097 SA
HETATM   25  C1  UNL     1      14.541  10.215  -3.240  1.00  0.00     0.099 C 
ENDBRANCH  20  24
ENDBRANCH   1  16
BRANCH  14  26
HETATM   26  N9  UNL     1      13.473   9.917   3.293  1.00  0.00    -0.383 N 
ATOM     27  H92 UNL     1      12.774   9.332   2.838  1.00  0.00     0.157 HD
ATOM     28  H91 UNL     1      13.723  10.874   3.042  1.00  0.00     0.157 HD
ENDBRANCH  14  26
BRANCH  11  29
HETATM   29  N7  UNL     1      12.984   8.764   7.609  1.00  0.00    -0.384 N 
ATOM     30  H72 UNL     1      13.224   8.172   8.404  1.00  0.00     0.157 HD
ATOM     31  H71 UNL     1      12.144   9.314   7.432  1.00  0.00     0.157 HD
ENDBRANCH  11  29
TORSDOF 4
ENDMDL
