MODEL 1
REMARK VINA RESULT: -8.398262043      0.000      0.000
REMARK  11 active torsions:
REMARK  status: ('A' for Active; 'I' for Inactive)
REMARK    1  A    between atoms: C2_2  and  C3_3 
REMARK    2  A    between atoms: C3_3  and  O1_4 
REMARK    3  A    between atoms: O1_4  and  C4_5 
REMARK    4  A    between atoms: C4_5  and  C5_7 
REMARK    5  A    between atoms: C5_7  and  C6_14 
REMARK    6  A    between atoms: N1_8  and  N2_10 
REMARK    7  A    between atoms: N2_10  and  O3_12 
REMARK    8  A    between atoms: C6_14  and  O5_16 
REMARK    9  A    between atoms: O5_16  and  C7_17 
REMARK   10  A    between atoms: C7_17  and  C8_18 
REMARK   11  A    between atoms: C10_23  and  O7_24 
ROOT
HETATM    1  O5  UNL     1      16.890  11.509   0.767  1.00  0.00    -0.285 OA
ENDROOT
BRANCH   1   2
HETATM    2  C6  UNL     1      16.693  11.009  -0.496  1.00  0.00     0.322 C 
HETATM    3  O4  UNL     1      17.535  11.366  -1.369  1.00  0.00    -0.257 OA
BRANCH   2   4
HETATM    4  C5  UNL     1      15.599  10.120  -0.865  1.00  0.00     0.201 C 
HETATM    5  N1  UNL     1      15.700   8.886  -0.555  1.00  0.00    -0.271 N 
ATOM      6  H1  UNL     1      16.527   8.547  -0.063  1.00  0.00     0.189 HD
BRANCH   4   7
HETATM    7  C4  UNL     1      14.426  10.598  -1.562  1.00  0.00     0.317 C 
HETATM    8  O2  UNL     1      13.453  11.035  -0.860  1.00  0.00    -0.257 OA
BRANCH   7   9
HETATM    9  O1  UNL     1      14.269  10.622  -2.920  1.00  0.00    -0.316 OA
BRANCH   9  10
HETATM   10  C3  UNL     1      15.257  10.127  -3.827  1.00  0.00     0.178 C 
BRANCH  10  11
HETATM   11  C2  UNL     1      14.574   9.384  -4.963  1.00  0.00     0.022 C 
HETATM   12  C1  UNL     1      13.091   9.237  -4.664  1.00  0.00     0.007 C 
ENDBRANCH  10  11
ENDBRANCH   9  10
ENDBRANCH   7   9
ENDBRANCH   4   7
BRANCH   5  13
HETATM   13  N2  UNL     1      14.675   8.005  -0.892  1.00  0.00    -0.209 N 
ATOM     14  H2  UNL     1      13.998   8.284  -1.603  1.00  0.00     0.215 HD
BRANCH  13  15
HETATM   15  O3  UNL     1      14.547   6.784  -0.304  1.00  0.00    -0.274 OA
ATOM     16  H3  UNL     1      14.161   6.044  -0.757  1.00  0.00     0.246 HD
ENDBRANCH  13  15
ENDBRANCH   5  13
ENDBRANCH   2   4
ENDBRANCH   1   2
BRANCH   1  17
HETATM   17  C7  UNL     1      17.261  10.888   1.924  1.00  0.00     0.166 C 
BRANCH  17  18
HETATM   18  C8  UNL     1      16.338  10.704   3.018  1.00  0.00     0.091 A 
HETATM   19  C9  UNL     1      16.634  11.195   4.298  1.00  0.00     0.262 A 
HETATM   20  O6  UNL     1      17.704  11.844   4.425  1.00  0.00    -0.267 OA
HETATM   21  N3  UNL     1      15.837  11.000   5.350  1.00  0.00    -0.301 N 
HETATM   22  C10 UNL     1      14.685  10.313   5.260  1.00  0.00     0.173 A 
ATOM     23  H3  UNL     1      16.111  11.385   6.254  1.00  0.00     0.171 HD
HETATM   24  C11 UNL     1      14.336   9.803   4.032  1.00  0.00     0.123 A 
HETATM   25  N4  UNL     1      13.253   9.083   3.669  1.00  0.00    -0.296 N 
HETATM   26  C13 UNL     1      15.165  10.000   2.913  1.00  0.00     0.129 A 
HETATM   27  C12 UNL     1      13.407   8.838   2.358  1.00  0.00     0.370 A 
ATOM     28  H4  UNL     1      12.480   8.787   4.265  1.00  0.00     0.171 HD
HETATM   29  O8  UNL     1      12.579   8.177   1.649  1.00  0.00    -0.238 OA
HETATM   30  O9  UNL     1      14.517   9.381   1.960  1.00  0.00    -0.258 OA
BRANCH  22  31
HETATM   31  O7  UNL     1      13.864  10.122   6.382  1.00  0.00    -0.344 OA
ATOM     32  H7  UNL     1      13.298  10.815   6.701  1.00  0.00     0.219 HD
ENDBRANCH  22  31
ENDBRANCH  17  18
ENDBRANCH   1  17
TORSDOF 11
ENDMDL
MODEL 2
REMARK VINA RESULT: -8.230217066      2.366      7.249
REMARK  11 active torsions:
REMARK  status: ('A' for Active; 'I' for Inactive)
REMARK    1  A    between atoms: C2_2  and  C3_3 
REMARK    2  A    between atoms: C3_3  and  O1_4 
REMARK    3  A    between atoms: O1_4  and  C4_5 
REMARK    4  A    between atoms: C4_5  and  C5_7 
REMARK    5  A    between atoms: C5_7  and  C6_14 
REMARK    6  A    between atoms: N1_8  and  N2_10 
REMARK    7  A    between atoms: N2_10  and  O3_12 
REMARK    8  A    between atoms: C6_14  and  O5_16 
REMARK    9  A    between atoms: O5_16  and  C7_17 
REMARK   10  A    between atoms: C7_17  and  C8_18 
REMARK   11  A    between atoms: C10_23  and  O7_24 
ROOT
HETATM    1  O5  UNL     1      13.388   9.318   0.334  1.00  0.00    -0.285 OA
ENDROOT
BRANCH   1   2
HETATM    2  C6  UNL     1      13.555   8.806   1.596  1.00  0.00     0.322 C 
HETATM    3  O4  UNL     1      12.638   8.036   2.004  1.00  0.00    -0.257 OA
BRANCH   2   4
HETATM    4  C5  UNL     1      14.694   9.098   2.456  1.00  0.00     0.201 C 
HETATM    5  N1  UNL     1      15.751   8.398   2.307  1.00  0.00    -0.271 N 
ATOM      6  H1  UNL     1      15.783   7.660   1.602  1.00  0.00     0.189 HD
BRANCH   4   7
HETATM    7  C4  UNL     1      14.652  10.142   3.454  1.00  0.00     0.317 C 
HETATM    8  O2  UNL     1      14.715  11.353   3.054  1.00  0.00    -0.257 OA
BRANCH   7   9
HETATM    9  O1  UNL     1      14.551   9.941   4.803  1.00  0.00    -0.316 OA
BRANCH   9  10
HETATM   10  C3  UNL     1      13.817   8.857   5.376  1.00  0.00     0.178 C 
BRANCH  10  11
HETATM   11  C2  UNL     1      13.763   9.024   6.886  1.00  0.00     0.022 C 
HETATM   12  C1  UNL     1      14.099   7.704   7.563  1.00  0.00     0.007 C 
ENDBRANCH  10  11
ENDBRANCH   9  10
ENDBRANCH   7   9
ENDBRANCH   4   7
BRANCH   5  13
HETATM   13  N2  UNL     1      16.861   8.646   3.112  1.00  0.00    -0.209 N 
ATOM     14  H2  UNL     1      17.531   9.359   2.822  1.00  0.00     0.215 HD
BRANCH  13  15
HETATM   15  O3  UNL     1      17.079   7.970   4.272  1.00  0.00    -0.274 OA
ATOM     16  H3  UNL     1      17.954   7.776   4.586  1.00  0.00     0.246 HD
ENDBRANCH  13  15
ENDBRANCH   5  13
ENDBRANCH   2   4
ENDBRANCH   1   2
BRANCH   1  17
HETATM   17  C7  UNL     1      14.101  10.261  -0.348  1.00  0.00     0.166 C 
BRANCH  17  18
HETATM   18  C8  UNL     1      14.444  10.097  -1.739  1.00  0.00     0.091 A 
HETATM   19  C9  UNL     1      15.750  10.337  -2.191  1.00  0.00     0.262 A 
HETATM   20  O6  UNL     1      16.605  10.643  -1.320  1.00  0.00    -0.267 OA
HETATM   21  N3  UNL     1      16.100  10.251  -3.475  1.00  0.00    -0.301 N 
HETATM   22  C10 UNL     1      15.219   9.928  -4.438  1.00  0.00     0.173 A 
ATOM     23  H3  UNL     1      17.068  10.438  -3.736  1.00  0.00     0.171 HD
HETATM   24  C11 UNL     1      13.920   9.681  -4.064  1.00  0.00     0.123 A 
HETATM   25  N4  UNL     1      12.850   9.345  -4.816  1.00  0.00    -0.296 N 
HETATM   26  C13 UNL     1      13.536   9.767  -2.714  1.00  0.00     0.129 A 
HETATM   27  C12 UNL     1      11.828   9.227  -3.954  1.00  0.00     0.370 A 
ATOM     28  H4  UNL     1      12.824   9.209  -5.826  1.00  0.00     0.171 HD
HETATM   29  O8  UNL     1      10.637   8.918  -4.291  1.00  0.00    -0.238 OA
HETATM   30  O9  UNL     1      12.261   9.477  -2.756  1.00  0.00    -0.258 OA
BRANCH  22  31
HETATM   31  O7  UNL     1      15.613   9.844  -5.783  1.00  0.00    -0.344 OA
ATOM     32  H7  UNL     1      14.984   9.955  -6.487  1.00  0.00     0.219 HD
ENDBRANCH  22  31
ENDBRANCH  17  18
ENDBRANCH   1  17
TORSDOF 11
ENDMDL
MODEL 3
REMARK VINA RESULT: -8.181092709      2.057      6.801
REMARK  11 active torsions:
REMARK  status: ('A' for Active; 'I' for Inactive)
REMARK    1  A    between atoms: C2_2  and  C3_3 
REMARK    2  A    between atoms: C3_3  and  O1_4 
REMARK    3  A    between atoms: O1_4  and  C4_5 
REMARK    4  A    between atoms: C4_5  and  C5_7 
REMARK    5  A    between atoms: C5_7  and  C6_14 
REMARK    6  A    between atoms: N1_8  and  N2_10 
REMARK    7  A    between atoms: N2_10  and  O3_12 
REMARK    8  A    between atoms: C6_14  and  O5_16 
REMARK    9  A    between atoms: O5_16  and  C7_17 
REMARK   10  A    between atoms: C7_17  and  C8_18 
REMARK   11  A    between atoms: C10_23  and  O7_24 
ROOT
HETATM    1  O5  UNL     1      13.527   8.788   0.332  1.00  0.00    -0.285 OA
ENDROOT
BRANCH   1   2
HETATM    2  C6  UNL     1      13.650   8.361   1.631  1.00  0.00     0.322 C 
HETATM    3  O4  UNL     1      13.185   7.212   1.880  1.00  0.00    -0.257 OA
BRANCH   2   4
HETATM    4  C5  UNL     1      14.269   9.140   2.694  1.00  0.00     0.201 C 
HETATM    5  N1  UNL     1      13.517   9.890   3.403  1.00  0.00    -0.271 N 
ATOM      6  H1  UNL     1      12.514   9.930   3.219  1.00  0.00     0.189 HD
BRANCH   4   7
HETATM    7  C4  UNL     1      15.689   9.084   2.958  1.00  0.00     0.317 C 
HETATM    8  O2  UNL     1      16.078   8.449   3.994  1.00  0.00    -0.257 OA
BRANCH   7   9
HETATM    9  O1  UNL     1      16.659   9.659   2.184  1.00  0.00    -0.316 OA
BRANCH   9  10
HETATM   10  C3  UNL     1      16.980  11.051   2.242  1.00  0.00     0.178 C 
BRANCH  10  11
HETATM   11  C2  UNL     1      18.400  11.264   1.743  1.00  0.00     0.022 C 
HETATM   12  C1  UNL     1      18.454  12.495   0.853  1.00  0.00     0.007 C 
ENDBRANCH  10  11
ENDBRANCH   9  10
ENDBRANCH   7   9
ENDBRANCH   4   7
BRANCH   5  13
HETATM   13  N2  UNL     1      14.072  10.651   4.428  1.00  0.00    -0.209 N 
ATOM     14  H2  UNL     1      14.486  11.556   4.203  1.00  0.00     0.215 HD
BRANCH  13  15
HETATM   15  O3  UNL     1      14.081  10.228   5.721  1.00  0.00    -0.274 OA
ATOM     16  H3  UNL     1      14.565   9.459   5.997  1.00  0.00     0.246 HD
ENDBRANCH  13  15
ENDBRANCH   5  13
ENDBRANCH   2   4
ENDBRANCH   1   2
BRANCH   1  17
HETATM   17  C7  UNL     1      14.033   9.887  -0.299  1.00  0.00     0.166 C 
BRANCH  17  18
HETATM   18  C8  UNL     1      14.378   9.869  -1.699  1.00  0.00     0.091 A 
HETATM   19  C9  UNL     1      15.684  10.158  -2.121  1.00  0.00     0.262 A 
HETATM   20  O6  UNL     1      16.538  10.375  -1.222  1.00  0.00    -0.267 OA
HETATM   21  N3  UNL     1      16.036  10.207  -3.407  1.00  0.00    -0.301 N 
HETATM   22  C10 UNL     1      15.157   9.982  -4.400  1.00  0.00     0.173 A 
ATOM     23  H3  UNL     1      17.004  10.422  -3.645  1.00  0.00     0.171 HD
HETATM   24  C11 UNL     1      13.859   9.694  -4.055  1.00  0.00     0.123 A 
HETATM   25  N4  UNL     1      12.790   9.435  -4.839  1.00  0.00    -0.296 N 
HETATM   26  C13 UNL     1      13.472   9.639  -2.703  1.00  0.00     0.129 A 
HETATM   27  C12 UNL     1      11.767   9.225  -3.995  1.00  0.00     0.370 A 
ATOM     28  H4  UNL     1      12.766   9.404  -5.858  1.00  0.00     0.171 HD
HETATM   29  O8  UNL     1      10.578   8.949  -4.365  1.00  0.00    -0.238 OA
HETATM   30  O9  UNL     1      12.198   9.350  -2.777  1.00  0.00    -0.258 OA
BRANCH  22  31
HETATM   31  O7  UNL     1      15.552  10.039  -5.745  1.00  0.00    -0.344 OA
ATOM     32  H7  UNL     1      15.868  10.848  -6.131  1.00  0.00     0.219 HD
ENDBRANCH  22  31
ENDBRANCH  17  18
ENDBRANCH   1  17
TORSDOF 11
ENDMDL
MODEL 4
REMARK VINA RESULT: -8.101804111      2.345      7.604
REMARK  11 active torsions:
REMARK  status: ('A' for Active; 'I' for Inactive)
REMARK    1  A    between atoms: C2_2  and  C3_3 
REMARK    2  A    between atoms: C3_3  and  O1_4 
REMARK    3  A    between atoms: O1_4  and  C4_5 
REMARK    4  A    between atoms: C4_5  and  C5_7 
REMARK    5  A    between atoms: C5_7  and  C6_14 
REMARK    6  A    between atoms: N1_8  and  N2_10 
REMARK    7  A    between atoms: N2_10  and  O3_12 
REMARK    8  A    between atoms: C6_14  and  O5_16 
REMARK    9  A    between atoms: O5_16  and  C7_17 
REMARK   10  A    between atoms: C7_17  and  C8_18 
REMARK   11  A    between atoms: C10_23  and  O7_24 
ROOT
HETATM    1  O5  UNL     1      13.416   8.918   0.358  1.00  0.00    -0.285 OA
ENDROOT
BRANCH   1   2
HETATM    2  C6  UNL     1      13.462   8.495   1.663  1.00  0.00     0.322 C 
HETATM    3  O4  UNL     1      13.104   7.300   1.868  1.00  0.00    -0.257 OA
BRANCH   2   4
HETATM    4  C5  UNL     1      13.887   9.328   2.780  1.00  0.00     0.201 C 
HETATM    5  N1  UNL     1      13.575  10.566   2.756  1.00  0.00    -0.271 N 
ATOM      6  H1  UNL     1      13.042  10.946   1.973  1.00  0.00     0.189 HD
BRANCH   4   7
HETATM    7  C4  UNL     1      14.640   8.793   3.891  1.00  0.00     0.317 C 
HETATM    8  O2  UNL     1      15.908   8.711   3.767  1.00  0.00    -0.257 OA
BRANCH   7   9
HETATM    9  O1  UNL     1      14.105   8.362   5.073  1.00  0.00    -0.316 OA
BRANCH   9  10
HETATM   10  C3  UNL     1      14.611   8.761   6.350  1.00  0.00     0.178 C 
BRANCH  10  11
HETATM   11  C2  UNL     1      14.194   7.745   7.400  1.00  0.00     0.022 C 
HETATM   12  C1  UNL     1      14.587   8.241   8.782  1.00  0.00     0.007 C 
ENDBRANCH  10  11
ENDBRANCH   9  10
ENDBRANCH   7   9
ENDBRANCH   4   7
BRANCH   5  13
HETATM   13  N2  UNL     1      13.965  11.394   3.806  1.00  0.00    -0.209 N 
ATOM     14  H2  UNL     1      13.427  11.381   4.672  1.00  0.00     0.215 HD
BRANCH  13  15
HETATM   15  O3  UNL     1      15.042  12.221   3.713  1.00  0.00    -0.274 OA
ATOM     16  H3  UNL     1      15.755  12.194   4.341  1.00  0.00     0.246 HD
ENDBRANCH  13  15
ENDBRANCH   5  13
ENDBRANCH   2   4
ENDBRANCH   1   2
BRANCH   1  17
HETATM   17  C7  UNL     1      14.047   9.954  -0.268  1.00  0.00     0.166 C 
BRANCH  17  18
HETATM   18  C8  UNL     1      14.392   9.901  -1.667  1.00  0.00     0.091 A 
HETATM   19  C9  UNL     1      15.699  10.176  -2.096  1.00  0.00     0.262 A 
HETATM   20  O6  UNL     1      16.553  10.412  -1.202  1.00  0.00    -0.267 OA
HETATM   21  N3  UNL     1      16.051  10.192  -3.383  1.00  0.00    -0.301 N 
HETATM   22  C10 UNL     1      15.172   9.945  -4.370  1.00  0.00     0.173 A 
ATOM     23  H3  UNL     1      17.020  10.399  -3.626  1.00  0.00     0.171 HD
HETATM   24  C11 UNL     1      13.872   9.669  -4.018  1.00  0.00     0.123 A 
HETATM   25  N4  UNL     1      12.803   9.394  -4.796  1.00  0.00    -0.296 N 
HETATM   26  C13 UNL     1      13.486   9.648  -2.666  1.00  0.00     0.129 A 
HETATM   27  C12 UNL     1      11.780   9.208  -3.947  1.00  0.00     0.370 A 
ATOM     28  H4  UNL     1      12.779   9.339  -5.814  1.00  0.00     0.171 HD
HETATM   29  O8  UNL     1      10.590   8.926  -4.310  1.00  0.00    -0.238 OA
HETATM   30  O9  UNL     1      12.211   9.362  -2.733  1.00  0.00    -0.258 OA
BRANCH  22  31
HETATM   31  O7  UNL     1      15.567   9.969  -5.717  1.00  0.00    -0.344 OA
ATOM     32  H7  UNL     1      15.883  10.767  -6.123  1.00  0.00     0.219 HD
ENDBRANCH  22  31
ENDBRANCH  17  18
ENDBRANCH   1  17
TORSDOF 11
ENDMDL
MODEL 5
REMARK VINA RESULT: -8.004065992      2.249      7.117
REMARK  11 active torsions:
REMARK  status: ('A' for Active; 'I' for Inactive)
REMARK    1  A    between atoms: C2_2  and  C3_3 
REMARK    2  A    between atoms: C3_3  and  O1_4 
REMARK    3  A    between atoms: O1_4  and  C4_5 
REMARK    4  A    between atoms: C4_5  and  C5_7 
REMARK    5  A    between atoms: C5_7  and  C6_14 
REMARK    6  A    between atoms: N1_8  and  N2_10 
REMARK    7  A    between atoms: N2_10  and  O3_12 
REMARK    8  A    between atoms: C6_14  and  O5_16 
REMARK    9  A    between atoms: O5_16  and  C7_17 
REMARK   10  A    between atoms: C7_17  and  C8_18 
REMARK   11  A    between atoms: C10_23  and  O7_24 
ROOT
HETATM    1  O5  UNL     1      14.083   9.505   0.636  1.00  0.00    -0.285 OA
ENDROOT
BRANCH   1   2
HETATM    2  C6  UNL     1      14.891   9.250   1.716  1.00  0.00     0.322 C 
HETATM    3  O4  UNL     1      14.803   8.089   2.208  1.00  0.00    -0.257 OA
BRANCH   2   4
HETATM    4  C5  UNL     1      15.810  10.218   2.299  1.00  0.00     0.201 C 
HETATM    5  N1  UNL     1      16.881  10.488   1.658  1.00  0.00    -0.271 N 
ATOM      6  H1  UNL     1      17.073  10.033   0.765  1.00  0.00     0.189 HD
BRANCH   4   7
HETATM    7  C4  UNL     1      15.540  10.865   3.563  1.00  0.00     0.317 C 
HETATM    8  O2  UNL     1      15.162  12.083   3.540  1.00  0.00    -0.257 OA
BRANCH   7   9
HETATM    9  O1  UNL     1      15.657  10.276   4.792  1.00  0.00    -0.316 OA
BRANCH   9  10
HETATM   10  C3  UNL     1      14.589  10.235   5.741  1.00  0.00     0.178 C 
BRANCH  10  11
HETATM   11  C2  UNL     1      13.899   8.883   5.669  1.00  0.00     0.022 C 
HETATM   12  C1  UNL     1      14.166   8.099   6.944  1.00  0.00     0.007 C 
ENDBRANCH  10  11
ENDBRANCH   9  10
ENDBRANCH   7   9
ENDBRANCH   4   7
BRANCH   5  13
HETATM   13  N2  UNL     1      17.785  11.408   2.185  1.00  0.00    -0.209 N 
ATOM     14  H2  UNL     1      18.504  11.079   2.831  1.00  0.00     0.215 HD
BRANCH  13  15
HETATM   15  O3  UNL     1      17.742  12.730   1.866  1.00  0.00    -0.274 OA
ATOM     16  H3  UNL     1      17.115  13.324   2.261  1.00  0.00     0.246 HD
ENDBRANCH  13  15
ENDBRANCH   5  13
ENDBRANCH   2   4
ENDBRANCH   1   2
BRANCH   1  17
HETATM   17  C7  UNL     1      14.116  10.511  -0.285  1.00  0.00     0.166 C 
BRANCH  17  18
HETATM   18  C8  UNL     1      14.468  10.270  -1.663  1.00  0.00     0.091 A 
HETATM   19  C9  UNL     1      15.766  10.525  -2.128  1.00  0.00     0.262 A 
HETATM   20  O6  UNL     1      16.608  10.915  -1.279  1.00  0.00    -0.267 OA
HETATM   21  N3  UNL     1      16.121  10.368  -3.405  1.00  0.00    -0.301 N 
HETATM   22  C10 UNL     1      15.255   9.954  -4.345  1.00  0.00     0.173 A 
ATOM     23  H3  UNL     1      17.084  10.570  -3.676  1.00  0.00     0.171 HD
HETATM   24  C11 UNL     1      13.964   9.688  -3.956  1.00  0.00     0.123 A 
HETATM   25  N4  UNL     1      12.908   9.269  -4.685  1.00  0.00    -0.296 N 
HETATM   26  C13 UNL     1      13.573   9.848  -2.614  1.00  0.00     0.129 A 
HETATM   27  C12 UNL     1      11.888   9.171  -3.818  1.00  0.00     0.370 A 
ATOM     28  H4  UNL     1      12.889   9.067  -5.685  1.00  0.00     0.171 HD
HETATM   29  O8  UNL     1      10.709   8.802  -4.135  1.00  0.00    -0.238 OA
HETATM   30  O9  UNL     1      12.309   9.512  -2.638  1.00  0.00    -0.258 OA
BRANCH  22  31
HETATM   31  O7  UNL     1      15.654   9.797  -5.682  1.00  0.00    -0.344 OA
ATOM     32  H7  UNL     1      15.291  10.342  -6.371  1.00  0.00     0.219 HD
ENDBRANCH  22  31
ENDBRANCH  17  18
ENDBRANCH   1  17
TORSDOF 11
ENDMDL
