MODEL 1
REMARK VINA RESULT: -4.542421595      0.000      0.000
REMARK  2 active torsions:
REMARK  status: ('A' for Active; 'I' for Inactive)
REMARK    1  A    between atoms: C3_4  and  N2_5 
REMARK    2  A    between atoms: N2_5  and  C4_7 
ROOT
HETATM    1  N2  UNL     1      22.505  19.658  18.517  1.00  0.00    -0.355 N 
ATOM      2  H2  UNL     1      21.499  19.611  18.679  1.00  0.00     0.162 HD
ENDROOT
BRANCH   1   3
HETATM    3  C3  UNL     1      23.390  18.703  19.142  1.00  0.00     0.350 A 
HETATM    4  N1  UNL     1      22.967  18.005  20.336  1.00  0.00     0.112 N 
HETATM    5  C1  UNL     1      24.058  17.652  21.259  1.00  0.00     0.312 C 
HETATM    6  C2  UNL     1      23.055  17.294  18.996  1.00  0.00     0.331 A 
ENDBRANCH   1   3
BRANCH   1   7
HETATM    7  C4  UNL     1      23.041  20.652  17.684  1.00  0.00     0.170 C 
HETATM    8  N3  UNL     1      23.065  20.481  16.419  1.00  0.00    -0.395 N 
ATOM      9  H32 UNL     1      22.690  19.616  16.029  1.00  0.00     0.156 HD
ATOM     10  H31 UNL     1      23.455  21.203  15.813  1.00  0.00     0.156 HD
ENDBRANCH   1   7
TORSDOF 2
ENDMDL
MODEL 2
REMARK VINA RESULT: -4.325388396      1.234      3.777
REMARK  2 active torsions:
REMARK  status: ('A' for Active; 'I' for Inactive)
REMARK    1  A    between atoms: C3_4  and  N2_5 
REMARK    2  A    between atoms: N2_5  and  C4_7 
ROOT
HETATM    1  N2  UNL     1      22.837  18.757  20.523  1.00  0.00    -0.355 N 
ATOM      2  H2  UNL     1      22.377  19.220  21.308  1.00  0.00     0.162 HD
ENDROOT
BRANCH   1   3
HETATM    3  C3  UNL     1      22.625  19.229  19.174  1.00  0.00     0.350 A 
HETATM    4  N1  UNL     1      23.715  19.839  18.446  1.00  0.00     0.112 N 
HETATM    5  C1  UNL     1      23.304  20.867  17.475  1.00  0.00     0.312 C 
HETATM    6  C2  UNL     1      23.216  18.446  18.098  1.00  0.00     0.331 A 
ENDBRANCH   1   3
BRANCH   1   7
HETATM    7  C4  UNL     1      23.680  17.657  20.744  1.00  0.00     0.170 C 
HETATM    8  N3  UNL     1      24.176  17.456  21.903  1.00  0.00    -0.395 N 
ATOM      9  H32 UNL     1      23.950  18.103  22.658  1.00  0.00     0.156 HD
ATOM     10  H31 UNL     1      24.789  16.656  22.064  1.00  0.00     0.156 HD
ENDBRANCH   1   7
TORSDOF 2
ENDMDL
MODEL 3
REMARK VINA RESULT: -4.291025635      1.057      1.254
REMARK  2 active torsions:
REMARK  status: ('A' for Active; 'I' for Inactive)
REMARK    1  A    between atoms: C3_4  and  N2_5 
REMARK    2  A    between atoms: N2_5  and  C4_7 
ROOT
HETATM    1  N2  UNL     1      23.153  18.334  17.527  1.00  0.00    -0.355 N 
ATOM      2  H2  UNL     1      22.998  17.652  16.785  1.00  0.00     0.162 HD
ENDROOT
BRANCH   1   3
HETATM    3  C3  UNL     1      22.876  17.990  18.903  1.00  0.00     0.350 A 
HETATM    4  N1  UNL     1      23.869  18.244  19.922  1.00  0.00     0.112 N 
HETATM    5  C1  UNL     1      23.848  17.297  21.048  1.00  0.00     0.312 C 
HETATM    6  C2  UNL     1      22.611  19.090  19.820  1.00  0.00     0.331 A 
ENDBRANCH   1   3
BRANCH   1   7
HETATM    7  C4  UNL     1      23.638  19.615  17.221  1.00  0.00     0.170 C 
HETATM    8  N3  UNL     1      22.957  20.394  16.473  1.00  0.00    -0.395 N 
ATOM      9  H32 UNL     1      22.062  20.070  16.106  1.00  0.00     0.156 HD
ATOM     10  H31 UNL     1      23.309  21.325  16.251  1.00  0.00     0.156 HD
ENDBRANCH   1   7
TORSDOF 2
ENDMDL
MODEL 4
REMARK VINA RESULT: -4.113938691      1.077      1.580
REMARK  2 active torsions:
REMARK  status: ('A' for Active; 'I' for Inactive)
REMARK    1  A    between atoms: C3_4  and  N2_5 
REMARK    2  A    between atoms: N2_5  and  C4_7 
ROOT
HETATM    1  N2  UNL     1      23.524  20.545  18.651  1.00  0.00    -0.355 N 
ATOM      2  H2  UNL     1      24.219  20.964  19.270  1.00  0.00     0.162 HD
ENDROOT
BRANCH   1   3
HETATM    3  C3  UNL     1      22.851  19.325  19.032  1.00  0.00     0.350 A 
HETATM    4  N1  UNL     1      23.583  18.078  19.057  1.00  0.00     0.112 N 
HETATM    5  C1  UNL     1      22.775  16.887  18.748  1.00  0.00     0.312 C 
HETATM    6  C2  UNL     1      23.168  18.774  20.342  1.00  0.00     0.331 A 
ENDBRANCH   1   3
BRANCH   1   7
HETATM    7  C4  UNL     1      23.214  21.149  17.423  1.00  0.00     0.170 C 
HETATM    8  N3  UNL     1      22.931  20.426  16.409  1.00  0.00    -0.395 N 
ATOM      9  H32 UNL     1      22.934  19.410  16.509  1.00  0.00     0.156 HD
ATOM     10  H31 UNL     1      22.706  20.864  15.516  1.00  0.00     0.156 HD
ENDBRANCH   1   7
TORSDOF 2
ENDMDL
MODEL 5
REMARK VINA RESULT: -4.013421870      1.612      4.187
REMARK  2 active torsions:
REMARK  status: ('A' for Active; 'I' for Inactive)
REMARK    1  A    between atoms: C3_4  and  N2_5 
REMARK    2  A    between atoms: N2_5  and  C4_7 
ROOT
HETATM    1  N2  UNL     1      23.753  18.230  21.456  1.00  0.00    -0.355 N 
ATOM      2  H2  UNL     1      23.979  18.952  22.140  1.00  0.00     0.162 HD
ENDROOT
BRANCH   1   3
HETATM    3  C3  UNL     1      23.042  18.570  20.245  1.00  0.00     0.350 A 
HETATM    4  N1  UNL     1      23.778  18.979  19.070  1.00  0.00     0.112 N 
HETATM    5  C1  UNL     1      23.067  19.932  18.201  1.00  0.00     0.312 C 
HETATM    6  C2  UNL     1      23.109  17.617  19.147  1.00  0.00     0.331 A 
ENDBRANCH   1   3
BRANCH   1   7
HETATM    7  C4  UNL     1      24.128  16.897  21.683  1.00  0.00     0.170 C 
HETATM    8  N3  UNL     1      24.506  16.529  22.845  1.00  0.00    -0.395 N 
ATOM      9  H32 UNL     1      24.529  17.216  23.599  1.00  0.00     0.156 HD
ATOM     10  H31 UNL     1      24.780  15.560  23.010  1.00  0.00     0.156 HD
ENDBRANCH   1   7
TORSDOF 2
ENDMDL
