MODEL 1
REMARK VINA RESULT: -5.090017191      0.000      0.000
REMARK  3 active torsions:
REMARK  status: ('A' for Active; 'I' for Inactive)
REMARK    1  A    between atoms: N2_4  and  N3_6 
REMARK    2  A    between atoms: C1_8  and  N4_9 
REMARK    3  A    between atoms: N4_9  and  C2_11 
ROOT
HETATM    1  N3  UNL     1      23.657  17.897  21.276  1.00  0.00    -0.283 N 
ATOM      2  H3  UNL     1      23.535  18.746  21.829  1.00  0.00     0.189 HD
HETATM    3  C1  UNL     1      23.348  17.963  20.037  1.00  0.00     0.194 C 
ENDROOT
BRANCH   1   4
HETATM    4  N2  UNL     1      24.140  16.787  21.934  1.00  0.00    -0.248 N 
HETATM    5  N1  UNL     1      24.848  16.990  22.984  1.00  0.00    -0.331 N 
ATOM      6  H12 UNL     1      25.037  17.940  23.306  1.00  0.00     0.178 HD
ATOM      7  H11 UNL     1      25.206  16.169  23.471  1.00  0.00     0.178 HD
ATOM      8  H2  UNL     1      23.942  15.843  21.600  1.00  0.00     0.207 HD
ENDBRANCH   1   4
BRANCH   3   9
HETATM    9  N4  UNL     1      22.865  19.187  19.527  1.00  0.00    -0.380 N 
ATOM     10  H4  UNL     1      21.947  19.529  19.809  1.00  0.00     0.160 HD
BRANCH   9  11
HETATM   11  C2  UNL     1      23.664  19.947  18.616  1.00  0.00     0.082 A 
HETATM   12  C3  UNL     1      23.595  19.585  17.180  1.00  0.00     0.027 A 
HETATM   13  C4  UNL     1      22.970  20.873  17.625  1.00  0.00     0.027 A 
ENDBRANCH   9  11
ENDBRANCH   3   9
TORSDOF 3
ENDMDL
MODEL 2
REMARK VINA RESULT: -4.871823177      2.561      5.016
REMARK  3 active torsions:
REMARK  status: ('A' for Active; 'I' for Inactive)
REMARK    1  A    between atoms: N2_4  and  N3_6 
REMARK    2  A    between atoms: C1_8  and  N4_9 
REMARK    3  A    between atoms: N4_9  and  C2_11 
ROOT
HETATM    1  N3  UNL     1      22.864  18.790  20.259  1.00  0.00    -0.283 N 
ATOM      2  H3  UNL     1      22.560  19.397  21.020  1.00  0.00     0.189 HD
HETATM    3  C1  UNL     1      23.654  17.830  20.563  1.00  0.00     0.194 C 
ENDROOT
BRANCH   1   4
HETATM    4  N2  UNL     1      22.387  19.079  18.999  1.00  0.00    -0.248 N 
HETATM    5  N1  UNL     1      22.389  18.126  18.140  1.00  0.00    -0.331 N 
ATOM      6  H12 UNL     1      22.732  17.200  18.394  1.00  0.00     0.178 HD
ATOM      7  H11 UNL     1      22.036  18.340  17.207  1.00  0.00     0.178 HD
ATOM      8  H2  UNL     1      22.047  20.011  18.760  1.00  0.00     0.207 HD
ENDBRANCH   1   4
BRANCH   3   9
HETATM    9  N4  UNL     1      24.044  17.682  21.911  1.00  0.00    -0.380 N 
ATOM     10  H4  UNL     1      23.857  18.427  22.581  1.00  0.00     0.160 HD
BRANCH   9  11
HETATM   11  C2  UNL     1      24.702  16.484  22.337  1.00  0.00     0.082 A 
HETATM   12  C3  UNL     1      25.873  16.631  23.234  1.00  0.00     0.027 A 
HETATM   13  C4  UNL     1      24.602  16.072  23.800  1.00  0.00     0.027 A 
ENDBRANCH   9  11
ENDBRANCH   3   9
TORSDOF 3
ENDMDL
MODEL 3
REMARK VINA RESULT: -4.806970284      1.331      1.923
REMARK  3 active torsions:
REMARK  status: ('A' for Active; 'I' for Inactive)
REMARK    1  A    between atoms: N2_4  and  N3_6 
REMARK    2  A    between atoms: C1_8  and  N4_9 
REMARK    3  A    between atoms: N4_9  and  C2_11 
ROOT
HETATM    1  N3  UNL     1      24.821  17.289  22.524  1.00  0.00    -0.283 N 
ATOM      2  H3  UNL     1      24.859  18.257  22.841  1.00  0.00     0.189 HD
HETATM    3  C1  UNL     1      24.077  17.038  21.513  1.00  0.00     0.194 C 
ENDROOT
BRANCH   1   4
HETATM    4  N2  UNL     1      25.574  16.371  23.224  1.00  0.00    -0.248 N 
HETATM    5  N1  UNL     1      26.688  16.779  23.712  1.00  0.00    -0.331 N 
ATOM      6  H12 UNL     1      26.989  17.745  23.579  1.00  0.00     0.178 HD
ATOM      7  H11 UNL     1      27.246  16.100  24.230  1.00  0.00     0.178 HD
ATOM      8  H2  UNL     1      25.260  15.408  23.348  1.00  0.00     0.207 HD
ENDBRANCH   1   4
BRANCH   3   9
HETATM    9  N4  UNL     1      23.372  18.104  20.917  1.00  0.00    -0.380 N 
ATOM     10  H4  UNL     1      22.623  18.570  21.429  1.00  0.00     0.160 HD
BRANCH   9  11
HETATM   11  C2  UNL     1      23.706  18.532  19.593  1.00  0.00     0.082 A 
HETATM   12  C3  UNL     1      22.945  17.934  18.470  1.00  0.00     0.027 A 
HETATM   13  C4  UNL     1      22.701  19.372  18.815  1.00  0.00     0.027 A 
ENDBRANCH   9  11
ENDBRANCH   3   9
TORSDOF 3
ENDMDL
MODEL 4
REMARK VINA RESULT: -4.665658722      0.771      1.048
REMARK  3 active torsions:
REMARK  status: ('A' for Active; 'I' for Inactive)
REMARK    1  A    between atoms: N2_4  and  N3_6 
REMARK    2  A    between atoms: C1_8  and  N4_9 
REMARK    3  A    between atoms: N4_9  and  C2_11 
ROOT
HETATM    1  N3  UNL     1      23.788  17.371  21.191  1.00  0.00    -0.283 N 
ATOM      2  H3  UNL     1      23.556  16.504  20.707  1.00  0.00     0.189 HD
HETATM    3  C1  UNL     1      23.404  18.462  20.644  1.00  0.00     0.194 C 
ENDROOT
BRANCH   1   4
HETATM    4  N2  UNL     1      24.485  17.259  22.375  1.00  0.00    -0.248 N 
HETATM    5  N1  UNL     1      24.420  16.134  22.988  1.00  0.00    -0.331 N 
ATOM      6  H12 UNL     1      23.872  15.365  22.603  1.00  0.00     0.178 HD
ATOM      7  H11 UNL     1      24.936  16.050  23.864  1.00  0.00     0.178 HD
ATOM      8  H2  UNL     1      25.030  18.037  22.747  1.00  0.00     0.207 HD
ENDBRANCH   1   4
BRANCH   3   9
HETATM    9  N4  UNL     1      22.698  18.391  19.425  1.00  0.00    -0.380 N 
ATOM     10  H4  UNL     1      22.217  17.530  19.164  1.00  0.00     0.160 HD
BRANCH   9  11
HETATM   11  C2  UNL     1      22.656  19.526  18.555  1.00  0.00     0.082 A 
HETATM   12  C3  UNL     1      23.883  20.352  18.450  1.00  0.00     0.027 A 
HETATM   13  C4  UNL     1      23.486  19.505  17.278  1.00  0.00     0.027 A 
ENDBRANCH   9  11
ENDBRANCH   3   9
TORSDOF 3
ENDMDL
MODEL 5
REMARK VINA RESULT: -4.646899164      2.723      4.685
REMARK  3 active torsions:
REMARK  status: ('A' for Active; 'I' for Inactive)
REMARK    1  A    between atoms: N2_4  and  N3_6 
REMARK    2  A    between atoms: C1_8  and  N4_9 
REMARK    3  A    between atoms: N4_9  and  C2_11 
ROOT
HETATM    1  N3  UNL     1      23.421  18.679  17.586  1.00  0.00    -0.283 N 
ATOM      2  H3  UNL     1      24.101  19.019  18.267  1.00  0.00     0.189 HD
HETATM    3  C1  UNL     1      22.717  17.666  17.925  1.00  0.00     0.194 C 
ENDROOT
BRANCH   1   4
HETATM    4  N2  UNL     1      23.346  19.355  16.387  1.00  0.00    -0.248 N 
HETATM    5  N1  UNL     1      22.988  20.586  16.431  1.00  0.00    -0.331 N 
ATOM      6  H12 UNL     1      22.771  21.031  17.322  1.00  0.00     0.178 HD
ATOM      7  H11 UNL     1      22.932  21.086  15.544  1.00  0.00     0.178 HD
ATOM      8  H2  UNL     1      23.566  18.895  15.503  1.00  0.00     0.207 HD
ENDBRANCH   1   4
BRANCH   3   9
HETATM    9  N4  UNL     1      22.928  17.095  19.198  1.00  0.00    -0.380 N 
ATOM     10  H4  UNL     1      22.405  16.265  19.477  1.00  0.00     0.160 HD
BRANCH   9  11
HETATM   11  C2  UNL     1      23.874  17.681  20.097  1.00  0.00     0.082 A 
HETATM   12  C3  UNL     1      23.342  18.518  21.199  1.00  0.00     0.027 A 
HETATM   13  C4  UNL     1      23.931  17.180  21.534  1.00  0.00     0.027 A 
ENDBRANCH   9  11
ENDBRANCH   3   9
TORSDOF 3
ENDMDL
