MODEL 1
REMARK VINA RESULT: -8.179468792      0.000      0.000
REMARK  6 active torsions:
REMARK  status: ('A' for Active; 'I' for Inactive)
REMARK    1  A    between atoms: C2_2  and  C4_4 
REMARK    2  A    between atoms: C2_2  and  C6_8 
REMARK    3  A    between atoms: C4_4  and  C5_5 
REMARK    4  A    between atoms: C6_8  and  C7_9 
REMARK       I    between atoms: C7_9  and  N1_11 
REMARK    5  A    between atoms: C8_13  and  C9_14 
REMARK       I    between atoms: C9_14  and  N2_16 
REMARK    6  A    between atoms: N2_16  and  C10_18 
ROOT
HETATM    1  C9  UNL     1      44.378  32.191  31.132  1.00  0.00     0.257 C 
HETATM    2  O4  UNL     1      44.597  33.236  30.480  1.00  0.00    -0.267 OA
HETATM    3  N2  UNL     1      45.378  31.588  31.945  1.00  0.00    -0.347 N 
ATOM      4  H2  UNL     1      45.136  30.735  32.449  1.00  0.00     0.163 HD
ENDROOT
BRANCH   1   5
HETATM    5  C8  UNL     1      43.061  31.603  31.036  1.00  0.00     0.165 C 
HETATM    6  N1  UNL     1      42.036  32.354  31.202  1.00  0.00    -0.332 N 
HETATM    7  C7  UNL     1      40.747  31.818  31.117  1.00  0.00     0.222 C 
ATOM      8  H1  UNL     1      42.160  33.348  31.395  1.00  0.00     0.168 HD
HETATM    9  O3  UNL     1      39.805  32.560  30.762  1.00  0.00    -0.273 OA
BRANCH   7  10
HETATM   10  C6  UNL     1      40.511  30.401  31.444  1.00  0.00     0.112 C 
BRANCH  10  11
HETATM   11  C2  UNL     1      39.688  30.308  32.697  1.00  0.00    -0.030 C 
HETATM   12  C1  UNL     1      38.239  30.375  32.343  1.00  0.00     0.016 C 
HETATM   13  C3  UNL     1      40.142  31.405  33.641  1.00  0.00     0.016 C 
BRANCH  11  14
HETATM   14  C4  UNL     1      40.053  28.960  33.331  1.00  0.00     0.122 C 
BRANCH  14  15
HETATM   15  C5  UNL     1      39.681  28.900  34.747  1.00  0.00     0.173 C 
HETATM   16  O1  UNL     1      38.482  28.637  35.082  1.00  0.00    -0.648 OA
HETATM   17  O2  UNL     1      40.553  29.113  35.808  1.00  0.00    -0.648 OA
ENDBRANCH  14  15
ENDBRANCH  11  14
ENDBRANCH  10  11
ENDBRANCH   7  10
ENDBRANCH   1   5
BRANCH   3  18
HETATM   18  C10 UNL     1      46.705  32.108  32.098  1.00  0.00     0.034 C 
HETATM   19  C11 UNL     1      47.442  32.303  30.813  1.00  0.00     0.035 C 
HETATM   20  C12 UNL     1      48.745  33.008  31.111  1.00  0.00    -0.012 C 
HETATM   21  C13 UNL     1      48.515  34.317  31.812  1.00  0.00     0.009 C 
HETATM   22  C17 UNL     1      49.593  32.047  31.919  1.00  0.00     0.009 C 
HETATM   23  C14 UNL     1      47.943  34.021  33.178  1.00  0.00    -0.012 C 
HETATM   24  C15 UNL     1      48.782  33.065  33.972  1.00  0.00     0.009 C 
HETATM   25  C19 UNL     1      46.587  33.366  32.935  1.00  0.00     0.035 C 
HETATM   26  C16 UNL     1      48.892  31.742  33.235  1.00  0.00    -0.012 C 
HETATM   27  C18 UNL     1      47.545  31.143  32.946  1.00  0.00     0.035 C 
ENDBRANCH   3  18
TORSDOF 6
ENDMDL
MODEL 2
REMARK VINA RESULT: -8.030957460      0.263      1.656
REMARK  6 active torsions:
REMARK  status: ('A' for Active; 'I' for Inactive)
REMARK    1  A    between atoms: C2_2  and  C4_4 
REMARK    2  A    between atoms: C2_2  and  C6_8 
REMARK    3  A    between atoms: C4_4  and  C5_5 
REMARK    4  A    between atoms: C6_8  and  C7_9 
REMARK       I    between atoms: C7_9  and  N1_11 
REMARK    5  A    between atoms: C8_13  and  C9_14 
REMARK       I    between atoms: C9_14  and  N2_16 
REMARK    6  A    between atoms: N2_16  and  C10_18 
ROOT
HETATM    1  C9  UNL     1      44.246  32.443  31.488  1.00  0.00     0.257 C 
HETATM    2  O4  UNL     1      44.331  33.645  31.151  1.00  0.00    -0.267 OA
HETATM    3  N2  UNL     1      45.351  31.735  32.037  1.00  0.00    -0.347 N 
ATOM      4  H2  UNL     1      45.216  30.756  32.289  1.00  0.00     0.163 HD
ENDROOT
BRANCH   1   5
HETATM    5  C8  UNL     1      42.973  31.783  31.304  1.00  0.00     0.165 C 
HETATM    6  N1  UNL     1      41.898  32.473  31.408  1.00  0.00    -0.332 N 
HETATM    7  C7  UNL     1      40.650  31.865  31.237  1.00  0.00     0.222 C 
ATOM      8  H1  UNL     1      41.953  33.469  31.617  1.00  0.00     0.168 HD
HETATM    9  O3  UNL     1      39.692  32.556  30.827  1.00  0.00    -0.273 OA
BRANCH   7  10
HETATM   10  C6  UNL     1      40.476  30.433  31.537  1.00  0.00     0.112 C 
BRANCH  10  11
HETATM   11  C2  UNL     1      39.642  30.281  32.778  1.00  0.00    -0.030 C 
HETATM   12  C1  UNL     1      38.197  30.282  32.406  1.00  0.00     0.016 C 
HETATM   13  C3  UNL     1      40.030  31.386  33.743  1.00  0.00     0.016 C 
BRANCH  11  14
HETATM   14  C4  UNL     1      40.066  28.944  33.397  1.00  0.00     0.122 C 
BRANCH  14  15
HETATM   15  C5  UNL     1      39.684  28.847  34.808  1.00  0.00     0.173 C 
HETATM   16  O1  UNL     1      40.532  29.112  35.719  1.00  0.00    -0.648 OA
HETATM   17  O2  UNL     1      38.426  28.477  35.268  1.00  0.00    -0.648 OA
ENDBRANCH  14  15
ENDBRANCH  11  14
ENDBRANCH  10  11
ENDBRANCH   7  10
ENDBRANCH   1   5
BRANCH   3  18
HETATM   18  C10 UNL     1      46.643  32.316  32.257  1.00  0.00     0.034 C 
HETATM   19  C11 UNL     1      46.620  33.598  33.024  1.00  0.00     0.035 C 
HETATM   20  C12 UNL     1      48.045  34.001  33.326  1.00  0.00    -0.012 C 
HETATM   21  C13 UNL     1      48.774  32.926  34.082  1.00  0.00     0.009 C 
HETATM   22  C17 UNL     1      48.699  34.337  32.001  1.00  0.00     0.009 C 
HETATM   23  C14 UNL     1      48.921  31.731  33.169  1.00  0.00    -0.012 C 
HETATM   24  C15 UNL     1      49.562  32.070  31.856  1.00  0.00     0.009 C 
HETATM   25  C19 UNL     1      47.505  31.239  32.886  1.00  0.00     0.035 C 
HETATM   26  C16 UNL     1      48.719  33.096  31.121  1.00  0.00    -0.012 C 
HETATM   27  C18 UNL     1      47.310  32.621  30.909  1.00  0.00     0.035 C 
ENDBRANCH   3  18
TORSDOF 6
ENDMDL
MODEL 3
REMARK VINA RESULT: -7.938928765      1.217      2.157
REMARK  6 active torsions:
REMARK  status: ('A' for Active; 'I' for Inactive)
REMARK    1  A    between atoms: C2_2  and  C4_4 
REMARK    2  A    between atoms: C2_2  and  C6_8 
REMARK    3  A    between atoms: C4_4  and  C5_5 
REMARK    4  A    between atoms: C6_8  and  C7_9 
REMARK       I    between atoms: C7_9  and  N1_11 
REMARK    5  A    between atoms: C8_13  and  C9_14 
REMARK       I    between atoms: C9_14  and  N2_16 
REMARK    6  A    between atoms: N2_16  and  C10_18 
ROOT
HETATM    1  C9  UNL     1      44.091  31.206  30.622  1.00  0.00     0.257 C 
HETATM    2  O4  UNL     1      44.801  30.314  30.107  1.00  0.00    -0.267 OA
HETATM    3  N2  UNL     1      44.636  32.449  31.050  1.00  0.00    -0.347 N 
ATOM      4  H2  UNL     1      44.003  33.133  31.464  1.00  0.00     0.163 HD
ENDROOT
BRANCH   1   5
HETATM    5  C8  UNL     1      42.679  30.938  30.771  1.00  0.00     0.165 C 
HETATM    6  N1  UNL     1      41.899  31.899  31.106  1.00  0.00    -0.332 N 
HETATM    7  C7  UNL     1      40.527  31.673  31.260  1.00  0.00     0.222 C 
ATOM      8  H1  UNL     1      42.280  32.831  31.261  1.00  0.00     0.168 HD
HETATM    9  O3  UNL     1      39.733  32.620  31.068  1.00  0.00    -0.273 OA
BRANCH   7  10
HETATM   10  C6  UNL     1      40.034  30.339  31.643  1.00  0.00     0.112 C 
BRANCH  10  11
HETATM   11  C2  UNL     1      39.675  30.339  33.102  1.00  0.00    -0.030 C 
HETATM   12  C1  UNL     1      38.227  30.664  33.255  1.00  0.00     0.016 C 
HETATM   13  C3  UNL     1      40.602  31.306  33.814  1.00  0.00     0.016 C 
BRANCH  11  14
HETATM   14  C4  UNL     1      39.993  28.926  33.604  1.00  0.00     0.122 C 
BRANCH  14  15
HETATM   15  C5  UNL     1      39.592  28.736  35.001  1.00  0.00     0.173 C 
HETATM   16  O1  UNL     1      40.386  29.053  35.943  1.00  0.00    -0.648 OA
HETATM   17  O2  UNL     1      38.369  28.219  35.413  1.00  0.00    -0.648 OA
ENDBRANCH  14  15
ENDBRANCH  11  14
ENDBRANCH  10  11
ENDBRANCH   7  10
ENDBRANCH   1   5
BRANCH   3  18
HETATM   18  C10 UNL     1      46.022  32.796  30.934  1.00  0.00     0.034 C 
HETATM   19  C11 UNL     1      46.954  31.849  31.618  1.00  0.00     0.035 C 
HETATM   20  C12 UNL     1      48.373  32.239  31.272  1.00  0.00    -0.012 C 
HETATM   21  C13 UNL     1      48.595  32.245  29.786  1.00  0.00     0.009 C 
HETATM   22  C17 UNL     1      48.629  33.588  31.913  1.00  0.00     0.009 C 
HETATM   23  C14 UNL     1      47.759  33.355  29.193  1.00  0.00    -0.012 C 
HETATM   24  C15 UNL     1      48.011  34.687  29.835  1.00  0.00     0.009 C 
HETATM   25  C19 UNL     1      46.306  32.976  29.456  1.00  0.00     0.035 C 
HETATM   26  C16 UNL     1      47.680  34.616  31.315  1.00  0.00    -0.012 C 
HETATM   27  C18 UNL     1      46.264  34.178  31.556  1.00  0.00     0.035 C 
ENDBRANCH   3  18
TORSDOF 6
ENDMDL
MODEL 4
REMARK VINA RESULT: -7.907876036      0.747      1.579
REMARK  6 active torsions:
REMARK  status: ('A' for Active; 'I' for Inactive)
REMARK    1  A    between atoms: C2_2  and  C4_4 
REMARK    2  A    between atoms: C2_2  and  C6_8 
REMARK    3  A    between atoms: C4_4  and  C5_5 
REMARK    4  A    between atoms: C6_8  and  C7_9 
REMARK       I    between atoms: C7_9  and  N1_11 
REMARK    5  A    between atoms: C8_13  and  C9_14 
REMARK       I    between atoms: C9_14  and  N2_16 
REMARK    6  A    between atoms: N2_16  and  C10_18 
ROOT
HETATM    1  C9  UNL     1      44.324  31.321  30.928  1.00  0.00     0.257 C 
HETATM    2  O4  UNL     1      45.022  30.867  29.994  1.00  0.00    -0.267 OA
HETATM    3  N2  UNL     1      44.888  32.090  31.984  1.00  0.00    -0.347 N 
ATOM      4  H2  UNL     1      44.265  32.429  32.716  1.00  0.00     0.163 HD
ENDROOT
BRANCH   1   5
HETATM    5  C8  UNL     1      42.906  31.040  30.905  1.00  0.00     0.165 C 
HETATM    6  N1  UNL     1      42.084  31.989  31.165  1.00  0.00    -0.332 N 
HETATM    7  C7  UNL     1      40.706  31.751  31.153  1.00  0.00     0.222 C 
ATOM      8  H1  UNL     1      42.436  32.921  31.382  1.00  0.00     0.168 HD
HETATM    9  O3  UNL     1      39.931  32.696  30.888  1.00  0.00    -0.273 OA
BRANCH   7  10
HETATM   10  C6  UNL     1      40.183  30.406  31.449  1.00  0.00     0.112 C 
BRANCH  10  11
HETATM   11  C2  UNL     1      39.648  30.376  32.853  1.00  0.00    -0.030 C 
HETATM   12  C1  UNL     1      38.164  30.532  32.820  1.00  0.00     0.016 C 
HETATM   13  C3  UNL     1      40.361  31.451  33.651  1.00  0.00     0.016 C 
BRANCH  11  14
HETATM   14  C4  UNL     1      40.061  29.014  33.423  1.00  0.00     0.122 C 
BRANCH  14  15
HETATM   15  C5  UNL     1      39.675  28.867  34.828  1.00  0.00     0.173 C 
HETATM   16  O1  UNL     1      40.491  29.185  35.752  1.00  0.00    -0.648 OA
HETATM   17  O2  UNL     1      38.446  28.391  35.270  1.00  0.00    -0.648 OA
ENDBRANCH  14  15
ENDBRANCH  11  14
ENDBRANCH  10  11
ENDBRANCH   7  10
ENDBRANCH   1   5
BRANCH   3  18
HETATM   18  C10 UNL     1      46.280  32.417  32.079  1.00  0.00     0.034 C 
HETATM   19  C11 UNL     1      47.169  31.250  32.363  1.00  0.00     0.035 C 
HETATM   20  C12 UNL     1      48.607  31.708  32.266  1.00  0.00    -0.012 C 
HETATM   21  C13 UNL     1      48.905  32.307  30.920  1.00  0.00     0.009 C 
HETATM   22  C17 UNL     1      48.839  32.677  33.407  1.00  0.00     0.009 C 
HETATM   23  C14 UNL     1      48.107  33.584  30.790  1.00  0.00    -0.012 C 
HETATM   24  C15 UNL     1      48.336  34.537  31.925  1.00  0.00     0.009 C 
HETATM   25  C19 UNL     1      46.640  33.170  30.813  1.00  0.00     0.035 C 
HETATM   26  C16 UNL     1      47.929  33.885  33.235  1.00  0.00    -0.012 C 
HETATM   27  C18 UNL     1      46.499  33.425  33.216  1.00  0.00     0.035 C 
ENDBRANCH   3  18
TORSDOF 6
ENDMDL
MODEL 5
REMARK VINA RESULT: -7.883403680      1.123      1.885
REMARK  6 active torsions:
REMARK  status: ('A' for Active; 'I' for Inactive)
REMARK    1  A    between atoms: C2_2  and  C4_4 
REMARK    2  A    between atoms: C2_2  and  C6_8 
REMARK    3  A    between atoms: C4_4  and  C5_5 
REMARK    4  A    between atoms: C6_8  and  C7_9 
REMARK       I    between atoms: C7_9  and  N1_11 
REMARK    5  A    between atoms: C8_13  and  C9_14 
REMARK       I    between atoms: C9_14  and  N2_16 
REMARK    6  A    between atoms: N2_16  and  C10_18 
ROOT
HETATM    1  C9  UNL     1      44.053  32.303  30.916  1.00  0.00     0.257 C 
HETATM    2  O4  UNL     1      44.192  33.360  31.571  1.00  0.00    -0.267 OA
HETATM    3  N2  UNL     1      45.125  31.731  30.175  1.00  0.00    -0.347 N 
ATOM      4  H2  UNL     1      44.946  30.869  29.661  1.00  0.00     0.163 HD
ENDROOT
BRANCH   1   5
HETATM    5  C8  UNL     1      42.755  31.668  30.933  1.00  0.00     0.165 C 
HETATM    6  N1  UNL     1      41.720  32.384  31.175  1.00  0.00    -0.332 N 
HETATM    7  C7  UNL     1      40.449  31.800  31.200  1.00  0.00     0.222 C 
ATOM      8  H1  UNL     1      41.823  33.383  31.349  1.00  0.00     0.168 HD
HETATM    9  O3  UNL     1      39.455  32.504  30.916  1.00  0.00    -0.273 OA
BRANCH   7  10
HETATM   10  C6  UNL     1      40.293  30.379  31.557  1.00  0.00     0.112 C 
BRANCH  10  11
HETATM   11  C2  UNL     1      39.590  30.271  32.881  1.00  0.00    -0.030 C 
HETATM   12  C1  UNL     1      38.115  30.332  32.663  1.00  0.00     0.016 C 
HETATM   13  C3  UNL     1      40.123  31.365  33.787  1.00  0.00     0.016 C 
BRANCH  11  14
HETATM   14  C4  UNL     1      40.020  28.922  33.466  1.00  0.00     0.122 C 
BRANCH  14  15
HETATM   15  C5  UNL     1      39.636  28.787  34.874  1.00  0.00     0.173 C 
HETATM   16  O1  UNL     1      40.473  29.056  35.794  1.00  0.00    -0.648 OA
HETATM   17  O2  UNL     1      38.386  28.373  35.321  1.00  0.00    -0.648 OA
ENDBRANCH  14  15
ENDBRANCH  11  14
ENDBRANCH  10  11
ENDBRANCH   7  10
ENDBRANCH   1   5
BRANCH   3  18
HETATM   18  C10 UNL     1      46.442  32.294  30.110  1.00  0.00     0.034 C 
HETATM   19  C11 UNL     1      46.506  33.636  29.457  1.00  0.00     0.035 C 
HETATM   20  C12 UNL     1      47.909  34.177  29.610  1.00  0.00    -0.012 C 
HETATM   21  C13 UNL     1      48.316  34.253  31.055  1.00  0.00     0.009 C 
HETATM   22  C17 UNL     1      48.818  33.286  28.788  1.00  0.00     0.009 C 
HETATM   23  C14 UNL     1      48.410  32.842  31.589  1.00  0.00    -0.012 C 
HETATM   24  C15 UNL     1      49.305  31.963  30.767  1.00  0.00     0.009 C 
HETATM   25  C19 UNL     1      46.998  32.269  31.520  1.00  0.00     0.035 C 
HETATM   26  C16 UNL     1      48.776  31.872  29.348  1.00  0.00    -0.012 C 
HETATM   27  C18 UNL     1      47.362  31.367  29.304  1.00  0.00     0.035 C 
ENDBRANCH   3  18
TORSDOF 6
ENDMDL
