MODEL 1
REMARK VINA RESULT: -7.142619946      0.000      0.000
REMARK  7 active torsions:
REMARK  status: ('A' for Active; 'I' for Inactive)
REMARK    1  A    between atoms: C2_2  and  C3_3 
REMARK    2  A    between atoms: C3_3  and  C4_4 
REMARK    3  A    between atoms: C5_5  and  O1_6 
REMARK    4  A    between atoms: C7_8  and  C8_9 
REMARK    5  A    between atoms: N1_11  and  N2_13 
REMARK    6  A    between atoms: C12_19  and  N5_20 
REMARK    7  A    between atoms: C16_24  and  C17_25 
ROOT
HETATM    1  C4  UNL     1      44.659  30.965  31.212  1.00  0.00    -0.011 A 
HETATM    2  C5  UNL     1      44.703  29.608  31.582  1.00  0.00     0.087 A 
HETATM    3  C7  UNL     1      45.818  29.053  32.148  1.00  0.00     0.024 A 
HETATM    4  C11 UNL     1      46.899  29.927  32.333  1.00  0.00     0.054 A 
HETATM    5  C12 UNL     1      46.913  31.283  31.988  1.00  0.00     0.147 A 
HETATM    6  C16 UNL     1      45.766  31.799  31.413  1.00  0.00     0.009 A 
ENDROOT
BRANCH   3   7
HETATM    7  C8  UNL     1      45.987  27.668  32.584  1.00  0.00     0.035 C 
HETATM    8  C9  UNL     1      45.704  26.422  31.906  1.00  0.00     0.070 C 
HETATM    9  N1  UNL     1      46.463  27.535  33.802  1.00  0.00    -0.302 N 
ATOM     10  H1  UNL     1      46.655  28.408  34.294  1.00  0.00     0.186 HD
BRANCH   9  11
HETATM   11  N2  UNL     1      46.728  26.430  34.479  1.00  0.00    -0.276 N 
HETATM   12  C10 UNL     1      47.785  25.742  34.473  1.00  0.00     0.215 C 
HETATM   13  N3  UNL     1      48.892  26.137  33.653  1.00  0.00    -0.065 NA
HETATM   14  N4  UNL     1      47.901  24.551  35.264  1.00  0.00    -0.065 NA
ATOM     15  H2  UNL     1      45.981  26.090  35.084  1.00  0.00     0.189 HD
ENDBRANCH   9  11
ENDBRANCH   3   7
BRANCH   2  16
HETATM   16  O1  UNL     1      43.597  28.804  31.377  1.00  0.00    -0.354 OA
HETATM   17  C6  UNL     1      42.589  28.400  32.214  1.00  0.00     0.210 C 
ENDBRANCH   2  16
BRANCH   1  18
HETATM   18  C3  UNL     1      43.429  31.368  30.547  1.00  0.00     0.042 C 
BRANCH  18  19
HETATM   19  C2  UNL     1      42.338  31.864  31.444  1.00  0.00     0.000 C 
HETATM   20  C1  UNL     1      40.968  31.536  30.795  1.00  0.00     0.005 C 
ENDBRANCH  18  19
ENDBRANCH   1  18
BRANCH   5  21
HETATM   21  N5  UNL     1      48.029  32.057  32.370  1.00  0.00    -0.048 N 
HETATM   22  C13 UNL     1      48.803  32.746  31.408  1.00  0.00     0.278 C 
HETATM   23  C14 UNL     1      49.055  31.045  32.846  1.00  0.00     0.278 C 
HETATM   24  C15 UNL     1      47.853  32.765  33.644  1.00  0.00     0.278 C 
ENDBRANCH   5  21
BRANCH   6  25
HETATM   25  C17 UNL     1      45.641  33.189  31.039  1.00  0.00    -0.074 C 
HETATM   26  C18 UNL     1      45.605  33.502  29.549  1.00  0.00     0.044 C 
HETATM   27  C19 UNL     1      44.945  34.176  31.904  1.00  0.00     0.044 C 
ENDBRANCH   6  25
TORSDOF 7
ENDMDL
MODEL 2
REMARK VINA RESULT: -6.999778936      3.682      6.284
REMARK  7 active torsions:
REMARK  status: ('A' for Active; 'I' for Inactive)
REMARK    1  A    between atoms: C2_2  and  C3_3 
REMARK    2  A    between atoms: C3_3  and  C4_4 
REMARK    3  A    between atoms: C5_5  and  O1_6 
REMARK    4  A    between atoms: C7_8  and  C8_9 
REMARK    5  A    between atoms: N1_11  and  N2_13 
REMARK    6  A    between atoms: C12_19  and  N5_20 
REMARK    7  A    between atoms: C16_24  and  C17_25 
ROOT
HETATM    1  C4  UNL     1      46.121  32.075  31.454  1.00  0.00    -0.011 A 
HETATM    2  C5  UNL     1      44.781  32.356  31.776  1.00  0.00     0.087 A 
HETATM    3  C7  UNL     1      43.910  31.371  32.152  1.00  0.00     0.024 A 
HETATM    4  C11 UNL     1      44.447  30.076  32.195  1.00  0.00     0.054 A 
HETATM    5  C12 UNL     1      45.769  29.736  31.890  1.00  0.00     0.147 A 
HETATM    6  C16 UNL     1      46.612  30.764  31.509  1.00  0.00     0.009 A 
ENDROOT
BRANCH   3   7
HETATM    7  C8  UNL     1      42.504  31.532  32.519  1.00  0.00     0.035 C 
HETATM    8  C9  UNL     1      41.807  31.223  33.748  1.00  0.00     0.070 C 
HETATM    9  N1  UNL     1      41.746  32.029  31.567  1.00  0.00    -0.302 N 
ATOM     10  H1  UNL     1      42.226  32.240  30.692  1.00  0.00     0.186 HD
BRANCH   9  11
HETATM   11  N2  UNL     1      40.451  32.294  31.584  1.00  0.00    -0.276 N 
HETATM   12  C10 UNL     1      39.640  32.305  30.618  1.00  0.00     0.215 C 
HETATM   13  N3  UNL     1      40.100  32.004  29.295  1.00  0.00    -0.065 NA
HETATM   14  N4  UNL     1      38.257  32.631  30.812  1.00  0.00    -0.065 NA
ATOM     15  H2  UNL     1      40.056  32.518  32.497  1.00  0.00     0.189 HD
ENDBRANCH   9  11
ENDBRANCH   3   7
BRANCH   2  16
HETATM   16  O1  UNL     1      44.319  33.658  31.717  1.00  0.00    -0.354 OA
HETATM   17  C6  UNL     1      44.345  34.683  32.629  1.00  0.00     0.210 C 
ENDBRANCH   2  16
BRANCH   1  18
HETATM   18  C3  UNL     1      46.884  33.226  30.994  1.00  0.00     0.042 C 
BRANCH  18  19
HETATM   19  C2  UNL     1      46.749  33.556  29.540  1.00  0.00     0.000 C 
HETATM   20  C1  UNL     1      48.087  34.158  29.036  1.00  0.00     0.005 C 
ENDBRANCH  18  19
ENDBRANCH   1  18
BRANCH   5  21
HETATM   21  N5  UNL     1      46.188  28.409  32.120  1.00  0.00    -0.048 N 
HETATM   22  C13 UNL     1      46.779  27.640  31.092  1.00  0.00     0.278 C 
HETATM   23  C14 UNL     1      44.901  27.628  32.316  1.00  0.00     0.278 C 
HETATM   24  C15 UNL     1      46.751  28.187  33.458  1.00  0.00     0.278 C 
ENDBRANCH   5  21
BRANCH   6  25
HETATM   25  C17 UNL     1      48.007  30.552  31.196  1.00  0.00    -0.074 C 
HETATM   26  C18 UNL     1      48.376  30.448  29.723  1.00  0.00     0.044 C 
HETATM   27  C19 UNL     1      49.094  31.042  32.083  1.00  0.00     0.044 C 
ENDBRANCH   6  25
TORSDOF 7
ENDMDL
MODEL 3
REMARK VINA RESULT: -6.923373474      1.735      4.025
REMARK  7 active torsions:
REMARK  status: ('A' for Active; 'I' for Inactive)
REMARK    1  A    between atoms: C2_2  and  C3_3 
REMARK    2  A    between atoms: C3_3  and  C4_4 
REMARK    3  A    between atoms: C5_5  and  O1_6 
REMARK    4  A    between atoms: C7_8  and  C8_9 
REMARK    5  A    between atoms: N1_11  and  N2_13 
REMARK    6  A    between atoms: C12_19  and  N5_20 
REMARK    7  A    between atoms: C16_24  and  C17_25 
ROOT
HETATM    1  C4  UNL     1      46.208  31.205  32.034  1.00  0.00    -0.011 A 
HETATM    2  C5  UNL     1      46.614  29.871  32.219  1.00  0.00     0.087 A 
HETATM    3  C7  UNL     1      45.709  28.865  32.420  1.00  0.00     0.024 A 
HETATM    4  C11 UNL     1      44.362  29.259  32.423  1.00  0.00     0.054 A 
HETATM    5  C12 UNL     1      43.899  30.566  32.242  1.00  0.00     0.147 A 
HETATM    6  C16 UNL     1      44.851  31.550  32.048  1.00  0.00     0.009 A 
ENDROOT
BRANCH   3   7
HETATM    7  C8  UNL     1      45.998  27.446  32.615  1.00  0.00     0.035 C 
HETATM    8  C9  UNL     1      45.706  26.299  31.783  1.00  0.00     0.070 C 
HETATM    9  N1  UNL     1      46.617  27.166  33.740  1.00  0.00    -0.302 N 
ATOM     10  H1  UNL     1      46.818  27.966  34.340  1.00  0.00     0.186 HD
BRANCH   9  11
HETATM   11  N2  UNL     1      47.015  25.993  34.204  1.00  0.00    -0.276 N 
HETATM   12  C10 UNL     1      48.142  25.441  34.075  1.00  0.00     0.215 C 
HETATM   13  N3  UNL     1      49.183  26.100  33.344  1.00  0.00    -0.065 NA
HETATM   14  N4  UNL     1      48.404  24.147  34.636  1.00  0.00    -0.065 NA
ATOM     15  H2  UNL     1      46.322  25.467  34.735  1.00  0.00     0.189 HD
ENDBRANCH   9  11
ENDBRANCH   3   7
BRANCH   2  16
HETATM   16  O1  UNL     1      47.959  29.553  32.198  1.00  0.00    -0.354 OA
HETATM   17  C6  UNL     1      48.767  29.047  31.212  1.00  0.00     0.210 C 
ENDBRANCH   2  16
BRANCH   1  18
HETATM   18  C3  UNL     1      47.304  32.157  31.919  1.00  0.00     0.042 C 
BRANCH  18  19
HETATM   19  C2  UNL     1      47.870  32.656  33.211  1.00  0.00     0.000 C 
HETATM   20  C1  UNL     1      48.077  34.189  33.109  1.00  0.00     0.005 C 
ENDBRANCH  18  19
ENDBRANCH   1  18
BRANCH   5  21
HETATM   21  N5  UNL     1      42.508  30.772  32.131  1.00  0.00    -0.048 N 
HETATM   22  C13 UNL     1      41.769  31.350  33.188  1.00  0.00     0.278 C 
HETATM   23  C14 UNL     1      41.911  29.377  32.133  1.00  0.00     0.278 C 
HETATM   24  C15 UNL     1      42.071  31.165  30.785  1.00  0.00     0.278 C 
ENDBRANCH   5  21
BRANCH   6  25
HETATM   25  C17 UNL     1      44.504  32.934  31.819  1.00  0.00    -0.074 C 
HETATM   26  C18 UNL     1      44.372  33.825  33.047  1.00  0.00     0.044 C 
HETATM   27  C19 UNL     1      44.880  33.642  30.568  1.00  0.00     0.044 C 
ENDBRANCH   6  25
TORSDOF 7
ENDMDL
MODEL 4
REMARK VINA RESULT: -6.920927301      3.558      5.900
REMARK  7 active torsions:
REMARK  status: ('A' for Active; 'I' for Inactive)
REMARK    1  A    between atoms: C2_2  and  C3_3 
REMARK    2  A    between atoms: C3_3  and  C4_4 
REMARK    3  A    between atoms: C5_5  and  O1_6 
REMARK    4  A    between atoms: C7_8  and  C8_9 
REMARK    5  A    between atoms: N1_11  and  N2_13 
REMARK    6  A    between atoms: C12_19  and  N5_20 
REMARK    7  A    between atoms: C16_24  and  C17_25 
ROOT
HETATM    1  C4  UNL     1      45.704  31.600  31.608  1.00  0.00    -0.011 A 
HETATM    2  C5  UNL     1      44.332  31.590  31.920  1.00  0.00     0.087 A 
HETATM    3  C7  UNL     1      43.681  30.436  32.259  1.00  0.00     0.024 A 
HETATM    4  C11 UNL     1      44.473  29.279  32.276  1.00  0.00     0.054 A 
HETATM    5  C12 UNL     1      45.839  29.228  31.979  1.00  0.00     0.147 A 
HETATM    6  C16 UNL     1      46.454  30.417  31.635  1.00  0.00     0.009 A 
ENDROOT
BRANCH   3   7
HETATM    7  C8  UNL     1      42.269  30.294  32.613  1.00  0.00     0.035 C 
HETATM    8  C9  UNL     1      41.640  29.949  33.868  1.00  0.00     0.070 C 
HETATM    9  N1  UNL     1      41.436  30.503  31.619  1.00  0.00    -0.302 N 
ATOM     10  H1  UNL     1      41.869  30.736  30.725  1.00  0.00     0.186 HD
BRANCH   9  11
HETATM   11  N2  UNL     1      40.114  30.453  31.613  1.00  0.00    -0.276 N 
HETATM   12  C10 UNL     1      39.298  31.337  31.233  1.00  0.00     0.215 C 
HETATM   13  N3  UNL     1      39.782  32.588  30.729  1.00  0.00    -0.065 NA
HETATM   14  N4  UNL     1      37.882  31.123  31.309  1.00  0.00    -0.065 NA
ATOM     15  H2  UNL     1      39.701  29.588  31.961  1.00  0.00     0.189 HD
ENDBRANCH   9  11
ENDBRANCH   3   7
BRANCH   2  16
HETATM   16  O1  UNL     1      43.613  32.770  31.890  1.00  0.00    -0.354 OA
HETATM   17  C6  UNL     1      43.186  33.610  32.886  1.00  0.00     0.210 C 
ENDBRANCH   2  16
BRANCH   1  18
HETATM   18  C3  UNL     1      46.216  32.896  31.188  1.00  0.00     0.042 C 
BRANCH  18  19
HETATM   19  C2  UNL     1      45.989  33.250  29.751  1.00  0.00     0.000 C 
HETATM   20  C1  UNL     1      47.262  33.943  29.198  1.00  0.00     0.005 C 
ENDBRANCH  18  19
ENDBRANCH   1  18
BRANCH   5  21
HETATM   21  N5  UNL     1      46.521  28.009  32.180  1.00  0.00    -0.048 N 
HETATM   22  C13 UNL     1      47.388  27.486  31.194  1.00  0.00     0.278 C 
HETATM   23  C14 UNL     1      45.433  26.951  32.151  1.00  0.00     0.278 C 
HETATM   24  C15 UNL     1      46.959  27.795  33.564  1.00  0.00     0.278 C 
ENDBRANCH   5  21
BRANCH   6  25
HETATM   25  C17 UNL     1      47.865  30.506  31.335  1.00  0.00    -0.074 C 
HETATM   26  C18 UNL     1      48.259  30.508  29.864  1.00  0.00     0.044 C 
HETATM   27  C19 UNL     1      48.820  31.196  32.241  1.00  0.00     0.044 C 
ENDBRANCH   6  25
TORSDOF 7
ENDMDL
MODEL 5
REMARK VINA RESULT: -6.876281881      1.344      1.483
REMARK  7 active torsions:
REMARK  status: ('A' for Active; 'I' for Inactive)
REMARK    1  A    between atoms: C2_2  and  C3_3 
REMARK    2  A    between atoms: C3_3  and  C4_4 
REMARK    3  A    between atoms: C5_5  and  O1_6 
REMARK    4  A    between atoms: C7_8  and  C8_9 
REMARK    5  A    between atoms: N1_11  and  N2_13 
REMARK    6  A    between atoms: C12_19  and  N5_20 
REMARK    7  A    between atoms: C16_24  and  C17_25 
ROOT
HETATM    1  C4  UNL     1      44.678  31.028  31.285  1.00  0.00    -0.011 A 
HETATM    2  C5  UNL     1      44.708  29.700  31.748  1.00  0.00     0.087 A 
HETATM    3  C7  UNL     1      45.814  29.178  32.363  1.00  0.00     0.024 A 
HETATM    4  C11 UNL     1      46.899  30.057  32.498  1.00  0.00     0.054 A 
HETATM    5  C12 UNL     1      46.926  31.385  32.062  1.00  0.00     0.147 A 
HETATM    6  C16 UNL     1      45.788  31.867  31.441  1.00  0.00     0.009 A 
ENDROOT
BRANCH   3   7
HETATM    7  C8  UNL     1      45.968  27.825  32.895  1.00  0.00     0.035 C 
HETATM    8  C9  UNL     1      46.546  27.358  34.135  1.00  0.00     0.070 C 
HETATM    9  N1  UNL     1      45.518  26.876  32.106  1.00  0.00    -0.302 N 
ATOM     10  H1  UNL     1      45.119  27.193  31.222  1.00  0.00     0.186 HD
BRANCH   9  11
HETATM   11  N2  UNL     1      45.510  25.567  32.295  1.00  0.00    -0.276 N 
HETATM   12  C10 UNL     1      46.272  24.697  31.791  1.00  0.00     0.215 C 
HETATM   13  N3  UNL     1      47.306  25.092  30.882  1.00  0.00    -0.065 NA
HETATM   14  N4  UNL     1      46.114  23.304  32.096  1.00  0.00    -0.065 NA
ATOM     15  H2  UNL     1      44.796  25.215  32.932  1.00  0.00     0.189 HD
ENDBRANCH   9  11
ENDBRANCH   3   7
BRANCH   2  16
HETATM   16  O1  UNL     1      43.600  28.891  31.586  1.00  0.00    -0.354 OA
HETATM   17  C6  UNL     1      42.545  28.602  32.415  1.00  0.00     0.210 C 
ENDBRANCH   2  16
BRANCH   1  18
HETATM   18  C3  UNL     1      43.457  31.392  30.581  1.00  0.00     0.042 C 
BRANCH  18  19
HETATM   19  C2  UNL     1      42.368  31.976  31.426  1.00  0.00     0.000 C 
HETATM   20  C1  UNL     1      40.999  31.647  30.776  1.00  0.00     0.005 C 
ENDBRANCH  18  19
ENDBRANCH   1  18
BRANCH   5  21
HETATM   21  N5  UNL     1      48.043  32.177  32.402  1.00  0.00    -0.048 N 
HETATM   22  C13 UNL     1      48.806  32.829  31.406  1.00  0.00     0.278 C 
HETATM   23  C14 UNL     1      49.075  31.188  32.910  1.00  0.00     0.278 C 
HETATM   24  C15 UNL     1      47.876  32.936  33.647  1.00  0.00     0.278 C 
ENDBRANCH   5  21
BRANCH   6  25
HETATM   25  C17 UNL     1      45.676  33.229  30.970  1.00  0.00    -0.074 C 
HETATM   26  C18 UNL     1      45.638  33.438  29.462  1.00  0.00     0.044 C 
HETATM   27  C19 UNL     1      44.995  34.282  31.767  1.00  0.00     0.044 C 
ENDBRANCH   6  25
TORSDOF 7
ENDMDL
