MODEL 1
REMARK VINA RESULT: -8.945278720      0.000      0.000
REMARK  15 active torsions:
REMARK  status: ('A' for Active; 'I' for Inactive)
REMARK    1  A    between atoms: C7_14  and  N5_15 
REMARK    2  A    between atoms: N5_15  and  C8_16 
REMARK    3  A    between atoms: C8_16  and  C9_17 
REMARK    4  A    between atoms: C9_17  and  C10_18 
REMARK    5  A    between atoms: C10_18  and  C11_19 
REMARK    6  A    between atoms: C11_19  and  C12_20 
REMARK    7  A    between atoms: C12_20  and  C13_21 
REMARK    8  A    between atoms: C13_21  and  C14_22 
REMARK    9  A    between atoms: C14_22  and  C15_23 
REMARK   10  A    between atoms: C15_23  and  C16_24 
REMARK   11  A    between atoms: C16_24  and  C17_25 
REMARK   12  A    between atoms: C17_25  and  C18_26 
REMARK   13  A    between atoms: C18_26  and  C19_27 
REMARK   14  A    between atoms: C19_27  and  C20_28 
REMARK   15  A    between atoms: C20_28  and  C21_31 
ROOT
HETATM    1  N5  UNL     1      37.332  15.115  -4.661  1.00  0.00    -0.428 NA
ENDROOT
BRANCH   1   2
HETATM    2  C7  UNL     1      37.885  16.070  -4.221  1.00  0.00     0.205 A 
HETATM    3  N4  UNL     1      38.025  16.431  -2.913  1.00  0.00    -0.272 N 
HETATM    4  N3  UNL     1      38.698  17.547  -2.831  1.00  0.00    -0.282 N 
ATOM      5  H4  UNL     1      37.659  15.908  -2.118  1.00  0.00     0.189 HD
HETATM    6  C6  UNL     1      39.041  17.986  -4.057  1.00  0.00     0.145 A 
ATOM      7  H3  UNL     1      38.931  18.021  -1.959  1.00  0.00     0.188 HD
HETATM    8  N2  UNL     1      39.765  19.129  -4.519  1.00  0.00    -0.287 N 
HETATM    9  C22 UNL     1      38.541  17.073  -4.954  1.00  0.00     0.113 A 
HETATM   10  C4  UNL     1      39.972  19.327  -5.908  1.00  0.00     0.331 A 
HETATM   11  C5  UNL     1      40.276  20.066  -3.556  1.00  0.00     0.163 C 
HETATM   12  N1  UNL     1      39.470  18.404  -6.883  1.00  0.00    -0.282 N 
HETATM   13  O1  UNL     1      40.608  20.330  -6.322  1.00  0.00    -0.246 OA
HETATM   14  C3  UNL     1      39.541  18.374  -8.328  1.00  0.00     0.160 A 
HETATM   15  C23 UNL     1      38.753  17.274  -6.405  1.00  0.00     0.127 A 
HETATM   16  C2  UNL     1      38.806  17.131  -8.677  1.00  0.00     0.097 A 
HETATM   17  C1  UNL     1      37.617  17.376  -9.579  1.00  0.00     0.034 C 
HETATM   18  N6  UNL     1      38.398  16.587  -7.409  1.00  0.00    -0.369 N 
ATOM     19  H6  UNL     1      37.867  15.720  -7.324  1.00  0.00     0.161 HD
ENDBRANCH   1   2
BRANCH   1  20
HETATM   20  C8  UNL     1      36.753  14.037  -5.185  1.00  0.00     0.220 C 
BRANCH  20  21
HETATM   21  C9  UNL     1      37.747  12.968  -5.646  1.00  0.00     0.033 C 
BRANCH  21  22
HETATM   22  C10 UNL     1      39.106  13.248  -5.057  1.00  0.00     0.002 C 
BRANCH  22  23
HETATM   23  C11 UNL     1      40.018  13.672  -6.204  1.00  0.00     0.000 C 
BRANCH  23  24
HETATM   24  C12 UNL     1      41.220  14.413  -5.722  1.00  0.00     0.000 C 
BRANCH  24  25
HETATM   25  C13 UNL     1      42.472  14.026  -6.471  1.00  0.00     0.000 C 
BRANCH  25  26
HETATM   26  C14 UNL     1      43.675  14.418  -5.692  1.00  0.00     0.000 C 
BRANCH  26  27
HETATM   27  C15 UNL     1      43.436  15.485  -4.674  1.00  0.00     0.000 C 
BRANCH  27  28
HETATM   28  C16 UNL     1      44.762  15.997  -4.102  1.00  0.00     0.000 C 
BRANCH  28  29
HETATM   29  C17 UNL     1      44.735  17.492  -3.879  1.00  0.00     0.000 C 
BRANCH  29  30
HETATM   30  C18 UNL     1      46.084  18.077  -3.875  1.00  0.00     0.003 C 
BRANCH  30  31
HETATM   31  C19 UNL     1      47.157  17.259  -4.492  1.00  0.00     0.040 C 
BRANCH  31  32
HETATM   32  C20 UNL     1      48.343  16.913  -3.684  1.00  0.00     0.124 C 
HETATM   33 CL1  UNL     1      49.762  16.570  -4.747  1.00  0.00    -0.104 Cl
HETATM   34 BR1  UNL     1      48.810  18.162  -2.338  1.00  0.00    -0.065 Br
BRANCH  32  35
HETATM   35  C21 UNL     1      48.116  15.559  -2.960  1.00  0.00     0.212 C 
HETATM   36 CL2  UNL     1      47.971  14.229  -4.104  1.00  0.00    -0.105 Cl
HETATM   37 CL3  UNL     1      49.459  15.242  -1.862  1.00  0.00    -0.105 Cl
ENDBRANCH  32  35
ENDBRANCH  31  32
ENDBRANCH  30  31
ENDBRANCH  29  30
ENDBRANCH  28  29
ENDBRANCH  27  28
ENDBRANCH  26  27
ENDBRANCH  25  26
ENDBRANCH  24  25
ENDBRANCH  23  24
ENDBRANCH  22  23
ENDBRANCH  21  22
ENDBRANCH  20  21
ENDBRANCH   1  20
TORSDOF 15
ENDMDL
MODEL 2
REMARK VINA RESULT: -8.520991141      5.240      8.195
REMARK  15 active torsions:
REMARK  status: ('A' for Active; 'I' for Inactive)
REMARK    1  A    between atoms: C7_14  and  N5_15 
REMARK    2  A    between atoms: N5_15  and  C8_16 
REMARK    3  A    between atoms: C8_16  and  C9_17 
REMARK    4  A    between atoms: C9_17  and  C10_18 
REMARK    5  A    between atoms: C10_18  and  C11_19 
REMARK    6  A    between atoms: C11_19  and  C12_20 
REMARK    7  A    between atoms: C12_20  and  C13_21 
REMARK    8  A    between atoms: C13_21  and  C14_22 
REMARK    9  A    between atoms: C14_22  and  C15_23 
REMARK   10  A    between atoms: C15_23  and  C16_24 
REMARK   11  A    between atoms: C16_24  and  C17_25 
REMARK   12  A    between atoms: C17_25  and  C18_26 
REMARK   13  A    between atoms: C18_26  and  C19_27 
REMARK   14  A    between atoms: C19_27  and  C20_28 
REMARK   15  A    between atoms: C20_28  and  C21_31 
ROOT
HETATM    1  N5  UNL     1      42.412  18.809  -4.152  1.00  0.00    -0.428 NA
ENDROOT
BRANCH   1   2
HETATM    2  C7  UNL     1      43.556  18.547  -3.959  1.00  0.00     0.205 A 
HETATM    3  N4  UNL     1      44.522  19.347  -3.427  1.00  0.00    -0.272 N 
HETATM    4  N3  UNL     1      45.655  18.701  -3.376  1.00  0.00    -0.282 N 
ATOM      5  H4  UNL     1      44.381  20.308  -3.114  1.00  0.00     0.189 HD
HETATM    6  C6  UNL     1      45.512  17.453  -3.864  1.00  0.00     0.145 A 
ATOM      7  H3  UNL     1      46.529  19.087  -3.018  1.00  0.00     0.188 HD
HETATM    8  N2  UNL     1      46.417  16.360  -4.031  1.00  0.00    -0.287 N 
HETATM    9  C22 UNL     1      44.197  17.328  -4.239  1.00  0.00     0.113 A 
HETATM   10  C4  UNL     1      45.961  15.137  -4.587  1.00  0.00     0.331 A 
HETATM   11  C5  UNL     1      47.788  16.521  -3.627  1.00  0.00     0.163 C 
HETATM   12  N1  UNL     1      44.599  14.958  -4.995  1.00  0.00    -0.282 N 
HETATM   13  O1  UNL     1      46.751  14.170  -4.738  1.00  0.00    -0.246 OA
HETATM   14  C3  UNL     1      43.893  13.837  -5.578  1.00  0.00     0.160 A 
HETATM   15  C23 UNL     1      43.715  16.055  -4.820  1.00  0.00     0.127 A 
HETATM   16  C2  UNL     1      42.510  14.354  -5.738  1.00  0.00     0.097 A 
HETATM   17  C1  UNL     1      42.026  14.324  -7.171  1.00  0.00     0.034 C 
HETATM   18  N6  UNL     1      42.570  15.702  -5.235  1.00  0.00    -0.369 N 
ATOM     19  H6  UNL     1      41.760  16.320  -5.214  1.00  0.00     0.161 HD
ENDBRANCH   1   2
BRANCH   1  20
HETATM   20  C8  UNL     1      41.119  19.072  -4.327  1.00  0.00     0.220 C 
BRANCH  20  21
HETATM   21  C9  UNL     1      40.853  20.191  -5.338  1.00  0.00     0.033 C 
BRANCH  21  22
HETATM   22  C10 UNL     1      39.916  19.697  -6.410  1.00  0.00     0.002 C 
BRANCH  22  23
HETATM   23  C11 UNL     1      40.752  18.910  -7.415  1.00  0.00     0.000 C 
BRANCH  23  24
HETATM   24  C12 UNL     1      39.905  18.117  -8.351  1.00  0.00     0.000 C 
BRANCH  24  25
HETATM   25  C13 UNL     1      38.665  17.572  -7.684  1.00  0.00     0.000 C 
BRANCH  25  26
HETATM   26  C14 UNL     1      38.683  16.087  -7.707  1.00  0.00     0.000 C 
BRANCH  26  27
HETATM   27  C15 UNL     1      38.691  15.444  -6.360  1.00  0.00     0.000 C 
BRANCH  27  28
HETATM   28  C16 UNL     1      38.614  16.500  -5.252  1.00  0.00     0.000 C 
BRANCH  28  29
HETATM   29  C17 UNL     1      39.277  16.026  -3.980  1.00  0.00     0.000 C 
BRANCH  29  30
HETATM   30  C18 UNL     1      38.423  16.226  -2.800  1.00  0.00     0.003 C 
BRANCH  30  31
HETATM   31  C19 UNL     1      36.964  16.055  -3.008  1.00  0.00     0.040 C 
BRANCH  31  32
HETATM   32  C20 UNL     1      36.375  14.709  -2.850  1.00  0.00     0.124 C 
HETATM   33 CL1  UNL     1      37.589  13.558  -2.170  1.00  0.00    -0.104 Cl
HETATM   34 BR1  UNL     1      34.762  14.633  -1.859  1.00  0.00    -0.065 Br
BRANCH  32  35
HETATM   35  C21 UNL     1      36.060  14.100  -4.242  1.00  0.00     0.212 C 
HETATM   36 CL2  UNL     1      36.725  12.479  -4.405  1.00  0.00    -0.105 Cl
HETATM   37 CL3  UNL     1      34.314  14.043  -4.482  1.00  0.00    -0.105 Cl
ENDBRANCH  32  35
ENDBRANCH  31  32
ENDBRANCH  30  31
ENDBRANCH  29  30
ENDBRANCH  28  29
ENDBRANCH  27  28
ENDBRANCH  26  27
ENDBRANCH  25  26
ENDBRANCH  24  25
ENDBRANCH  23  24
ENDBRANCH  22  23
ENDBRANCH  21  22
ENDBRANCH  20  21
ENDBRANCH   1  20
TORSDOF 15
ENDMDL
MODEL 3
REMARK VINA RESULT: -8.480238452      5.129      8.185
REMARK  15 active torsions:
REMARK  status: ('A' for Active; 'I' for Inactive)
REMARK    1  A    between atoms: C7_14  and  N5_15 
REMARK    2  A    between atoms: N5_15  and  C8_16 
REMARK    3  A    between atoms: C8_16  and  C9_17 
REMARK    4  A    between atoms: C9_17  and  C10_18 
REMARK    5  A    between atoms: C10_18  and  C11_19 
REMARK    6  A    between atoms: C11_19  and  C12_20 
REMARK    7  A    between atoms: C12_20  and  C13_21 
REMARK    8  A    between atoms: C13_21  and  C14_22 
REMARK    9  A    between atoms: C14_22  and  C15_23 
REMARK   10  A    between atoms: C15_23  and  C16_24 
REMARK   11  A    between atoms: C16_24  and  C17_25 
REMARK   12  A    between atoms: C17_25  and  C18_26 
REMARK   13  A    between atoms: C18_26  and  C19_27 
REMARK   14  A    between atoms: C19_27  and  C20_28 
REMARK   15  A    between atoms: C20_28  and  C21_31 
ROOT
HETATM    1  N5  UNL     1      42.322  18.749  -4.212  1.00  0.00    -0.428 NA
ENDROOT
BRANCH   1   2
HETATM    2  C7  UNL     1      43.465  18.508  -3.993  1.00  0.00     0.205 A 
HETATM    3  N4  UNL     1      44.402  19.323  -3.431  1.00  0.00    -0.272 N 
HETATM    4  N3  UNL     1      45.546  18.698  -3.356  1.00  0.00    -0.282 N 
ATOM      5  H4  UNL     1      44.234  20.279  -3.115  1.00  0.00     0.189 HD
HETATM    6  C6  UNL     1      45.439  17.451  -3.854  1.00  0.00     0.145 A 
ATOM      7  H3  UNL     1      46.402  19.099  -2.973  1.00  0.00     0.188 HD
HETATM    8  N2  UNL     1      46.369  16.377  -4.005  1.00  0.00    -0.287 N 
HETATM    9  C22 UNL     1      44.136  17.304  -4.264  1.00  0.00     0.113 A 
HETATM   10  C4  UNL     1      45.951  15.150  -4.580  1.00  0.00     0.331 A 
HETATM   11  C5  UNL     1      47.726  16.562  -3.566  1.00  0.00     0.163 C 
HETATM   12  N1  UNL     1      44.604  14.947  -5.023  1.00  0.00    -0.282 N 
HETATM   13  O1  UNL     1      46.764  14.199  -4.716  1.00  0.00    -0.246 OA
HETATM   14  C3  UNL     1      43.935  13.816  -5.631  1.00  0.00     0.160 A 
HETATM   15  C23 UNL     1      43.694  16.025  -4.865  1.00  0.00     0.127 A 
HETATM   16  C2  UNL     1      42.546  14.308  -5.823  1.00  0.00     0.097 A 
HETATM   17  C1  UNL     1      42.099  14.277  -7.268  1.00  0.00     0.034 C 
HETATM   18  N6  UNL     1      42.567  15.653  -5.310  1.00  0.00    -0.369 N 
ATOM     19  H6  UNL     1      41.745  16.256  -5.306  1.00  0.00     0.161 HD
ENDBRANCH   1   2
BRANCH   1  20
HETATM   20  C8  UNL     1      41.032  18.968  -4.460  1.00  0.00     0.220 C 
BRANCH  20  21
HETATM   21  C9  UNL     1      40.783  20.109  -5.450  1.00  0.00     0.033 C 
BRANCH  21  22
HETATM   22  C10 UNL     1      40.142  19.566  -6.701  1.00  0.00     0.002 C 
BRANCH  22  23
HETATM   23  C11 UNL     1      41.153  18.633  -7.361  1.00  0.00     0.000 C 
BRANCH  23  24
HETATM   24  C12 UNL     1      40.605  17.988  -8.588  1.00  0.00     0.000 C 
BRANCH  24  25
HETATM   25  C13 UNL     1      39.171  18.380  -8.853  1.00  0.00     0.000 C 
BRANCH  25  26
HETATM   26  C14 UNL     1      38.287  17.192  -8.740  1.00  0.00     0.000 C 
BRANCH  26  27
HETATM   27  C15 UNL     1      38.792  16.125  -7.825  1.00  0.00     0.000 C 
BRANCH  27  28
HETATM   28  C16 UNL     1      38.369  16.404  -6.379  1.00  0.00     0.000 C 
BRANCH  28  29
HETATM   29  C17 UNL     1      39.096  15.510  -5.401  1.00  0.00     0.000 C 
BRANCH  29  30
HETATM   30  C18 UNL     1      38.512  14.163  -5.338  1.00  0.00     0.003 C 
BRANCH  30  31
HETATM   31  C19 UNL     1      37.060  14.091  -5.039  1.00  0.00     0.040 C 
BRANCH  31  32
HETATM   32  C20 UNL     1      36.628  13.936  -3.635  1.00  0.00     0.124 C 
HETATM   33 CL1  UNL     1      35.370  12.648  -3.493  1.00  0.00    -0.104 Cl
HETATM   34 BR1  UNL     1      38.016  13.647  -2.379  1.00  0.00    -0.065 Br
BRANCH  32  35
HETATM   35  C21 UNL     1      35.876  15.210  -3.167  1.00  0.00     0.212 C 
HETATM   36 CL2  UNL     1      34.751  14.855  -1.861  1.00  0.00    -0.105 Cl
HETATM   37 CL3  UNL     1      37.039  16.419  -2.624  1.00  0.00    -0.105 Cl
ENDBRANCH  32  35
ENDBRANCH  31  32
ENDBRANCH  30  31
ENDBRANCH  29  30
ENDBRANCH  28  29
ENDBRANCH  27  28
ENDBRANCH  26  27
ENDBRANCH  25  26
ENDBRANCH  24  25
ENDBRANCH  23  24
ENDBRANCH  22  23
ENDBRANCH  21  22
ENDBRANCH  20  21
ENDBRANCH   1  20
TORSDOF 15
ENDMDL
MODEL 4
REMARK VINA RESULT: -8.434158859      1.093      1.470
REMARK  15 active torsions:
REMARK  status: ('A' for Active; 'I' for Inactive)
REMARK    1  A    between atoms: C7_14  and  N5_15 
REMARK    2  A    between atoms: N5_15  and  C8_16 
REMARK    3  A    between atoms: C8_16  and  C9_17 
REMARK    4  A    between atoms: C9_17  and  C10_18 
REMARK    5  A    between atoms: C10_18  and  C11_19 
REMARK    6  A    between atoms: C11_19  and  C12_20 
REMARK    7  A    between atoms: C12_20  and  C13_21 
REMARK    8  A    between atoms: C13_21  and  C14_22 
REMARK    9  A    between atoms: C14_22  and  C15_23 
REMARK   10  A    between atoms: C15_23  and  C16_24 
REMARK   11  A    between atoms: C16_24  and  C17_25 
REMARK   12  A    between atoms: C17_25  and  C18_26 
REMARK   13  A    between atoms: C18_26  and  C19_27 
REMARK   14  A    between atoms: C19_27  and  C20_28 
REMARK   15  A    between atoms: C20_28  and  C21_31 
ROOT
HETATM    1  N5  UNL     1      37.205  15.267  -4.570  1.00  0.00    -0.428 NA
ENDROOT
BRANCH   1   2
HETATM    2  C7  UNL     1      37.788  16.214  -4.150  1.00  0.00     0.205 A 
HETATM    3  N4  UNL     1      37.927  16.606  -2.851  1.00  0.00    -0.272 N 
HETATM    4  N3  UNL     1      38.640  17.698  -2.792  1.00  0.00    -0.282 N 
ATOM      5  H4  UNL     1      37.534  16.118  -2.047  1.00  0.00     0.189 HD
HETATM    6  C6  UNL     1      39.012  18.091  -4.026  1.00  0.00     0.145 A 
ATOM      7  H3  UNL     1      38.882  18.187  -1.930  1.00  0.00     0.188 HD
HETATM    8  N2  UNL     1      39.782  19.193  -4.510  1.00  0.00    -0.287 N 
HETATM    9  C22 UNL     1      38.488  17.172  -4.903  1.00  0.00     0.113 A 
HETATM   10  C4  UNL     1      40.011  19.344  -5.902  1.00  0.00     0.331 A 
HETATM   11  C5  UNL     1      40.317  20.137  -3.567  1.00  0.00     0.163 C 
HETATM   12  N1  UNL     1      39.485  18.414  -6.856  1.00  0.00    -0.282 N 
HETATM   13  O1  UNL     1      40.688  20.312  -6.336  1.00  0.00    -0.246 OA
HETATM   14  C3  UNL     1      39.570  18.341  -8.300  1.00  0.00     0.160 A 
HETATM   15  C23 UNL     1      38.723  17.325  -6.357  1.00  0.00     0.127 A 
HETATM   16  C2  UNL     1      38.794  17.116  -8.623  1.00  0.00     0.097 A 
HETATM   17  C1  UNL     1      37.624  17.380  -9.545  1.00  0.00     0.034 C 
HETATM   18  N6  UNL     1      38.353  16.623  -7.345  1.00  0.00    -0.369 N 
ATOM     19  H6  UNL     1      37.790  15.779  -7.243  1.00  0.00     0.161 HD
ENDBRANCH   1   2
BRANCH   1  20
HETATM   20  C8  UNL     1      36.586  14.205  -5.079  1.00  0.00     0.220 C 
BRANCH  20  21
HETATM   21  C9  UNL     1      37.011  12.881  -4.438  1.00  0.00     0.033 C 
BRANCH  21  22
HETATM   22  C10 UNL     1      38.491  12.904  -4.156  1.00  0.00     0.002 C 
BRANCH  22  23
HETATM   23  C11 UNL     1      39.201  13.151  -5.484  1.00  0.00     0.000 C 
BRANCH  23  24
HETATM   24  C12 UNL     1      40.387  14.043  -5.330  1.00  0.00     0.000 C 
BRANCH  24  25
HETATM   25  C13 UNL     1      41.043  14.362  -6.651  1.00  0.00     0.000 C 
BRANCH  25  26
HETATM   26  C14 UNL     1      41.861  15.596  -6.531  1.00  0.00     0.000 C 
BRANCH  26  27
HETATM   27  C15 UNL     1      42.670  15.686  -5.279  1.00  0.00     0.000 C 
BRANCH  27  28
HETATM   28  C16 UNL     1      43.540  14.438  -5.102  1.00  0.00     0.000 C 
BRANCH  28  29
HETATM   29  C17 UNL     1      45.013  14.774  -5.129  1.00  0.00     0.000 C 
BRANCH  29  30
HETATM   30  C18 UNL     1      45.360  15.832  -4.169  1.00  0.00     0.003 C 
BRANCH  30  31
HETATM   31  C19 UNL     1      46.704  15.740  -3.547  1.00  0.00     0.040 C 
BRANCH  31  32
HETATM   32  C20 UNL     1      47.691  16.803  -3.825  1.00  0.00     0.124 C 
HETATM   33 CL1  UNL     1      48.852  16.276  -5.103  1.00  0.00    -0.104 Cl
HETATM   34 BR1  UNL     1      46.969  18.503  -4.246  1.00  0.00    -0.065 Br
BRANCH  32  35
HETATM   35  C21 UNL     1      48.607  17.013  -2.590  1.00  0.00     0.212 C 
HETATM   36 CL2  UNL     1      50.263  16.519  -2.919  1.00  0.00    -0.105 Cl
HETATM   37 CL3  UNL     1      48.587  18.713  -2.120  1.00  0.00    -0.105 Cl
ENDBRANCH  32  35
ENDBRANCH  31  32
ENDBRANCH  30  31
ENDBRANCH  29  30
ENDBRANCH  28  29
ENDBRANCH  27  28
ENDBRANCH  26  27
ENDBRANCH  25  26
ENDBRANCH  24  25
ENDBRANCH  23  24
ENDBRANCH  22  23
ENDBRANCH  21  22
ENDBRANCH  20  21
ENDBRANCH   1  20
TORSDOF 15
ENDMDL
MODEL 5
REMARK VINA RESULT: -8.179638375      5.214      8.292
REMARK  15 active torsions:
REMARK  status: ('A' for Active; 'I' for Inactive)
REMARK    1  A    between atoms: C7_14  and  N5_15 
REMARK    2  A    between atoms: N5_15  and  C8_16 
REMARK    3  A    between atoms: C8_16  and  C9_17 
REMARK    4  A    between atoms: C9_17  and  C10_18 
REMARK    5  A    between atoms: C10_18  and  C11_19 
REMARK    6  A    between atoms: C11_19  and  C12_20 
REMARK    7  A    between atoms: C12_20  and  C13_21 
REMARK    8  A    between atoms: C13_21  and  C14_22 
REMARK    9  A    between atoms: C14_22  and  C15_23 
REMARK   10  A    between atoms: C15_23  and  C16_24 
REMARK   11  A    between atoms: C16_24  and  C17_25 
REMARK   12  A    between atoms: C17_25  and  C18_26 
REMARK   13  A    between atoms: C18_26  and  C19_27 
REMARK   14  A    between atoms: C19_27  and  C20_28 
REMARK   15  A    between atoms: C20_28  and  C21_31 
ROOT
HETATM    1  N5  UNL     1      42.308  18.660  -4.251  1.00  0.00    -0.428 NA
ENDROOT
BRANCH   1   2
HETATM    2  C7  UNL     1      43.455  18.454  -4.015  1.00  0.00     0.205 A 
HETATM    3  N4  UNL     1      44.360  19.299  -3.446  1.00  0.00    -0.272 N 
HETATM    4  N3  UNL     1      45.521  18.708  -3.353  1.00  0.00    -0.282 N 
ATOM      5  H4  UNL     1      44.161  20.251  -3.139  1.00  0.00     0.189 HD
HETATM    6  C6  UNL     1      45.457  17.456  -3.845  1.00  0.00     0.145 A 
ATOM      7  H3  UNL     1      46.360  19.135  -2.962  1.00  0.00     0.188 HD
HETATM    8  N2  UNL     1      46.419  16.408  -3.978  1.00  0.00    -0.287 N 
HETATM    9  C22 UNL     1      44.164  17.268  -4.270  1.00  0.00     0.113 A 
HETATM   10  C4  UNL     1      46.044  15.165  -4.550  1.00  0.00     0.331 A 
HETATM   11  C5  UNL     1      47.765  16.634  -3.523  1.00  0.00     0.163 C 
HETATM   12  N1  UNL     1      44.709  14.921  -5.009  1.00  0.00    -0.282 N 
HETATM   13  O1  UNL     1      46.885  14.238  -4.671  1.00  0.00    -0.246 OA
HETATM   14  C3  UNL     1      44.080  13.768  -5.618  1.00  0.00     0.160 A 
HETATM   15  C23 UNL     1      43.766  15.974  -4.869  1.00  0.00     0.127 A 
HETATM   16  C2  UNL     1      42.681  14.218  -5.831  1.00  0.00     0.097 A 
HETATM   17  C1  UNL     1      42.253  14.167  -7.281  1.00  0.00     0.034 C 
HETATM   18  N6  UNL     1      42.657  15.566  -5.326  1.00  0.00    -0.369 N 
ATOM     19  H6  UNL     1      41.817  16.145  -5.336  1.00  0.00     0.161 HD
ENDBRANCH   1   2
BRANCH   1  20
HETATM   20  C8  UNL     1      41.019  18.843  -4.529  1.00  0.00     0.220 C 
BRANCH  20  21
HETATM   21  C9  UNL     1      40.700  20.240  -5.067  1.00  0.00     0.033 C 
BRANCH  21  22
HETATM   22  C10 UNL     1      40.310  20.151  -6.520  1.00  0.00     0.002 C 
BRANCH  22  23
HETATM   23  C11 UNL     1      40.641  18.737  -6.991  1.00  0.00     0.000 C 
BRANCH  23  24
HETATM   24  C12 UNL     1      40.525  18.597  -8.471  1.00  0.00     0.000 C 
BRANCH  24  25
HETATM   25  C13 UNL     1      39.239  17.925  -8.886  1.00  0.00     0.000 C 
BRANCH  25  26
HETATM   26  C14 UNL     1      38.626  17.233  -7.724  1.00  0.00     0.000 C 
BRANCH  26  27
HETATM   27  C15 UNL     1      38.957  15.780  -7.619  1.00  0.00     0.000 C 
BRANCH  27  28
HETATM   28  C16 UNL     1      39.062  15.351  -6.153  1.00  0.00     0.000 C 
BRANCH  28  29
HETATM   29  C17 UNL     1      38.887  13.858  -5.993  1.00  0.00     0.000 C 
BRANCH  29  30
HETATM   30  C18 UNL     1      37.727  13.521  -5.156  1.00  0.00     0.003 C 
BRANCH  30  31
HETATM   31  C19 UNL     1      36.812  14.640  -4.820  1.00  0.00     0.040 C 
BRANCH  31  32
HETATM   32  C20 UNL     1      36.629  15.008  -3.401  1.00  0.00     0.124 C 
HETATM   33 CL1  UNL     1      37.116  13.646  -2.320  1.00  0.00    -0.104 Cl
HETATM   34 BR1  UNL     1      37.468  16.617  -2.857  1.00  0.00    -0.065 Br
BRANCH  32  35
HETATM   35  C21 UNL     1      35.119  15.178  -3.087  1.00  0.00     0.212 C 
HETATM   36 CL2  UNL     1      34.113  14.378  -4.290  1.00  0.00    -0.105 Cl
HETATM   37 CL3  UNL     1      34.766  14.510  -1.494  1.00  0.00    -0.105 Cl
ENDBRANCH  32  35
ENDBRANCH  31  32
ENDBRANCH  30  31
ENDBRANCH  29  30
ENDBRANCH  28  29
ENDBRANCH  27  28
ENDBRANCH  26  27
ENDBRANCH  25  26
ENDBRANCH  24  25
ENDBRANCH  23  24
ENDBRANCH  22  23
ENDBRANCH  21  22
ENDBRANCH  20  21
ENDBRANCH   1  20
TORSDOF 15
ENDMDL
