MODEL 1
REMARK VINA RESULT: -8.730146325      0.000      0.000
REMARK  10 active torsions:
REMARK  status: ('A' for Active; 'I' for Inactive)
REMARK    1  A    between atoms: C2_2  and  C3_3 
REMARK    2  A    between atoms: C3_3  and  C4_4 
REMARK    3  A    between atoms: C3_3  and  C24_34 
REMARK    4  A    between atoms: N1_6  and  C6_7 
REMARK    5  A    between atoms: C6_7  and  O1_8 
REMARK    6  A    between atoms: C6_7  and  C7_10 
REMARK    7  A    between atoms: C7_10  and  C8_11 
REMARK    8  A    between atoms: N2_23  and  C16_24 
REMARK    9  A    between atoms: C16_24  and  C17_25 
REMARK   10  A    between atoms: C17_25  and  C18_26 
ROOT
HETATM    1  C4  UNL     1       8.570 -13.928  17.507  1.00  0.00    -0.009 A 
HETATM    2  C5  UNL     1       9.874 -14.204  17.403  1.00  0.00     0.104 A 
HETATM    3  N1  UNL     1      10.147 -15.551  17.499  1.00  0.00    -0.319 N 
HETATM    4  C14 UNL     1       8.909 -16.116  17.674  1.00  0.00     0.133 A 
HETATM    5  C15 UNL     1       8.460 -17.403  17.841  1.00  0.00     0.278 A 
HETATM    6  O2  UNL     1       9.288 -18.334  17.861  1.00  0.00    -0.265 OA
HETATM    7  N2  UNL     1       7.139 -17.713  17.995  1.00  0.00    -0.302 N 
HETATM    8  C21 UNL     1       6.207 -16.728  17.993  1.00  0.00     0.082 A 
HETATM    9  C22 UNL     1       4.741 -16.976  18.140  1.00  0.00     0.089 C 
HETATM   10  N3  UNL     1       6.645 -15.470  17.835  1.00  0.00    -0.344 N 
ATOM     11  H3  UNL     1       5.953 -14.721  17.832  1.00  0.00     0.167 HD
HETATM   12  C23 UNL     1       7.933 -15.134  17.680  1.00  0.00     0.074 A 
ENDROOT
BRANCH   3  13
HETATM   13  C6  UNL     1      11.419 -16.195  17.457  1.00  0.00     0.249 C 
BRANCH  13  14
HETATM   14  O1  UNL     1      11.475 -17.079  16.326  1.00  0.00    -0.373 OA
ATOM     15  H1  UNL     1      12.305 -16.970  15.877  1.00  0.00     0.212 HD
ENDBRANCH  13  14
BRANCH  13  16
HETATM   16  C7  UNL     1      12.669 -15.488  17.633  1.00  0.00     0.041 C 
BRANCH  16  17
HETATM   17  C8  UNL     1      13.840 -16.095  18.268  1.00  0.00     0.006 A 
HETATM   18  C9  UNL     1      13.885 -17.263  18.944  1.00  0.00     0.059 A 
HETATM   19  C10 UNL     1      15.035 -17.807  19.518  1.00  0.00     0.155 A 
HETATM   20  F1  UNL     1      15.016 -18.972  20.188  1.00  0.00    -0.203 F 
HETATM   21  C11 UNL     1      16.205 -17.107  19.381  1.00  0.00     0.157 A 
HETATM   22  F2  UNL     1      17.356 -17.586  19.918  1.00  0.00    -0.203 F 
HETATM   23  C12 UNL     1      16.214 -15.901  18.692  1.00  0.00     0.088 A 
HETATM   24  C13 UNL     1      15.076 -15.397  18.147  1.00  0.00     0.129 A 
HETATM   25  F3  UNL     1      15.105 -14.231  17.482  1.00  0.00    -0.205 F 
ENDBRANCH  16  17
ENDBRANCH  13  16
ENDBRANCH   3  13
BRANCH   1  26
HETATM   26  C3  UNL     1       7.881 -12.629  17.463  1.00  0.00     0.026 C 
BRANCH  26  27
HETATM   27  C2  UNL     1       7.214 -12.339  16.137  1.00  0.00     0.005 C 
HETATM   28  C1  UNL     1       5.725 -12.476  16.165  1.00  0.00     0.006 C 
ENDBRANCH  26  27
BRANCH  26  29
HETATM   29  C24 UNL     1       8.823 -11.491  17.838  1.00  0.00    -0.006 A 
HETATM   30  C25 UNL     1       8.225 -10.122  17.741  1.00  0.00     0.005 A 
HETATM   31  C26 UNL     1       8.530 -10.657  19.072  1.00  0.00     0.005 A 
ENDBRANCH  26  29
ENDBRANCH   1  26
BRANCH   7  32
HETATM   32  C16 UNL     1       6.684 -19.065  18.120  1.00  0.00     0.134 C 
BRANCH  32  33
HETATM   33  C17 UNL     1       6.623 -19.711  19.423  1.00  0.00     0.024 C 
BRANCH  33  34
HETATM   34  C18 UNL     1       7.638 -20.605  19.968  1.00  0.00    -0.021 C 
HETATM   35  C19 UNL     1       7.356 -21.278  21.277  1.00  0.00     0.009 C 
HETATM   36  C20 UNL     1       8.150 -21.648  18.991  1.00  0.00     0.009 C 
ENDBRANCH  33  34
ENDBRANCH  32  33
ENDBRANCH   7  32
TORSDOF 10
ENDMDL
MODEL 2
REMARK VINA RESULT: -8.498515491      8.652     13.708
REMARK  10 active torsions:
REMARK  status: ('A' for Active; 'I' for Inactive)
REMARK    1  A    between atoms: C2_2  and  C3_3 
REMARK    2  A    between atoms: C3_3  and  C4_4 
REMARK    3  A    between atoms: C3_3  and  C24_34 
REMARK    4  A    between atoms: N1_6  and  C6_7 
REMARK    5  A    between atoms: C6_7  and  O1_8 
REMARK    6  A    between atoms: C6_7  and  C7_10 
REMARK    7  A    between atoms: C7_10  and  C8_11 
REMARK    8  A    between atoms: N2_23  and  C16_24 
REMARK    9  A    between atoms: C16_24  and  C17_25 
REMARK   10  A    between atoms: C17_25  and  C18_26 
ROOT
HETATM    1  C4  UNL     1      22.843 -18.641  18.532  1.00  0.00    -0.009 A 
HETATM    2  C5  UNL     1      23.619 -17.556  18.451  1.00  0.00     0.104 A 
HETATM    3  N1  UNL     1      22.921 -16.382  18.633  1.00  0.00    -0.319 N 
HETATM    4  C14 UNL     1      21.632 -16.806  18.836  1.00  0.00     0.133 A 
HETATM    5  C15 UNL     1      20.441 -16.164  19.074  1.00  0.00     0.278 A 
HETATM    6  O2  UNL     1      20.424 -14.920  19.122  1.00  0.00    -0.265 OA
HETATM    7  N2  UNL     1      19.263 -16.832  19.252  1.00  0.00    -0.302 N 
HETATM    8  C21 UNL     1      19.236 -18.186  19.193  1.00  0.00     0.082 A 
HETATM    9  C22 UNL     1      17.996 -18.998  19.390  1.00  0.00     0.089 C 
HETATM   10  N3  UNL     1      20.398 -18.813  18.957  1.00  0.00    -0.344 N 
ATOM     11  H3  UNL     1      20.389 -19.832  18.910  1.00  0.00     0.167 HD
HETATM   12  C23 UNL     1      21.570 -18.188  18.780  1.00  0.00     0.074 A 
ENDROOT
BRANCH   3  13
HETATM   13  C6  UNL     1      23.421 -15.047  18.587  1.00  0.00     0.249 C 
BRANCH  13  14
HETATM   14  O1  UNL     1      23.313 -14.447  19.888  1.00  0.00    -0.373 OA
ATOM     15  H1  UNL     1      22.710 -13.714  19.852  1.00  0.00     0.212 HD
ENDBRANCH  13  14
BRANCH  13  16
HETATM   16  C7  UNL     1      24.668 -14.691  17.945  1.00  0.00     0.041 C 
BRANCH  16  17
HETATM   17  C8  UNL     1      25.956 -14.735  18.639  1.00  0.00     0.006 A 
HETATM   18  C9  UNL     1      26.675 -15.835  18.951  1.00  0.00     0.059 A 
HETATM   19  C10 UNL     1      27.910 -15.822  19.601  1.00  0.00     0.155 A 
HETATM   20  F1  UNL     1      28.577 -16.952  19.891  1.00  0.00    -0.203 F 
HETATM   21  C11 UNL     1      28.433 -14.602  19.943  1.00  0.00     0.157 A 
HETATM   22  F2  UNL     1      29.631 -14.525  20.577  1.00  0.00    -0.203 F 
HETATM   23  C12 UNL     1      27.735 -13.439  19.643  1.00  0.00     0.088 A 
HETATM   24  C13 UNL     1      26.534 -13.487  19.011  1.00  0.00     0.129 A 
HETATM   25  F3  UNL     1      25.874 -12.352  18.728  1.00  0.00    -0.205 F 
ENDBRANCH  16  17
ENDBRANCH  13  16
ENDBRANCH   3  13
BRANCH   1  26
HETATM   26  C3  UNL     1      23.201 -20.061  18.391  1.00  0.00     0.026 C 
BRANCH  26  27
HETATM   27  C2  UNL     1      24.120 -20.567  19.480  1.00  0.00     0.005 C 
HETATM   28  C1  UNL     1      25.552 -20.172  19.297  1.00  0.00     0.006 C 
ENDBRANCH  26  27
BRANCH  26  29
HETATM   29  C24 UNL     1      23.803 -20.346  17.020  1.00  0.00    -0.006 A 
HETATM   30  C25 UNL     1      23.116 -19.665  15.878  1.00  0.00     0.005 A 
HETATM   31  C26 UNL     1      24.463 -19.219  16.248  1.00  0.00     0.005 A 
ENDBRANCH  26  29
ENDBRANCH   1  26
BRANCH   7  32
HETATM   32  C16 UNL     1      18.038 -16.150  19.545  1.00  0.00     0.134 C 
BRANCH  32  33
HETATM   33  C17 UNL     1      17.125 -15.770  18.478  1.00  0.00     0.024 C 
BRANCH  33  34
HETATM   34  C18 UNL     1      15.670 -15.772  18.573  1.00  0.00    -0.021 C 
HETATM   35  C19 UNL     1      14.922 -14.616  17.982  1.00  0.00     0.009 C 
HETATM   36  C20 UNL     1      15.009 -17.058  18.111  1.00  0.00     0.009 C 
ENDBRANCH  33  34
ENDBRANCH  32  33
ENDBRANCH   7  32
TORSDOF 10
ENDMDL
MODEL 3
REMARK VINA RESULT: -8.278733498      0.700      1.378
REMARK  10 active torsions:
REMARK  status: ('A' for Active; 'I' for Inactive)
REMARK    1  A    between atoms: C2_2  and  C3_3 
REMARK    2  A    between atoms: C3_3  and  C4_4 
REMARK    3  A    between atoms: C3_3  and  C24_34 
REMARK    4  A    between atoms: N1_6  and  C6_7 
REMARK    5  A    between atoms: C6_7  and  O1_8 
REMARK    6  A    between atoms: C6_7  and  C7_10 
REMARK    7  A    between atoms: C7_10  and  C8_11 
REMARK    8  A    between atoms: N2_23  and  C16_24 
REMARK    9  A    between atoms: C16_24  and  C17_25 
REMARK   10  A    between atoms: C17_25  and  C18_26 
ROOT
HETATM    1  C4  UNL     1       8.649 -13.914  17.501  1.00  0.00    -0.009 A 
HETATM    2  C5  UNL     1       9.961 -14.153  17.412  1.00  0.00     0.104 A 
HETATM    3  N1  UNL     1      10.270 -15.492  17.509  1.00  0.00    -0.319 N 
HETATM    4  C14 UNL     1       9.047 -16.091  17.669  1.00  0.00     0.133 A 
HETATM    5  C15 UNL     1       8.632 -17.391  17.828  1.00  0.00     0.278 A 
HETATM    6  O2  UNL     1       9.484 -18.299  17.858  1.00  0.00    -0.265 OA
HETATM    7  N2  UNL     1       7.318 -17.738  17.966  1.00  0.00    -0.302 N 
HETATM    8  C21 UNL     1       6.359 -16.779  17.954  1.00  0.00     0.082 A 
HETATM    9  C22 UNL     1       4.899 -17.068  18.083  1.00  0.00     0.089 C 
HETATM   10  N3  UNL     1       6.764 -15.509  17.803  1.00  0.00    -0.344 N 
ATOM     11  H3  UNL     1       6.051 -14.779  17.793  1.00  0.00     0.167 HD
HETATM   12  C23 UNL     1       8.043 -15.136  17.664  1.00  0.00     0.074 A 
ENDROOT
BRANCH   3  13
HETATM   13  C6  UNL     1      11.560 -16.100  17.482  1.00  0.00     0.249 C 
BRANCH  13  14
HETATM   14  O1  UNL     1      11.647 -16.997  16.363  1.00  0.00    -0.373 OA
ATOM     15  H1  UNL     1      10.946 -16.809  15.749  1.00  0.00     0.212 HD
ENDBRANCH  13  14
BRANCH  13  16
HETATM   16  C7  UNL     1      12.789 -15.356  17.655  1.00  0.00     0.041 C 
BRANCH  16  17
HETATM   17  C8  UNL     1      14.007 -15.954  18.205  1.00  0.00     0.006 A 
HETATM   18  C9  UNL     1      15.278 -15.549  17.996  1.00  0.00     0.059 A 
HETATM   19  C10 UNL     1      16.407 -16.146  18.559  1.00  0.00     0.155 A 
HETATM   20  F1  UNL     1      17.650 -15.701  18.309  1.00  0.00    -0.203 F 
HETATM   21  C11 UNL     1      16.210 -17.221  19.387  1.00  0.00     0.157 A 
HETATM   22  F2  UNL     1      17.269 -17.844  19.964  1.00  0.00    -0.203 F 
HETATM   23  C12 UNL     1      14.921 -17.677  19.635  1.00  0.00     0.088 A 
HETATM   24  C13 UNL     1      13.844 -17.074  19.070  1.00  0.00     0.129 A 
HETATM   25  F3  UNL     1      12.606 -17.528  19.324  1.00  0.00    -0.205 F 
ENDBRANCH  16  17
ENDBRANCH  13  16
ENDBRANCH   3  13
BRANCH   1  26
HETATM   26  C3  UNL     1       7.925 -12.634  17.450  1.00  0.00     0.026 C 
BRANCH  26  27
HETATM   27  C2  UNL     1       7.265 -12.362  16.117  1.00  0.00     0.005 C 
HETATM   28  C1  UNL     1       5.777 -12.516  16.135  1.00  0.00     0.006 C 
ENDBRANCH  26  27
BRANCH  26  29
HETATM   29  C24 UNL     1       8.831 -11.470  17.836  1.00  0.00    -0.006 A 
HETATM   30  C25 UNL     1       8.195 -10.119  17.735  1.00  0.00     0.005 A 
HETATM   31  C26 UNL     1       8.502 -10.647  19.068  1.00  0.00     0.005 A 
ENDBRANCH  26  29
ENDBRANCH   1  26
BRANCH   7  32
HETATM   32  C16 UNL     1       6.899 -19.101  18.085  1.00  0.00     0.134 C 
BRANCH  32  33
HETATM   33  C17 UNL     1       6.756 -19.725  19.392  1.00  0.00     0.024 C 
BRANCH  33  34
HETATM   34  C18 UNL     1       7.731 -20.616  20.011  1.00  0.00    -0.021 C 
HETATM   35  C19 UNL     1       7.390 -21.221  21.339  1.00  0.00     0.009 C 
HETATM   36  C20 UNL     1       8.249 -21.715  19.100  1.00  0.00     0.009 C 
ENDBRANCH  33  34
ENDBRANCH  32  33
ENDBRANCH   7  32
TORSDOF 10
ENDMDL
MODEL 4
REMARK VINA RESULT: -8.238216973      0.780      1.214
REMARK  10 active torsions:
REMARK  status: ('A' for Active; 'I' for Inactive)
REMARK    1  A    between atoms: C2_2  and  C3_3 
REMARK    2  A    between atoms: C3_3  and  C4_4 
REMARK    3  A    between atoms: C3_3  and  C24_34 
REMARK    4  A    between atoms: N1_6  and  C6_7 
REMARK    5  A    between atoms: C6_7  and  O1_8 
REMARK    6  A    between atoms: C6_7  and  C7_10 
REMARK    7  A    between atoms: C7_10  and  C8_11 
REMARK    8  A    between atoms: N2_23  and  C16_24 
REMARK    9  A    between atoms: C16_24  and  C17_25 
REMARK   10  A    between atoms: C17_25  and  C18_26 
ROOT
HETATM    1  C4  UNL     1       8.596 -13.891  17.458  1.00  0.00    -0.009 A 
HETATM    2  C5  UNL     1       9.899 -14.168  17.361  1.00  0.00     0.104 A 
HETATM    3  N1  UNL     1      10.173 -15.512  17.491  1.00  0.00    -0.319 N 
HETATM    4  C14 UNL     1       8.936 -16.073  17.680  1.00  0.00     0.133 A 
HETATM    5  C15 UNL     1       8.488 -17.356  17.879  1.00  0.00     0.278 A 
HETATM    6  O2  UNL     1       9.316 -18.286  17.923  1.00  0.00    -0.265 OA
HETATM    7  N2  UNL     1       7.167 -17.663  18.040  1.00  0.00    -0.302 N 
HETATM    8  C21 UNL     1       6.234 -16.679  18.012  1.00  0.00     0.082 A 
HETATM    9  C22 UNL     1       4.768 -16.925  18.165  1.00  0.00     0.089 C 
HETATM   10  N3  UNL     1       6.671 -15.425  17.823  1.00  0.00    -0.344 N 
ATOM     11  H3  UNL     1       5.979 -14.677  17.801  1.00  0.00     0.167 HD
HETATM   12  C23 UNL     1       7.959 -15.092  17.660  1.00  0.00     0.074 A 
ENDROOT
BRANCH   3  13
HETATM   13  C6  UNL     1      11.446 -16.156  17.467  1.00  0.00     0.249 C 
BRANCH  13  14
HETATM   14  O1  UNL     1      11.523 -17.028  16.327  1.00  0.00    -0.373 OA
ATOM     15  H1  UNL     1      11.351 -16.533  15.535  1.00  0.00     0.212 HD
ENDBRANCH  13  14
BRANCH  13  16
HETATM   16  C7  UNL     1      12.693 -15.451  17.674  1.00  0.00     0.041 C 
BRANCH  16  17
HETATM   17  C8  UNL     1      13.871 -16.084  18.270  1.00  0.00     0.006 A 
HETATM   18  C9  UNL     1      13.914 -17.257  18.938  1.00  0.00     0.059 A 
HETATM   19  C10 UNL     1      15.070 -17.826  19.474  1.00  0.00     0.155 A 
HETATM   20  F1  UNL     1      15.051 -18.995  20.136  1.00  0.00    -0.203 F 
HETATM   21  C11 UNL     1      16.249 -17.146  19.306  1.00  0.00     0.157 A 
HETATM   22  F2  UNL     1      17.406 -17.649  19.805  1.00  0.00    -0.203 F 
HETATM   23  C12 UNL     1      16.259 -15.935  18.624  1.00  0.00     0.088 A 
HETATM   24  C13 UNL     1      15.115 -15.408  18.117  1.00  0.00     0.129 A 
HETATM   25  F3  UNL     1      15.146 -14.237  17.459  1.00  0.00    -0.205 F 
ENDBRANCH  16  17
ENDBRANCH  13  16
ENDBRANCH   3  13
BRANCH   1  26
HETATM   26  C3  UNL     1       7.906 -12.593  17.380  1.00  0.00     0.026 C 
BRANCH  26  27
HETATM   27  C2  UNL     1       7.266 -12.324  16.037  1.00  0.00     0.005 C 
HETATM   28  C1  UNL     1       5.776 -12.455  16.038  1.00  0.00     0.006 C 
ENDBRANCH  26  27
BRANCH  26  29
HETATM   29  C24 UNL     1       8.838 -11.448  17.758  1.00  0.00    -0.006 A 
HETATM   30  C25 UNL     1       8.230 -10.084  17.658  1.00  0.00     0.005 A 
HETATM   31  C26 UNL     1       8.535 -10.616  18.990  1.00  0.00     0.005 A 
ENDBRANCH  26  29
ENDBRANCH   1  26
BRANCH   7  32
HETATM   32  C16 UNL     1       6.712 -19.011  18.199  1.00  0.00     0.134 C 
BRANCH  32  33
HETATM   33  C17 UNL     1       6.559 -19.886  17.046  1.00  0.00     0.024 C 
BRANCH  33  34
HETATM   34  C18 UNL     1       7.403 -21.035  16.741  1.00  0.00    -0.021 C 
HETATM   35  C19 UNL     1       8.464 -20.873  15.696  1.00  0.00     0.009 C 
HETATM   36  C20 UNL     1       8.022 -21.702  17.956  1.00  0.00     0.009 C 
ENDBRANCH  33  34
ENDBRANCH  32  33
ENDBRANCH   7  32
TORSDOF 10
ENDMDL
MODEL 5
REMARK VINA RESULT: -7.985096640      0.579      1.377
REMARK  10 active torsions:
REMARK  status: ('A' for Active; 'I' for Inactive)
REMARK    1  A    between atoms: C2_2  and  C3_3 
REMARK    2  A    between atoms: C3_3  and  C4_4 
REMARK    3  A    between atoms: C3_3  and  C24_34 
REMARK    4  A    between atoms: N1_6  and  C6_7 
REMARK    5  A    between atoms: C6_7  and  O1_8 
REMARK    6  A    between atoms: C6_7  and  C7_10 
REMARK    7  A    between atoms: C7_10  and  C8_11 
REMARK    8  A    between atoms: N2_23  and  C16_24 
REMARK    9  A    between atoms: C16_24  and  C17_25 
REMARK   10  A    between atoms: C17_25  and  C18_26 
ROOT
HETATM    1  C4  UNL     1       9.092 -13.701  17.547  1.00  0.00    -0.009 A 
HETATM    2  C5  UNL     1      10.373 -14.068  17.454  1.00  0.00     0.104 A 
HETATM    3  N1  UNL     1      10.546 -15.434  17.514  1.00  0.00    -0.319 N 
HETATM    4  C14 UNL     1       9.268 -15.911  17.655  1.00  0.00     0.133 A 
HETATM    5  C15 UNL     1       8.723 -17.166  17.776  1.00  0.00     0.278 A 
HETATM    6  O2  UNL     1       9.480 -18.156  17.782  1.00  0.00    -0.265 OA
HETATM    7  N2  UNL     1       7.381 -17.383  17.901  1.00  0.00    -0.302 N 
HETATM    8  C21 UNL     1       6.523 -16.332  17.914  1.00  0.00     0.082 A 
HETATM    9  C22 UNL     1       5.040 -16.477  18.032  1.00  0.00     0.089 C 
HETATM   10  N3  UNL     1       7.054 -15.106  17.800  1.00  0.00    -0.344 N 
ATOM     11  H3  UNL     1       6.419 -14.308  17.809  1.00  0.00     0.167 HD
HETATM   12  C23 UNL     1       8.365 -14.860  17.674  1.00  0.00     0.074 A 
ENDROOT
BRANCH   3  13
HETATM   13  C6  UNL     1      11.769 -16.168  17.473  1.00  0.00     0.249 C 
BRANCH  13  14
HETATM   14  O1  UNL     1      11.779 -17.022  16.318  1.00  0.00    -0.373 OA
ATOM     15  H1  UNL     1      10.941 -17.464  16.241  1.00  0.00     0.212 HD
ENDBRANCH  13  14
BRANCH  13  16
HETATM   16  C7  UNL     1      13.064 -15.559  17.688  1.00  0.00     0.041 C 
BRANCH  16  17
HETATM   17  C8  UNL     1      14.174 -16.266  18.329  1.00  0.00     0.006 A 
HETATM   18  C9  UNL     1      14.120 -17.450  18.976  1.00  0.00     0.059 A 
HETATM   19  C10 UNL     1      15.215 -18.090  19.557  1.00  0.00     0.155 A 
HETATM   20  F1  UNL     1      15.099 -19.267  20.196  1.00  0.00    -0.203 F 
HETATM   21  C11 UNL     1      16.436 -17.474  19.460  1.00  0.00     0.157 A 
HETATM   22  F2  UNL     1      17.538 -18.049  20.006  1.00  0.00    -0.203 F 
HETATM   23  C12 UNL     1      16.546 -16.255  18.803  1.00  0.00     0.088 A 
HETATM   24  C13 UNL     1      15.460 -15.657  18.250  1.00  0.00     0.129 A 
HETATM   25  F3  UNL     1      15.587 -14.480  17.616  1.00  0.00    -0.205 F 
ENDBRANCH  16  17
ENDBRANCH  13  16
ENDBRANCH   3  13
BRANCH   1  26
HETATM   26  C3  UNL     1       8.500 -12.354  17.531  1.00  0.00     0.026 C 
BRANCH  26  27
HETATM   27  C2  UNL     1       8.315 -11.755  18.907  1.00  0.00     0.005 C 
HETATM   28  C1  UNL     1       8.643 -10.297  18.983  1.00  0.00     0.006 C 
ENDBRANCH  26  27
BRANCH  26  29
HETATM   29  C24 UNL     1       7.180 -12.339  16.769  1.00  0.00    -0.006 A 
HETATM   30  C25 UNL     1       6.831 -11.024  16.143  1.00  0.00     0.005 A 
HETATM   31  C26 UNL     1       7.192 -12.141  15.264  1.00  0.00     0.005 A 
ENDBRANCH  26  29
ENDBRANCH   1  26
BRANCH   7  32
HETATM   32  C16 UNL     1       6.826 -18.700  17.980  1.00  0.00     0.134 C 
BRANCH  32  33
HETATM   33  C17 UNL     1       6.682 -19.371  19.263  1.00  0.00     0.024 C 
BRANCH  33  34
HETATM   34  C18 UNL     1       7.580 -20.395  19.785  1.00  0.00    -0.021 C 
HETATM   35  C19 UNL     1       7.186 -21.104  21.044  1.00  0.00     0.009 C 
HETATM   36  C20 UNL     1       8.014 -21.432  18.765  1.00  0.00     0.009 C 
ENDBRANCH  33  34
ENDBRANCH  32  33
ENDBRANCH   7  32
TORSDOF 10
ENDMDL
