MODEL 1
REMARK VINA RESULT: -4.545679074      0.000      0.000
REMARK  4 active torsions:
REMARK  status: ('A' for Active; 'I' for Inactive)
REMARK    1  A    between atoms: O1_2  and  C2_3 
REMARK    2  A    between atoms: C2_3  and  C3_5 
REMARK    3  A    between atoms: C3_5  and  C4_6 
REMARK    4  A    between atoms: C4_6  and  N1_7 
ROOT
HETATM    1  C3  UNL     1     -60.036 -70.239  21.284  1.00  0.00     0.123 C 
HETATM    2  C9  UNL     1     -60.702 -71.608  21.302  1.00  0.00     0.043 C 
HETATM    3  C10 UNL     1     -62.142 -71.226  21.553  1.00  0.00     0.077 C 
HETATM    4  S1  UNL     1     -61.578 -69.603  22.075  1.00  0.00    -0.147 SA
ENDROOT
BRANCH   1   5
HETATM    5  C2  UNL     1     -58.944 -70.165  22.246  1.00  0.00     0.279 C 
HETATM    6  O2  UNL     1     -59.208 -69.878  23.450  1.00  0.00    -0.263 OA
BRANCH   5   7
HETATM    7  O1  UNL     1     -57.605 -70.380  21.977  1.00  0.00    -0.325 OA
HETATM    8  C1  UNL     1     -57.150 -71.575  21.368  1.00  0.00     0.213 C 
ENDBRANCH   5   7
ENDBRANCH   1   5
BRANCH   1   9
HETATM    9  C4  UNL     1     -59.921 -69.613  19.955  1.00  0.00     0.303 C 
BRANCH   9  10
HETATM   10  N1  UNL     1     -59.435 -68.300  19.810  1.00  0.00     0.094 N 
HETATM   11  C5  UNL     1     -60.265 -67.314  19.222  1.00  0.00     0.298 C 
HETATM   12  C6  UNL     1     -59.529 -66.546  18.101  1.00  0.00     0.198 C 
HETATM   13  O3  UNL     1     -58.329 -66.048  18.541  1.00  0.00    -0.388 OA
HETATM   14  C7  UNL     1     -57.485 -67.101  18.871  1.00  0.00     0.198 C 
HETATM   15  C8  UNL     1     -58.185 -68.398  19.051  1.00  0.00     0.298 C 
ENDBRANCH   9  10
ENDBRANCH   1   9
TORSDOF 4
ENDMDL
MODEL 2
REMARK VINA RESULT: -4.405625186      1.211      1.721
REMARK  4 active torsions:
REMARK  status: ('A' for Active; 'I' for Inactive)
REMARK    1  A    between atoms: O1_2  and  C2_3 
REMARK    2  A    between atoms: C2_3  and  C3_5 
REMARK    3  A    between atoms: C3_5  and  C4_6 
REMARK    4  A    between atoms: C4_6  and  N1_7 
ROOT
HETATM    1  C3  UNL     1     -59.382 -69.651  21.593  1.00  0.00     0.123 C 
HETATM    2  C9  UNL     1     -59.814 -70.679  20.558  1.00  0.00     0.043 C 
HETATM    3  C10 UNL     1     -61.304 -70.734  20.809  1.00  0.00     0.077 C 
HETATM    4  S1  UNL     1     -61.026 -69.923  22.387  1.00  0.00    -0.147 SA
ENDROOT
BRANCH   1   5
HETATM    5  C2  UNL     1     -58.341 -70.177  22.466  1.00  0.00     0.279 C 
HETATM    6  O2  UNL     1     -57.998 -69.507  23.483  1.00  0.00    -0.263 OA
BRANCH   5   7
HETATM    7  O1  UNL     1     -57.663 -71.371  22.298  1.00  0.00    -0.325 OA
HETATM    8  C1  UNL     1     -57.844 -72.462  23.183  1.00  0.00     0.213 C 
ENDBRANCH   5   7
ENDBRANCH   1   5
BRANCH   1   9
HETATM    9  C4  UNL     1     -59.339 -68.256  21.114  1.00  0.00     0.303 C 
BRANCH   9  10
HETATM   10  N1  UNL     1     -59.389 -67.958  19.741  1.00  0.00     0.094 N 
HETATM   11  C5  UNL     1     -58.314 -67.255  19.143  1.00  0.00     0.298 C 
HETATM   12  C6  UNL     1     -58.814 -66.053  18.311  1.00  0.00     0.198 C 
HETATM   13  O3  UNL     1     -59.775 -66.434  17.410  1.00  0.00    -0.388 OA
HETATM   14  C7  UNL     1     -60.895 -66.888  18.094  1.00  0.00     0.198 C 
HETATM   15  C8  UNL     1     -60.635 -67.219  19.518  1.00  0.00     0.298 C 
ENDBRANCH   9  10
ENDBRANCH   1   9
TORSDOF 4
ENDMDL
MODEL 3
REMARK VINA RESULT: -4.317669304      2.138      5.269
REMARK  4 active torsions:
REMARK  status: ('A' for Active; 'I' for Inactive)
REMARK    1  A    between atoms: O1_2  and  C2_3 
REMARK    2  A    between atoms: C2_3  and  C3_5 
REMARK    3  A    between atoms: C3_5  and  C4_6 
REMARK    4  A    between atoms: C4_6  and  N1_7 
ROOT
HETATM    1  C3  UNL     1     -59.414 -68.212  19.038  1.00  0.00     0.123 C 
HETATM    2  C9  UNL     1     -58.944 -68.292  17.593  1.00  0.00     0.043 C 
HETATM    3  C10 UNL     1     -57.472 -67.990  17.750  1.00  0.00     0.077 C 
HETATM    4  S1  UNL     1     -57.821 -67.350  19.392  1.00  0.00    -0.147 SA
ENDROOT
BRANCH   1   5
HETATM    5  C2  UNL     1     -60.510 -67.264  19.191  1.00  0.00     0.279 C 
HETATM    6  O2  UNL     1     -61.037 -67.116  20.332  1.00  0.00    -0.263 OA
BRANCH   5   7
HETATM    7  O1  UNL     1     -61.056 -66.481  18.190  1.00  0.00    -0.325 OA
HETATM    8  C1  UNL     1     -60.774 -65.096  18.089  1.00  0.00     0.213 C 
ENDBRANCH   5   7
ENDBRANCH   1   5
BRANCH   1   9
HETATM    9  C4  UNL     1     -59.407 -69.490  19.774  1.00  0.00     0.303 C 
BRANCH   9  10
HETATM   10  N1  UNL     1     -58.560 -69.686  20.879  1.00  0.00     0.094 N 
HETATM   11  C5  UNL     1     -57.711 -70.821  20.909  1.00  0.00     0.298 C 
HETATM   12  C6  UNL     1     -57.831 -71.585  22.247  1.00  0.00     0.198 C 
HETATM   13  O3  UNL     1     -57.651 -70.748  23.319  1.00  0.00    -0.388 OA
HETATM   14  C7  UNL     1     -58.673 -69.809  23.349  1.00  0.00     0.198 C 
HETATM   15  C8  UNL     1     -59.417 -69.690  22.069  1.00  0.00     0.298 C 
ENDBRANCH   9  10
ENDBRANCH   1   9
TORSDOF 4
ENDMDL
MODEL 4
REMARK VINA RESULT: -4.281833457      1.979      4.887
REMARK  4 active torsions:
REMARK  status: ('A' for Active; 'I' for Inactive)
REMARK    1  A    between atoms: O1_2  and  C2_3 
REMARK    2  A    between atoms: C2_3  and  C3_5 
REMARK    3  A    between atoms: C3_5  and  C4_6 
REMARK    4  A    between atoms: C4_6  and  N1_7 
ROOT
HETATM    1  C3  UNL     1     -59.370 -68.190  19.039  1.00  0.00     0.123 C 
HETATM    2  C9  UNL     1     -60.402 -67.075  18.953  1.00  0.00     0.043 C 
HETATM    3  C10 UNL     1     -61.325 -67.617  17.887  1.00  0.00     0.077 C 
HETATM    4  S1  UNL     1     -60.040 -68.783  17.425  1.00  0.00    -0.147 SA
ENDROOT
BRANCH   1   5
HETATM    5  C2  UNL     1     -58.019 -67.684  18.835  1.00  0.00     0.279 C 
HETATM    6  O2  UNL     1     -57.235 -68.322  18.074  1.00  0.00    -0.263 OA
BRANCH   5   7
HETATM    7  O1  UNL     1     -57.482 -66.542  19.401  1.00  0.00    -0.325 OA
HETATM    8  C1  UNL     1     -56.226 -66.029  18.996  1.00  0.00     0.213 C 
ENDBRANCH   5   7
ENDBRANCH   1   5
BRANCH   1   9
HETATM    9  C4  UNL     1     -59.647 -69.227  20.050  1.00  0.00     0.303 C 
BRANCH   9  10
HETATM   10  N1  UNL     1     -58.702 -69.545  21.042  1.00  0.00     0.094 N 
HETATM   11  C5  UNL     1     -57.871 -70.680  20.870  1.00  0.00     0.298 C 
HETATM   12  C6  UNL     1     -57.875 -71.582  22.125  1.00  0.00     0.198 C 
HETATM   13  O3  UNL     1     -57.582 -70.866  23.257  1.00  0.00    -0.388 OA
HETATM   14  C7  UNL     1     -58.583 -69.930  23.484  1.00  0.00     0.198 C 
HETATM   15  C8  UNL     1     -59.442 -69.672  22.301  1.00  0.00     0.298 C 
ENDBRANCH   9  10
ENDBRANCH   1   9
TORSDOF 4
ENDMDL
MODEL 5
REMARK VINA RESULT: -4.169956629      5.044      7.169
REMARK  4 active torsions:
REMARK  status: ('A' for Active; 'I' for Inactive)
REMARK    1  A    between atoms: O1_2  and  C2_3 
REMARK    2  A    between atoms: C2_3  and  C3_5 
REMARK    3  A    between atoms: C3_5  and  C4_6 
REMARK    4  A    between atoms: C4_6  and  N1_7 
ROOT
HETATM    1  C3  UNL     1     -55.990 -66.002  17.110  1.00  0.00     0.123 C 
HETATM    2  C9  UNL     1     -54.757 -66.888  16.999  1.00  0.00     0.043 C 
HETATM    3  C10 UNL     1     -55.162 -67.808  15.871  1.00  0.00     0.077 C 
HETATM    4  S1  UNL     1     -56.863 -67.283  16.109  1.00  0.00    -0.147 SA
ENDROOT
BRANCH   1   5
HETATM    5  C2  UNL     1     -56.531 -66.007  18.462  1.00  0.00     0.279 C 
HETATM    6  O2  UNL     1     -55.776 -65.682  19.425  1.00  0.00    -0.263 OA
BRANCH   5   7
HETATM    7  O1  UNL     1     -57.824 -66.342  18.822  1.00  0.00    -0.325 OA
HETATM    8  C1  UNL     1     -58.097 -67.396  19.728  1.00  0.00     0.213 C 
ENDBRANCH   5   7
ENDBRANCH   1   5
BRANCH   1   9
HETATM    9  C4  UNL     1     -55.946 -64.761  16.314  1.00  0.00     0.303 C 
BRANCH   9  10
HETATM   10  N1  UNL     1     -55.083 -63.706  16.661  1.00  0.00     0.094 N 
HETATM   11  C5  UNL     1     -55.627 -62.426  16.931  1.00  0.00     0.298 C 
HETATM   12  C6  UNL     1     -54.893 -61.319  16.141  1.00  0.00     0.198 C 
HETATM   13  O3  UNL     1     -53.537 -61.381  16.336  1.00  0.00    -0.388 OA
HETATM   14  C7  UNL     1     -53.050 -62.574  15.820  1.00  0.00     0.198 C 
HETATM   15  C8  UNL     1     -54.099 -63.597  15.580  1.00  0.00     0.298 C 
ENDBRANCH   9  10
ENDBRANCH   1   9
TORSDOF 4
ENDMDL
