MODEL 1
REMARK VINA RESULT: -3.880305475      0.000      0.000
REMARK  6 active torsions:
REMARK  status: ('A' for Active; 'I' for Inactive)
REMARK    1  A    between atoms: N1_1  and  C1_5 
REMARK    2  A    between atoms: C1_5  and  C2_6 
REMARK    3  A    between atoms: C3_8  and  C4_9 
REMARK    4  A    between atoms: C4_9  and  N2_10 
REMARK    5  A    between atoms: C5_14  and  C6_15 
REMARK    6  A    between atoms: C6_15  and  N3_16 
ROOT
HETATM    1  C2  UNL     1      10.967  19.811  -8.846  1.00  0.00     0.155 C 
HETATM    2  O1  UNL     1      10.526  21.113  -9.099  1.00  0.00    -0.376 OA
HETATM    3  C3  UNL     1      11.391  21.199 -10.207  1.00  0.00     0.155 C 
HETATM    4  C5  UNL     1      11.801  19.785 -10.097  1.00  0.00     0.072 C 
ENDROOT
BRANCH   1   5
HETATM    5  C1  UNL     1       9.742  18.888  -8.931  1.00  0.00     0.261 C 
BRANCH   5   6
HETATM    6  N1  UNL     1      10.153  17.563  -9.311  1.00  0.00    -0.077 N 
ATOM      7  H13 UNL     1      10.222  17.459 -10.323  1.00  0.00     0.274 HD
ATOM      8  H12 UNL     1      11.130  17.383  -9.077  1.00  0.00     0.274 HD
ATOM      9  H11 UNL     1       9.527  16.873  -8.896  1.00  0.00     0.274 HD
ENDBRANCH   5   6
ENDBRANCH   1   5
BRANCH   4  10
HETATM   10  C6  UNL     1      13.244  19.470  -9.925  1.00  0.00     0.239 C 
BRANCH  10  11
HETATM   11  N3  UNL     1      13.471  18.090 -10.295  1.00  0.00    -0.079 N 
ATOM     12  H33 UNL     1      12.651  17.504 -10.131  1.00  0.00     0.274 HD
ATOM     13  H32 UNL     1      13.536  17.964 -11.305  1.00  0.00     0.274 HD
ATOM     14  H31 UNL     1      14.297  17.747  -9.806  1.00  0.00     0.274 HD
ENDBRANCH  10  11
ENDBRANCH   4  10
BRANCH   3  15
HETATM   15  C4  UNL     1      12.421  22.256  -9.949  1.00  0.00     0.261 C 
BRANCH  15  16
HETATM   16  N2  UNL     1      12.039  23.441 -10.731  1.00  0.00    -0.077 N 
ATOM     17  H23 UNL     1      11.316  23.245 -11.425  1.00  0.00     0.274 HD
ATOM     18  H22 UNL     1      11.516  24.127 -10.186  1.00  0.00     0.274 HD
ATOM     19  H21 UNL     1      12.891  23.823 -11.140  1.00  0.00     0.274 HD
ENDBRANCH  15  16
ENDBRANCH   3  15
TORSDOF 6
ENDMDL
MODEL 2
REMARK VINA RESULT: -3.798387876      0.928      3.614
REMARK  6 active torsions:
REMARK  status: ('A' for Active; 'I' for Inactive)
REMARK    1  A    between atoms: N1_1  and  C1_5 
REMARK    2  A    between atoms: C1_5  and  C2_6 
REMARK    3  A    between atoms: C3_8  and  C4_9 
REMARK    4  A    between atoms: C4_9  and  N2_10 
REMARK    5  A    between atoms: C5_14  and  C6_15 
REMARK    6  A    between atoms: C6_15  and  N3_16 
ROOT
HETATM    1  C2  UNL     1      11.810  21.372  -9.810  1.00  0.00     0.155 C 
HETATM    2  O1  UNL     1      10.687  21.270  -8.984  1.00  0.00    -0.376 OA
HETATM    3  C3  UNL     1      11.001  19.924  -8.710  1.00  0.00     0.155 C 
HETATM    4  C5  UNL     1      12.280  19.990  -9.445  1.00  0.00     0.072 C 
ENDROOT
BRANCH   1   5
HETATM    5  C1  UNL     1      12.708  22.476  -9.230  1.00  0.00     0.261 C 
BRANCH   5   6
HETATM    6  N1  UNL     1      13.863  22.658 -10.067  1.00  0.00    -0.077 N 
ATOM      7  H13 UNL     1      14.581  21.956  -9.887  1.00  0.00     0.274 HD
ATOM      8  H12 UNL     1      13.670  22.425 -11.041  1.00  0.00     0.274 HD
ATOM      9  H11 UNL     1      14.220  23.607  -9.964  1.00  0.00     0.274 HD
ENDBRANCH   5   6
ENDBRANCH   1   5
BRANCH   4  10
HETATM   10  C6  UNL     1      12.507  19.048 -10.571  1.00  0.00     0.239 C 
BRANCH  10  11
HETATM   11  N3  UNL     1      13.547  18.114 -10.200  1.00  0.00    -0.079 N 
ATOM     12  H33 UNL     1      13.473  17.816  -9.227  1.00  0.00     0.274 HD
ATOM     13  H32 UNL     1      13.425  17.202 -10.639  1.00  0.00     0.274 HD
ATOM     14  H31 UNL     1      14.456  18.528 -10.411  1.00  0.00     0.274 HD
ENDBRANCH  10  11
ENDBRANCH   4  10
BRANCH   3  15
HETATM   15  C4  UNL     1       9.918  19.044  -9.253  1.00  0.00     0.261 C 
BRANCH  15  16
HETATM   16  N2  UNL     1       9.811  17.880  -8.362  1.00  0.00    -0.077 N 
ATOM     17  H23 UNL     1      10.532  17.178  -8.535  1.00  0.00     0.274 HD
ATOM     18  H22 UNL     1      10.061  18.092  -7.396  1.00  0.00     0.274 HD
ATOM     19  H21 UNL     1       8.865  17.510  -8.457  1.00  0.00     0.274 HD
ENDBRANCH  15  16
ENDBRANCH   3  15
TORSDOF 6
ENDMDL
MODEL 3
REMARK VINA RESULT: -3.782727128      2.004      4.222
REMARK  6 active torsions:
REMARK  status: ('A' for Active; 'I' for Inactive)
REMARK    1  A    between atoms: N1_1  and  C1_5 
REMARK    2  A    between atoms: C1_5  and  C2_6 
REMARK    3  A    between atoms: C3_8  and  C4_9 
REMARK    4  A    between atoms: C4_9  and  N2_10 
REMARK    5  A    between atoms: C5_14  and  C6_15 
REMARK    6  A    between atoms: C6_15  and  N3_16 
ROOT
HETATM    1  C2  UNL     1      12.770  22.861  -9.905  1.00  0.00     0.155 C 
HETATM    2  O1  UNL     1      12.009  22.203  -8.935  1.00  0.00    -0.376 OA
HETATM    3  C3  UNL     1      12.549  20.965  -9.340  1.00  0.00     0.155 C 
HETATM    4  C5  UNL     1      13.489  21.597 -10.287  1.00  0.00     0.072 C 
ENDROOT
BRANCH   1   5
HETATM    5  C1  UNL     1      13.678  23.862  -9.174  1.00  0.00     0.261 C 
BRANCH   5   6
HETATM    6  N1  UNL     1      13.073  25.167  -9.181  1.00  0.00    -0.077 N 
ATOM      7  H13 UNL     1      13.763  25.909  -9.288  1.00  0.00     0.274 HD
ATOM      8  H12 UNL     1      12.538  25.337 -10.033  1.00  0.00     0.274 HD
ATOM      9  H11 UNL     1      12.505  25.290  -8.342  1.00  0.00     0.274 HD
ENDBRANCH   5   6
ENDBRANCH   1   5
BRANCH   4  10
HETATM   10  C6  UNL     1      13.431  21.208 -11.721  1.00  0.00     0.239 C 
BRANCH  10  11
HETATM   11  N3  UNL     1      14.734  20.738 -12.134  1.00  0.00    -0.079 N 
ATOM     12  H33 UNL     1      15.450  21.462 -12.061  1.00  0.00     0.274 HD
ATOM     13  H32 UNL     1      15.136  20.074 -11.472  1.00  0.00     0.274 HD
ATOM     14  H31 UNL     1      14.665  20.353 -13.076  1.00  0.00     0.274 HD
ENDBRANCH  10  11
ENDBRANCH   4  10
BRANCH   3  15
HETATM   15  C4  UNL     1      11.454  20.109  -9.896  1.00  0.00     0.261 C 
BRANCH  15  16
HETATM   16  N2  UNL     1      10.958  19.264  -8.800  1.00  0.00    -0.077 N 
ATOM     17  H23 UNL     1      11.528  19.330  -7.956  1.00  0.00     0.274 HD
ATOM     18  H22 UNL     1      10.085  19.606  -8.397  1.00  0.00     0.274 HD
ATOM     19  H21 UNL     1      10.885  18.312  -9.159  1.00  0.00     0.274 HD
ENDBRANCH  15  16
ENDBRANCH   3  15
TORSDOF 6
ENDMDL
MODEL 4
REMARK VINA RESULT: -3.742784139      3.176      4.689
REMARK  6 active torsions:
REMARK  status: ('A' for Active; 'I' for Inactive)
REMARK    1  A    between atoms: N1_1  and  C1_5 
REMARK    2  A    between atoms: C1_5  and  C2_6 
REMARK    3  A    between atoms: C3_8  and  C4_9 
REMARK    4  A    between atoms: C4_9  and  N2_10 
REMARK    5  A    between atoms: C5_14  and  C6_15 
REMARK    6  A    between atoms: C6_15  and  N3_16 
ROOT
HETATM    1  C2  UNL     1      12.227  18.433 -11.457  1.00  0.00     0.155 C 
HETATM    2  O1  UNL     1      11.831  17.179 -11.929  1.00  0.00    -0.376 OA
HETATM    3  C3  UNL     1      13.135  16.684 -11.732  1.00  0.00     0.155 C 
HETATM    4  C5  UNL     1      13.596  17.930 -11.087  1.00  0.00     0.072 C 
ENDROOT
BRANCH   1   5
HETATM    5  C1  UNL     1      11.362  18.755 -10.228  1.00  0.00     0.261 C 
BRANCH   5   6
HETATM    6  N1  UNL     1      12.155  19.426  -9.234  1.00  0.00    -0.077 N 
ATOM      7  H13 UNL     1      11.799  19.272  -8.291  1.00  0.00     0.274 HD
ATOM      8  H12 UNL     1      13.072  18.993  -9.117  1.00  0.00     0.274 HD
ATOM      9  H11 UNL     1      12.227  20.418  -9.459  1.00  0.00     0.274 HD
ENDBRANCH   5   6
ENDBRANCH   1   5
BRANCH   4  10
HETATM   10  C6  UNL     1      14.751  18.656 -11.677  1.00  0.00     0.239 C 
BRANCH  10  11
HETATM   11  N3  UNL     1      15.540  19.230 -10.609  1.00  0.00    -0.079 N 
ATOM     12  H33 UNL     1      15.114  19.090  -9.693  1.00  0.00     0.274 HD
ATOM     13  H32 UNL     1      16.404  18.715 -10.445  1.00  0.00     0.274 HD
ATOM     14  H31 UNL     1      15.707  20.215 -10.813  1.00  0.00     0.274 HD
ENDBRANCH  10  11
ENDBRANCH   4  10
BRANCH   3  15
HETATM   15  C4  UNL     1      13.727  16.313 -13.056  1.00  0.00     0.261 C 
BRANCH  15  16
HETATM   16  N2  UNL     1      13.300  14.939 -13.358  1.00  0.00    -0.077 N 
ATOM     17  H23 UNL     1      14.001  14.408 -13.876  1.00  0.00     0.274 HD
ATOM     18  H22 UNL     1      13.265  14.341 -12.532  1.00  0.00     0.274 HD
ATOM     19  H21 UNL     1      12.405  14.999 -13.845  1.00  0.00     0.274 HD
ENDBRANCH  15  16
ENDBRANCH   3  15
TORSDOF 6
ENDMDL
MODEL 5
REMARK VINA RESULT: -3.708880682      1.957      2.241
REMARK  6 active torsions:
REMARK  status: ('A' for Active; 'I' for Inactive)
REMARK    1  A    between atoms: N1_1  and  C1_5 
REMARK    2  A    between atoms: C1_5  and  C2_6 
REMARK    3  A    between atoms: C3_8  and  C4_9 
REMARK    4  A    between atoms: C4_9  and  N2_10 
REMARK    5  A    between atoms: C5_14  and  C6_15 
REMARK    6  A    between atoms: C6_15  and  N3_16 
ROOT
HETATM    1  C2  UNL     1      12.294  21.033  -9.060  1.00  0.00     0.155 C 
HETATM    2  O1  UNL     1      12.069  22.320  -8.563  1.00  0.00    -0.376 OA
HETATM    3  C3  UNL     1      12.657  22.877  -9.716  1.00  0.00     0.155 C 
HETATM    4  C5  UNL     1      12.799  21.563 -10.374  1.00  0.00     0.072 C 
ENDROOT
BRANCH   1   5
HETATM    5  C1  UNL     1      10.926  20.343  -9.184  1.00  0.00     0.261 C 
BRANCH   5   6
HETATM    6  N1  UNL     1      11.095  18.915  -9.165  1.00  0.00    -0.077 N 
ATOM      7  H13 UNL     1      12.073  18.647  -9.060  1.00  0.00     0.274 HD
ATOM      8  H12 UNL     1      10.734  18.498  -8.306  1.00  0.00     0.274 HD
ATOM      9  H11 UNL     1      10.672  18.505  -9.997  1.00  0.00     0.274 HD
ENDBRANCH   5   6
ENDBRANCH   1   5
BRANCH   4  10
HETATM   10  C6  UNL     1      14.153  21.115 -10.794  1.00  0.00     0.239 C 
BRANCH  10  11
HETATM   11  N3  UNL     1      14.122  20.782 -12.201  1.00  0.00    -0.079 N 
ATOM     12  H33 UNL     1      14.300  21.592 -12.796  1.00  0.00     0.274 HD
ATOM     13  H32 UNL     1      14.924  20.219 -12.485  1.00  0.00     0.274 HD
ATOM     14  H31 UNL     1      13.234  20.330 -12.416  1.00  0.00     0.274 HD
ENDBRANCH  10  11
ENDBRANCH   4  10
BRANCH   3  15
HETATM   15  C4  UNL     1      13.903  23.611  -9.328  1.00  0.00     0.261 C 
BRANCH  15  16
HETATM   16  N2  UNL     1      13.515  24.990  -9.000  1.00  0.00    -0.077 N 
ATOM     17  H23 UNL     1      13.782  25.662  -9.720  1.00  0.00     0.274 HD
ATOM     18  H22 UNL     1      12.507  25.142  -9.043  1.00  0.00     0.274 HD
ATOM     19  H21 UNL     1      13.911  25.208  -8.085  1.00  0.00     0.274 HD
ENDBRANCH  15  16
ENDBRANCH   3  15
TORSDOF 6
ENDMDL
