MODEL 1
REMARK VINA RESULT: -7.812204050      0.000      0.000
REMARK  5 active torsions:
REMARK  status: ('A' for Active; 'I' for Inactive)
REMARK    1  A    between atoms: C2_2  and  N1_3 
REMARK    2  A    between atoms: N3_9  and  C5_10 
REMARK    3  A    between atoms: C5_10  and  C6_11 
REMARK    4  A    between atoms: C7_12  and  C8_13 
REMARK    5  A    between atoms: C8_13  and  O1_14 
ROOT
HETATM    1  C6  UNL     1      16.412   9.831   4.318  1.00  0.00    -0.040 C 
HETATM    2  C7  UNL     1      15.815   9.841   3.106  1.00  0.00     0.015 C 
HETATM    3  C9  UNL     1      16.357  10.775   2.129  1.00  0.00     0.163 C 
HETATM    4  O2  UNL     1      15.659  11.039   1.121  1.00  0.00    -0.292 OA
HETATM    5  C10 UNL     1      17.673  11.432   2.246  1.00  0.00     0.069 C 
HETATM    6  C11 UNL     1      18.427  11.446   0.953  1.00  0.00    -0.007 C 
HETATM    7  C12 UNL     1      17.994  10.354  -0.002  1.00  0.00     0.011 C 
HETATM    8  C13 UNL     1      19.932  11.383   1.187  1.00  0.00     0.006 C 
HETATM    9  C14 UNL     1      20.316  10.159   1.962  1.00  0.00     0.009 C 
HETATM   10  C15 UNL     1      19.489   9.927   3.199  1.00  0.00    -0.043 C 
HETATM   11  C16 UNL     1      19.041   8.507   3.211  1.00  0.00     0.015 C 
HETATM   12  C17 UNL     1      20.484  10.045   4.373  1.00  0.00     0.015 C 
HETATM   13  C18 UNL     1      18.467  10.972   3.411  1.00  0.00     0.009 C 
HETATM   14  C19 UNL     1      17.554  10.716   4.584  1.00  0.00     0.042 C 
ENDROOT
BRANCH   1  15
HETATM   15  C5  UNL     1      15.905   8.901   5.326  1.00  0.00     0.311 C 
BRANCH  15  16
HETATM   16  N3  UNL     1      15.005   9.440   6.327  1.00  0.00     0.146 N 
HETATM   17  C4  UNL     1      13.696   8.799   6.175  1.00  0.00     0.507 C 
HETATM   18  N2  UNL     1      12.730   9.138   7.141  1.00  0.00    -0.022 N 
HETATM   19  C3  UNL     1      13.302  10.103   8.055  1.00  0.00     0.507 C 
ATOM     20  H22 UNL     1      12.356   8.321   7.622  1.00  0.00     0.281 HD
ATOM     21  H21 UNL     1      11.860   9.468   6.723  1.00  0.00     0.281 HD
HETATM   22  N1  UNL     1      14.418   9.385   8.675  1.00  0.00     0.141 N 
HETATM   23  C20 UNL     1      15.474   9.348   7.678  1.00  0.00     0.547 C 
BRANCH  22  24
HETATM   24  C2  UNL     1      14.871  10.240   9.763  1.00  0.00     0.272 C 
HETATM   25  C1  UNL     1      13.838  11.251  10.177  1.00  0.00     0.037 C 
ENDBRANCH  22  24
ENDBRANCH  15  16
ENDBRANCH   1  15
BRANCH   2  26
HETATM   26  C8  UNL     1      14.694   9.002   2.697  1.00  0.00     0.206 C 
BRANCH  26  27
HETATM   27  O1  UNL     1      15.097   7.995   1.778  1.00  0.00    -0.396 OA
ATOM     28  H1  UNL     1      14.709   8.126   0.921  1.00  0.00     0.209 HD
ENDBRANCH  26  27
ENDBRANCH   2  26
TORSDOF 5
ENDMDL
MODEL 2
REMARK VINA RESULT: -7.657662467      2.202      4.236
REMARK  5 active torsions:
REMARK  status: ('A' for Active; 'I' for Inactive)
REMARK    1  A    between atoms: C2_2  and  N1_3 
REMARK    2  A    between atoms: N3_9  and  C5_10 
REMARK    3  A    between atoms: C5_10  and  C6_11 
REMARK    4  A    between atoms: C7_12  and  C8_13 
REMARK    5  A    between atoms: C8_13  and  O1_14 
ROOT
HETATM    1  C6  UNL     1      16.260  10.137   3.062  1.00  0.00    -0.040 C 
HETATM    2  C7  UNL     1      16.715  11.017   2.142  1.00  0.00     0.015 C 
HETATM    3  C9  UNL     1      16.548  10.634   0.748  1.00  0.00     0.163 C 
HETATM    4  O2  UNL     1      17.217  11.254  -0.113  1.00  0.00    -0.292 OA
HETATM    5  C10 UNL     1      15.644   9.566   0.279  1.00  0.00     0.069 C 
HETATM    6  C11 UNL     1      14.875   9.958  -0.944  1.00  0.00    -0.007 C 
HETATM    7  C12 UNL     1      14.736  11.457  -1.107  1.00  0.00     0.011 C 
HETATM    8  C13 UNL     1      13.505   9.289  -0.975  1.00  0.00     0.006 C 
HETATM    9  C14 UNL     1      12.699   9.634   0.240  1.00  0.00     0.009 C 
HETATM   10  C15 UNL     1      13.438   9.464   1.541  1.00  0.00    -0.043 C 
HETATM   11  C16 UNL     1      13.245  10.692   2.360  1.00  0.00     0.015 C 
HETATM   12  C17 UNL     1      12.674   8.353   2.292  1.00  0.00     0.015 C 
HETATM   13  C18 UNL     1      14.818   8.970   1.357  1.00  0.00     0.009 C 
HETATM   14  C19 UNL     1      15.621   8.887   2.631  1.00  0.00     0.042 C 
ENDROOT
BRANCH   1  15
HETATM   15  C5  UNL     1      16.399  10.486   4.474  1.00  0.00     0.311 C 
BRANCH  15  16
HETATM   16  N3  UNL     1      15.798   9.585   5.438  1.00  0.00     0.146 N 
HETATM   17  C4  UNL     1      16.863   8.963   6.228  1.00  0.00     0.507 C 
HETATM   18  N2  UNL     1      16.441   8.132   7.283  1.00  0.00    -0.022 N 
HETATM   19  C3  UNL     1      14.995   8.084   7.290  1.00  0.00     0.507 C 
ATOM     20  H22 UNL     1      16.825   8.419   8.183  1.00  0.00     0.281 HD
ATOM     21  H21 UNL     1      16.860   7.203   7.239  1.00  0.00     0.281 HD
HETATM   22  N1  UNL     1      14.596   9.470   7.537  1.00  0.00     0.141 N 
HETATM   23  C20 UNL     1      14.804  10.178   6.284  1.00  0.00     0.547 C 
BRANCH  22  24
HETATM   24  C2  UNL     1      13.161   9.423   7.781  1.00  0.00     0.272 C 
HETATM   25  C1  UNL     1      12.815   9.575   9.237  1.00  0.00     0.037 C 
ENDBRANCH  22  24
ENDBRANCH  15  16
ENDBRANCH   1  15
BRANCH   2  26
HETATM   26  C8  UNL     1      17.344  12.302   2.426  1.00  0.00     0.206 C 
BRANCH  26  27
HETATM   27  O1  UNL     1      18.657  12.377   1.888  1.00  0.00    -0.396 OA
ATOM     28  H1  UNL     1      19.059  13.222   2.055  1.00  0.00     0.209 HD
ENDBRANCH  26  27
ENDBRANCH   2  26
TORSDOF 5
ENDMDL
MODEL 3
REMARK VINA RESULT: -7.451987388      5.210      8.044
REMARK  5 active torsions:
REMARK  status: ('A' for Active; 'I' for Inactive)
REMARK    1  A    between atoms: C2_2  and  N1_3 
REMARK    2  A    between atoms: N3_9  and  C5_10 
REMARK    3  A    between atoms: C5_10  and  C6_11 
REMARK    4  A    between atoms: C7_12  and  C8_13 
REMARK    5  A    between atoms: C8_13  and  O1_14 
ROOT
HETATM    1  C6  UNL     1      22.870   8.679   2.823  1.00  0.00    -0.040 C 
HETATM    2  C7  UNL     1      23.925   7.875   2.567  1.00  0.00     0.015 C 
HETATM    3  C9  UNL     1      25.141   8.150   3.319  1.00  0.00     0.163 C 
HETATM    4  O2  UNL     1      26.212   7.647   2.904  1.00  0.00    -0.292 OA
HETATM    5  C10 UNL     1      25.197   8.980   4.538  1.00  0.00     0.069 C 
HETATM    6  C11 UNL     1      26.058   8.379   5.605  1.00  0.00    -0.007 C 
HETATM    7  C12 UNL     1      26.214   6.879   5.471  1.00  0.00     0.011 C 
HETATM    8  C13 UNL     1      25.550   8.741   6.996  1.00  0.00     0.006 C 
HETATM    9  C14 UNL     1      24.136   8.288   7.199  1.00  0.00     0.009 C 
HETATM   10  C15 UNL     1      23.200   8.670   6.082  1.00  0.00    -0.043 C 
HETATM   11  C16 UNL     1      22.415   7.467   5.689  1.00  0.00     0.015 C 
HETATM   12  C17 UNL     1      22.176   9.627   6.729  1.00  0.00     0.015 C 
HETATM   13  C18 UNL     1      23.868   9.436   5.010  1.00  0.00     0.009 C 
HETATM   14  C19 UNL     1      22.983   9.745   3.828  1.00  0.00     0.042 C 
ENDROOT
BRANCH   1  15
HETATM   15  C5  UNL     1      21.626   8.433   2.097  1.00  0.00     0.311 C 
BRANCH  15  16
HETATM   16  N3  UNL     1      20.794   9.584   1.804  1.00  0.00     0.146 N 
HETATM   17  C4  UNL     1      20.790   9.804   0.355  1.00  0.00     0.507 C 
HETATM   18  N2  UNL     1      19.944  10.828  -0.108  1.00  0.00    -0.022 N 
HETATM   19  C3  UNL     1      19.292  11.446   1.026  1.00  0.00     0.507 C 
ATOM     20  H22 UNL     1      19.278  10.498  -0.807  1.00  0.00     0.281 HD
ATOM     21  H21 UNL     1      20.436  11.506  -0.691  1.00  0.00     0.281 HD
HETATM   22  N1  UNL     1      18.508  10.360   1.618  1.00  0.00     0.141 N 
HETATM   23  C20 UNL     1      19.459   9.515   2.321  1.00  0.00     0.547 C 
BRANCH  22  24
HETATM   24  C2  UNL     1      17.661  10.995   2.618  1.00  0.00     0.272 C 
HETATM   25  C1  UNL     1      17.971  10.535   4.016  1.00  0.00     0.037 C 
ENDBRANCH  22  24
ENDBRANCH  15  16
ENDBRANCH   1  15
BRANCH   2  26
HETATM   26  C8  UNL     1      23.946   6.767   1.619  1.00  0.00     0.206 C 
BRANCH  26  27
HETATM   27  O1  UNL     1      24.502   5.592   2.193  1.00  0.00    -0.396 OA
ATOM     28  H1  UNL     1      25.350   5.384   1.818  1.00  0.00     0.209 HD
ENDBRANCH  26  27
ENDBRANCH   2  26
TORSDOF 5
ENDMDL
MODEL 4
REMARK VINA RESULT: -7.251547750      4.979      7.181
REMARK  5 active torsions:
REMARK  status: ('A' for Active; 'I' for Inactive)
REMARK    1  A    between atoms: C2_2  and  N1_3 
REMARK    2  A    between atoms: N3_9  and  C5_10 
REMARK    3  A    between atoms: C5_10  and  C6_11 
REMARK    4  A    between atoms: C7_12  and  C8_13 
REMARK    5  A    between atoms: C8_13  and  O1_14 
ROOT
HETATM    1  C6  UNL     1      21.702   9.445   4.566  1.00  0.00    -0.040 C 
HETATM    2  C7  UNL     1      20.521   9.793   4.009  1.00  0.00     0.015 C 
HETATM    3  C9  UNL     1      20.577  10.297   2.644  1.00  0.00     0.163 C 
HETATM    4  O2  UNL     1      19.575  10.911   2.206  1.00  0.00    -0.292 OA
HETATM    5  C10 UNL     1      21.733  10.134   1.743  1.00  0.00     0.069 C 
HETATM    6  C11 UNL     1      21.330   9.754   0.351  1.00  0.00    -0.007 C 
HETATM    7  C12 UNL     1      19.974   9.084   0.286  1.00  0.00     0.011 C 
HETATM    8  C13 UNL     1      22.388   8.882  -0.314  1.00  0.00     0.006 C 
HETATM    9  C14 UNL     1      22.648   7.635   0.475  1.00  0.00     0.009 C 
HETATM   10  C15 UNL     1      22.879   7.872   1.945  1.00  0.00    -0.043 C 
HETATM   11  C16 UNL     1      22.032   6.922   2.718  1.00  0.00     0.015 C 
HETATM   12  C17 UNL     1      24.332   7.416   2.199  1.00  0.00     0.015 C 
HETATM   13  C18 UNL     1      22.820   9.301   2.312  1.00  0.00     0.009 C 
HETATM   14  C19 UNL     1      22.945   9.566   3.792  1.00  0.00     0.042 C 
ENDROOT
BRANCH   1  15
HETATM   15  C5  UNL     1      21.691   8.925   5.932  1.00  0.00     0.311 C 
BRANCH  15  16
HETATM   16  N3  UNL     1      22.969   8.550   6.505  1.00  0.00     0.146 N 
HETATM   17  C4  UNL     1      22.838   8.518   7.964  1.00  0.00     0.507 C 
HETATM   18  N2  UNL     1      23.969   8.070   8.672  1.00  0.00    -0.022 N 
HETATM   19  C3  UNL     1      25.025   7.774   7.729  1.00  0.00     0.507 C 
ATOM     20  H22 UNL     1      23.759   7.279   9.281  1.00  0.00     0.281 HD
ATOM     21  H21 UNL     1      24.264   8.729   9.392  1.00  0.00     0.281 HD
HETATM   22  N1  UNL     1      24.474   6.696   6.907  1.00  0.00     0.141 N 
HETATM   23  C20 UNL     1      23.520   7.324   6.007  1.00  0.00     0.547 C 
BRANCH  22  24
HETATM   24  C2  UNL     1      25.587   6.215   6.100  1.00  0.00     0.272 C 
HETATM   25  C1  UNL     1      25.149   5.289   4.999  1.00  0.00     0.037 C 
ENDBRANCH  22  24
ENDBRANCH  15  16
ENDBRANCH   1  15
BRANCH   2  26
HETATM   26  C8  UNL     1      19.213   9.701   4.649  1.00  0.00     0.206 C 
BRANCH  26  27
HETATM   27  O1  UNL     1      18.565  10.964   4.709  1.00  0.00    -0.396 OA
ATOM     28  H1  UNL     1      18.987  11.603   4.146  1.00  0.00     0.209 HD
ENDBRANCH  26  27
ENDBRANCH   2  26
TORSDOF 5
ENDMDL
MODEL 5
REMARK VINA RESULT: -7.219688429      3.263      5.824
REMARK  5 active torsions:
REMARK  status: ('A' for Active; 'I' for Inactive)
REMARK    1  A    between atoms: C2_2  and  N1_3 
REMARK    2  A    between atoms: N3_9  and  C5_10 
REMARK    3  A    between atoms: C5_10  and  C6_11 
REMARK    4  A    between atoms: C7_12  and  C8_13 
REMARK    5  A    between atoms: C8_13  and  O1_14 
ROOT
HETATM    1  C6  UNL     1      18.100  10.972   2.655  1.00  0.00    -0.040 C 
HETATM    2  C7  UNL     1      19.167  10.577   1.926  1.00  0.00     0.015 C 
HETATM    3  C9  UNL     1      20.354  10.193   2.677  1.00  0.00     0.163 C 
HETATM    4  O2  UNL     1      21.441  10.120   2.057  1.00  0.00    -0.292 OA
HETATM    5  C10 UNL     1      20.361   9.883   4.120  1.00  0.00     0.069 C 
HETATM    6  C11 UNL     1      21.185   8.675   4.446  1.00  0.00    -0.007 C 
HETATM    7  C12 UNL     1      21.351   7.733   3.272  1.00  0.00     0.011 C 
HETATM    8  C13 UNL     1      20.624   7.931   5.652  1.00  0.00     0.006 C 
HETATM    9  C14 UNL     1      19.205   7.507   5.424  1.00  0.00     0.009 C 
HETATM   10  C15 UNL     1      18.310   8.600   4.904  1.00  0.00    -0.043 C 
HETATM   11  C16 UNL     1      17.544   8.074   3.741  1.00  0.00     0.015 C 
HETATM   12  C17 UNL     1      17.259   8.817   6.014  1.00  0.00     0.015 C 
HETATM   13  C18 UNL     1      19.013   9.888   4.738  1.00  0.00     0.009 C 
HETATM   14  C19 UNL     1      18.173  10.979   4.122  1.00  0.00     0.042 C 
ENDROOT
BRANCH   1  15
HETATM   15  C5  UNL     1      16.885  11.358   1.940  1.00  0.00     0.311 C 
BRANCH  15  16
HETATM   16  N3  UNL     1      15.999  10.288   1.522  1.00  0.00     0.146 N 
HETATM   17  C4  UNL     1      14.910  10.174   2.496  1.00  0.00     0.507 C 
HETATM   18  N2  UNL     1      13.901   9.244   2.183  1.00  0.00    -0.022 N 
HETATM   19  C3  UNL     1      14.237   8.592   0.936  1.00  0.00     0.507 C 
ATOM     20  H22 UNL     1      12.973   9.668   2.163  1.00  0.00     0.281 HD
ATOM     21  H21 UNL     1      13.737   8.579   2.939  1.00  0.00     0.281 HD
HETATM   22  N1  UNL     1      14.252   9.681  -0.041  1.00  0.00     0.141 N 
HETATM   23  C20 UNL     1      15.490  10.409   0.188  1.00  0.00     0.547 C 
BRANCH  22  24
HETATM   24  C2  UNL     1      14.357   9.035  -1.341  1.00  0.00     0.272 C 
HETATM   25  C1  UNL     1      13.604   9.768  -2.417  1.00  0.00     0.037 C 
ENDBRANCH  22  24
ENDBRANCH  15  16
ENDBRANCH   1  15
BRANCH   2  26
HETATM   26  C8  UNL     1      19.227  10.497   0.470  1.00  0.00     0.206 C 
BRANCH  26  27
HETATM   27  O1  UNL     1      19.972  11.572  -0.087  1.00  0.00    -0.396 OA
ATOM     28  H1  UNL     1      20.907  11.406  -0.054  1.00  0.00     0.209 HD
ENDBRANCH  26  27
ENDBRANCH   2  26
TORSDOF 5
ENDMDL
