MODEL 1
REMARK VINA RESULT: -8.301779976      0.000      0.000
REMARK  6 active torsions:
REMARK  status: ('A' for Active; 'I' for Inactive)
REMARK    1  A    between atoms: S1_2  and  N1_5 
REMARK    2  A    between atoms: N1_5  and  C2_6 
REMARK    3  A    between atoms: N1_5  and  C14_23 
REMARK    4  A    between atoms: C2_6  and  C3_7 
REMARK       I    between atoms: C3_7  and  N2_9 
REMARK    5  A    between atoms: N2_9  and  C4_11 
REMARK    6  A    between atoms: N3_14  and  C7_15 
ROOT
HETATM    1  C3  UNL     1     -16.838  -2.658   4.911  1.00  0.00     0.236 C 
HETATM    2  O3  UNL     1     -16.243  -3.134   5.915  1.00  0.00    -0.272 OA
HETATM    3  N2  UNL     1     -18.219  -2.343   4.942  1.00  0.00    -0.346 N 
ATOM      4  H2  UNL     1     -18.690  -1.957   4.123  1.00  0.00     0.163 HD
ENDROOT
BRANCH   1   5
HETATM    5  C2  UNL     1     -16.093  -2.408   3.646  1.00  0.00     0.238 C 
BRANCH   5   6
HETATM    6  N1  UNL     1     -16.299  -3.380   2.641  1.00  0.00    -0.298 N 
BRANCH   6   7
HETATM    7  S1  UNL     1     -17.678  -3.223   1.695  1.00  0.00     0.225 S 
HETATM    8  C1  UNL     1     -17.460  -3.741   0.017  1.00  0.00     0.186 C 
HETATM    9  O1  UNL     1     -18.792  -4.033   2.292  1.00  0.00    -0.206 OA
HETATM   10  O2  UNL     1     -18.120  -1.790   1.679  1.00  0.00    -0.206 OA
ENDBRANCH   6   7
BRANCH   6  11
HETATM   11  C14 UNL     1     -15.207  -4.065   2.120  1.00  0.00     0.096 C 
HETATM   12  C15 UNL     1     -13.884  -3.372   2.376  1.00  0.00     0.026 C 
HETATM   13  C16 UNL     1     -12.899  -4.025   1.392  1.00  0.00     0.002 C 
HETATM   14  C17 UNL     1     -12.635  -5.414   1.950  1.00  0.00     0.000 C 
HETATM   15  C18 UNL     1     -13.901  -6.197   2.024  1.00  0.00     0.002 C 
HETATM   16  C19 UNL     1     -15.044  -5.469   2.696  1.00  0.00     0.026 C 
ENDBRANCH   6  11
ENDBRANCH   5   6
ENDBRANCH   1   5
BRANCH   3  17
HETATM   17  C4  UNL     1     -18.942  -2.588   6.176  1.00  0.00     0.178 C 
HETATM   18  C5  UNL     1     -19.329  -1.252   6.761  1.00  0.00     0.054 C 
HETATM   19  C6  UNL     1     -20.441  -0.822   5.831  1.00  0.00     0.129 C 
HETATM   20  N3  UNL     1     -21.203  -2.029   5.655  1.00  0.00    -0.346 N 
HETATM   21  C13 UNL     1     -20.299  -3.118   5.802  1.00  0.00     0.243 C 
HETATM   22  O4  UNL     1     -20.522  -4.332   5.660  1.00  0.00    -0.271 OA
BRANCH  20  23
HETATM   23  C7  UNL     1     -22.617  -2.106   5.381  1.00  0.00     0.087 C 
HETATM   24  C8  UNL     1     -23.192  -0.730   5.258  1.00  0.00     0.025 C 
HETATM   25  C9  UNL     1     -24.496  -0.638   5.994  1.00  0.00     0.002 C 
HETATM   26  C10 UNL     1     -25.378  -1.817   5.568  1.00  0.00     0.000 C 
HETATM   27  C11 UNL     1     -24.797  -3.100   6.130  1.00  0.00     0.002 C 
HETATM   28  C12 UNL     1     -23.349  -2.865   6.467  1.00  0.00     0.025 C 
ENDBRANCH  20  23
ENDBRANCH   3  17
TORSDOF 6
ENDMDL
MODEL 2
REMARK VINA RESULT: -8.191214007      1.106      1.505
REMARK  6 active torsions:
REMARK  status: ('A' for Active; 'I' for Inactive)
REMARK    1  A    between atoms: S1_2  and  N1_5 
REMARK    2  A    between atoms: N1_5  and  C2_6 
REMARK    3  A    between atoms: N1_5  and  C14_23 
REMARK    4  A    between atoms: C2_6  and  C3_7 
REMARK       I    between atoms: C3_7  and  N2_9 
REMARK    5  A    between atoms: N2_9  and  C4_11 
REMARK    6  A    between atoms: N3_14  and  C7_15 
ROOT
HETATM    1  C3  UNL     1     -16.907  -3.677   4.519  1.00  0.00     0.236 C 
HETATM    2  O3  UNL     1     -15.910  -3.113   5.047  1.00  0.00    -0.272 OA
HETATM    3  N2  UNL     1     -18.225  -3.197   4.717  1.00  0.00    -0.346 N 
ATOM      4  H2  UNL     1     -19.025  -3.661   4.285  1.00  0.00     0.163 HD
ENDROOT
BRANCH   1   5
HETATM    5  C2  UNL     1     -16.721  -4.879   3.661  1.00  0.00     0.238 C 
BRANCH   5   6
HETATM    6  N1  UNL     1     -16.256  -4.602   2.355  1.00  0.00    -0.298 N 
BRANCH   6   7
HETATM    7  S1  UNL     1     -17.108  -3.462   1.463  1.00  0.00     0.225 S 
HETATM    8  C1  UNL     1     -16.832  -3.563  -0.282  1.00  0.00     0.186 C 
HETATM    9  O1  UNL     1     -18.579  -3.626   1.713  1.00  0.00    -0.206 OA
HETATM   10  O2  UNL     1     -16.725  -2.082   1.909  1.00  0.00    -0.206 OA
ENDBRANCH   6   7
BRANCH   6  11
HETATM   11  C14 UNL     1     -14.919  -4.829   2.044  1.00  0.00     0.096 C 
HETATM   12  C15 UNL     1     -13.990  -3.750   2.563  1.00  0.00     0.026 C 
HETATM   13  C16 UNL     1     -12.682  -3.945   1.778  1.00  0.00     0.002 C 
HETATM   14  C17 UNL     1     -12.051  -5.202   2.355  1.00  0.00     0.000 C 
HETATM   15  C18 UNL     1     -12.955  -6.372   2.169  1.00  0.00     0.002 C 
HETATM   16  C19 UNL     1     -14.379  -6.136   2.619  1.00  0.00     0.026 C 
ENDBRANCH   6  11
ENDBRANCH   5   6
ENDBRANCH   1   5
BRANCH   3  17
HETATM   17  C4  UNL     1     -18.402  -2.026   5.554  1.00  0.00     0.178 C 
HETATM   18  C5  UNL     1     -18.847  -0.886   4.672  1.00  0.00     0.054 C 
HETATM   19  C6  UNL     1     -20.279  -1.272   4.374  1.00  0.00     0.129 C 
HETATM   20  N3  UNL     1     -20.766  -1.720   5.650  1.00  0.00    -0.346 N 
HETATM   21  C13 UNL     1     -19.651  -2.238   6.365  1.00  0.00     0.243 C 
HETATM   22  O4  UNL     1     -19.635  -2.790   7.479  1.00  0.00    -0.271 OA
BRANCH  20  23
HETATM   23  C7  UNL     1     -22.133  -1.653   6.105  1.00  0.00     0.087 C 
HETATM   24  C8  UNL     1     -22.748  -3.016   6.096  1.00  0.00     0.025 C 
HETATM   25  C9  UNL     1     -24.132  -2.965   5.520  1.00  0.00     0.002 C 
HETATM   26  C10 UNL     1     -24.907  -1.844   6.220  1.00  0.00     0.000 C 
HETATM   27  C11 UNL     1     -24.343  -0.505   5.784  1.00  0.00     0.002 C 
HETATM   28  C12 UNL     1     -22.956  -0.721   5.240  1.00  0.00     0.025 C 
ENDBRANCH  20  23
ENDBRANCH   3  17
TORSDOF 6
ENDMDL
MODEL 3
REMARK VINA RESULT: -8.088527234      1.917      8.511
REMARK  6 active torsions:
REMARK  status: ('A' for Active; 'I' for Inactive)
REMARK    1  A    between atoms: S1_2  and  N1_5 
REMARK    2  A    between atoms: N1_5  and  C2_6 
REMARK    3  A    between atoms: N1_5  and  C14_23 
REMARK    4  A    between atoms: C2_6  and  C3_7 
REMARK       I    between atoms: C3_7  and  N2_9 
REMARK    5  A    between atoms: N2_9  and  C4_11 
REMARK    6  A    between atoms: N3_14  and  C7_15 
ROOT
HETATM    1  C3  UNL     1     -18.662  -2.984   3.083  1.00  0.00     0.236 C 
HETATM    2  O3  UNL     1     -19.332  -4.025   3.319  1.00  0.00    -0.272 OA
HETATM    3  N2  UNL     1     -17.685  -2.943   2.058  1.00  0.00    -0.346 N 
ATOM      4  H2  UNL     1     -17.148  -2.094   1.875  1.00  0.00     0.163 HD
ENDROOT
BRANCH   1   5
HETATM    5  C2  UNL     1     -18.883  -1.750   3.887  1.00  0.00     0.238 C 
BRANCH   5   6
HETATM    6  N1  UNL     1     -19.404  -1.978   5.182  1.00  0.00    -0.298 N 
BRANCH   6   7
HETATM    7  S1  UNL     1     -18.297  -2.145   6.434  1.00  0.00     0.225 S 
HETATM    8  C1  UNL     1     -16.618  -1.862   5.951  1.00  0.00     0.186 C 
HETATM    9  O1  UNL     1     -18.635  -1.182   7.535  1.00  0.00    -0.206 OA
HETATM   10  O2  UNL     1     -18.383  -3.530   7.003  1.00  0.00    -0.206 OA
ENDBRANCH   6   7
BRANCH   6  11
HETATM   11  C14 UNL     1     -20.693  -1.555   5.483  1.00  0.00     0.096 C 
HETATM   12  C15 UNL     1     -21.283  -0.630   4.437  1.00  0.00     0.026 C 
HETATM   13  C16 UNL     1     -22.477   0.043   5.133  1.00  0.00     0.002 C 
HETATM   14  C17 UNL     1     -23.544  -1.035   5.230  1.00  0.00     0.000 C 
HETATM   15  C18 UNL     1     -23.050  -2.189   6.034  1.00  0.00     0.002 C 
HETATM   16  C19 UNL     1     -21.691  -2.703   5.613  1.00  0.00     0.026 C 
ENDBRANCH   6  11
ENDBRANCH   5   6
ENDBRANCH   1   5
BRANCH   3  17
HETATM   17  C4  UNL     1     -17.472  -4.146   1.276  1.00  0.00     0.178 C 
HETATM   18  C5  UNL     1     -16.846  -3.744  -0.037  1.00  0.00     0.054 C 
HETATM   19  C6  UNL     1     -15.437  -3.399   0.390  1.00  0.00     0.129 C 
HETATM   20  N3  UNL     1     -15.107  -4.458   1.305  1.00  0.00    -0.346 N 
HETATM   21  C13 UNL     1     -16.324  -4.890   1.901  1.00  0.00     0.243 C 
HETATM   22  O4  UNL     1     -16.489  -5.736   2.797  1.00  0.00    -0.271 OA
BRANCH  20  23
HETATM   23  C7  UNL     1     -13.785  -4.974   1.561  1.00  0.00     0.087 C 
HETATM   24  C8  UNL     1     -13.848  -6.445   1.828  1.00  0.00     0.025 C 
HETATM   25  C9  UNL     1     -12.979  -6.805   2.996  1.00  0.00     0.002 C 
HETATM   26  C10 UNL     1     -11.595  -6.183   2.781  1.00  0.00     0.000 C 
HETATM   27  C11 UNL     1     -11.701  -4.677   2.929  1.00  0.00     0.002 C 
HETATM   28  C12 UNL     1     -13.139  -4.275   2.738  1.00  0.00     0.025 C 
ENDBRANCH  20  23
ENDBRANCH   3  17
TORSDOF 6
ENDMDL
MODEL 4
REMARK VINA RESULT: -7.869221895      0.543      1.092
REMARK  6 active torsions:
REMARK  status: ('A' for Active; 'I' for Inactive)
REMARK    1  A    between atoms: S1_2  and  N1_5 
REMARK    2  A    between atoms: N1_5  and  C2_6 
REMARK    3  A    between atoms: N1_5  and  C14_23 
REMARK    4  A    between atoms: C2_6  and  C3_7 
REMARK       I    between atoms: C3_7  and  N2_9 
REMARK    5  A    between atoms: N2_9  and  C4_11 
REMARK    6  A    between atoms: N3_14  and  C7_15 
ROOT
HETATM    1  C3  UNL     1     -16.965  -2.729   4.817  1.00  0.00     0.236 C 
HETATM    2  O3  UNL     1     -16.305  -3.128   5.814  1.00  0.00    -0.272 OA
HETATM    3  N2  UNL     1     -18.378  -2.616   4.855  1.00  0.00    -0.346 N 
ATOM      4  H2  UNL     1     -18.902  -2.291   4.042  1.00  0.00     0.163 HD
ENDROOT
BRANCH   1   5
HETATM    5  C2  UNL     1     -16.269  -2.359   3.554  1.00  0.00     0.238 C 
BRANCH   5   6
HETATM    6  N1  UNL     1     -16.350  -3.332   2.531  1.00  0.00    -0.298 N 
BRANCH   6   7
HETATM    7  S1  UNL     1     -17.662  -3.236   1.486  1.00  0.00     0.225 S 
HETATM    8  C1  UNL     1     -17.311  -3.792  -0.157  1.00  0.00     0.186 C 
HETATM    9  O1  UNL     1     -18.795  -4.059   2.025  1.00  0.00    -0.206 OA
HETATM   10  O2  UNL     1     -18.135  -1.816   1.399  1.00  0.00    -0.206 OA
ENDBRANCH   6   7
BRANCH   6  11
HETATM   11  C14 UNL     1     -15.189  -3.957   2.090  1.00  0.00     0.096 C 
HETATM   12  C15 UNL     1     -13.921  -3.267   2.552  1.00  0.00     0.026 C 
HETATM   13  C16 UNL     1     -12.815  -3.825   1.642  1.00  0.00     0.002 C 
HETATM   14  C17 UNL     1     -12.584  -5.249   2.118  1.00  0.00     0.000 C 
HETATM   15  C18 UNL     1     -13.831  -6.055   1.983  1.00  0.00     0.002 C 
HETATM   16  C19 UNL     1     -15.060  -5.400   2.571  1.00  0.00     0.026 C 
ENDBRANCH   6  11
ENDBRANCH   5   6
ENDBRANCH   1   5
BRANCH   3  17
HETATM   17  C4  UNL     1     -19.053  -2.977   6.087  1.00  0.00     0.178 C 
HETATM   18  C5  UNL     1     -18.992  -1.790   7.016  1.00  0.00     0.054 C 
HETATM   19  C6  UNL     1     -19.991  -0.851   6.379  1.00  0.00     0.129 C 
HETATM   20  N3  UNL     1     -21.082  -1.723   6.035  1.00  0.00    -0.346 N 
HETATM   21  C13 UNL     1     -20.529  -3.011   5.795  1.00  0.00     0.243 C 
HETATM   22  O4  UNL     1     -21.106  -4.040   5.406  1.00  0.00    -0.271 OA
BRANCH  20  23
HETATM   23  C7  UNL     1     -22.473  -1.346   5.953  1.00  0.00     0.087 C 
HETATM   24  C8  UNL     1     -23.344  -2.535   6.209  1.00  0.00     0.025 C 
HETATM   25  C9  UNL     1     -24.474  -2.581   5.222  1.00  0.00     0.002 C 
HETATM   26  C10 UNL     1     -25.145  -1.203   5.189  1.00  0.00     0.000 C 
HETATM   27  C11 UNL     1     -24.205  -0.210   4.535  1.00  0.00     0.002 C 
HETATM   28  C12 UNL     1     -22.804  -0.759   4.597  1.00  0.00     0.025 C 
ENDBRANCH  20  23
ENDBRANCH   3  17
TORSDOF 6
ENDMDL
MODEL 5
REMARK VINA RESULT: -7.681455918      1.981      8.542
REMARK  6 active torsions:
REMARK  status: ('A' for Active; 'I' for Inactive)
REMARK    1  A    between atoms: S1_2  and  N1_5 
REMARK    2  A    between atoms: N1_5  and  C2_6 
REMARK    3  A    between atoms: N1_5  and  C14_23 
REMARK    4  A    between atoms: C2_6  and  C3_7 
REMARK       I    between atoms: C3_7  and  N2_9 
REMARK    5  A    between atoms: N2_9  and  C4_11 
REMARK    6  A    between atoms: N3_14  and  C7_15 
ROOT
HETATM    1  C3  UNL     1     -19.257  -2.848   3.440  1.00  0.00     0.236 C 
HETATM    2  O3  UNL     1     -19.713  -3.967   3.800  1.00  0.00    -0.272 OA
HETATM    3  N2  UNL     1     -18.328  -2.729   2.377  1.00  0.00    -0.346 N 
ATOM      4  H2  UNL     1     -17.966  -1.818   2.093  1.00  0.00     0.163 HD
ENDROOT
BRANCH   1   5
HETATM    5  C2  UNL     1     -19.690  -1.603   4.133  1.00  0.00     0.238 C 
BRANCH   5   6
HETATM    6  N1  UNL     1     -20.202  -1.803   5.435  1.00  0.00    -0.298 N 
BRANCH   6   7
HETATM    7  S1  UNL     1     -19.107  -1.746   6.707  1.00  0.00     0.225 S 
HETATM    8  C1  UNL     1     -17.415  -1.657   6.194  1.00  0.00     0.186 C 
HETATM    9  O1  UNL     1     -19.397  -0.550   7.567  1.00  0.00    -0.206 OA
HETATM   10  O2  UNL     1     -19.263  -2.967   7.563  1.00  0.00    -0.206 OA
ENDBRANCH   6   7
BRANCH   6  11
HETATM   11  C14 UNL     1     -21.539  -1.521   5.693  1.00  0.00     0.096 C 
HETATM   12  C15 UNL     1     -22.168  -0.597   4.669  1.00  0.00     0.026 C 
HETATM   13  C16 UNL     1     -23.452  -0.081   5.339  1.00  0.00     0.002 C 
HETATM   14  C17 UNL     1     -24.413  -1.258   5.325  1.00  0.00     0.000 C 
HETATM   15  C18 UNL     1     -23.846  -2.405   6.090  1.00  0.00     0.002 C 
HETATM   16  C19 UNL     1     -22.426  -2.763   5.711  1.00  0.00     0.026 C 
ENDBRANCH   6  11
ENDBRANCH   5   6
ENDBRANCH   1   5
BRANCH   3  17
HETATM   17  C4  UNL     1     -17.909  -3.944   1.704  1.00  0.00     0.178 C 
HETATM   18  C5  UNL     1     -17.113  -3.550   0.485  1.00  0.00     0.054 C 
HETATM   19  C6  UNL     1     -15.817  -3.078   1.107  1.00  0.00     0.129 C 
HETATM   20  N3  UNL     1     -15.563  -4.069   2.118  1.00  0.00    -0.346 N 
HETATM   21  C13 UNL     1     -16.826  -4.568   2.540  1.00  0.00     0.243 C 
HETATM   22  O4  UNL     1     -17.071  -5.386   3.443  1.00  0.00    -0.271 OA
BRANCH  20  23
HETATM   23  C7  UNL     1     -14.265  -4.468   2.604  1.00  0.00     0.087 C 
HETATM   24  C8  UNL     1     -13.268  -3.378   2.367  1.00  0.00     0.025 C 
HETATM   25  C9  UNL     1     -11.985  -3.946   1.835  1.00  0.00     0.002 C 
HETATM   26  C10 UNL     1     -11.561  -5.110   2.736  1.00  0.00     0.000 C 
HETATM   27  C11 UNL     1     -12.517  -6.269   2.532  1.00  0.00     0.002 C 
HETATM   28  C12 UNL     1     -13.793  -5.740   1.932  1.00  0.00     0.025 C 
ENDBRANCH  20  23
ENDBRANCH   3  17
TORSDOF 6
ENDMDL
