MODEL 1
REMARK VINA RESULT: -5.940932003      0.000      0.000
REMARK  6 active torsions:
REMARK  status: ('A' for Active; 'I' for Inactive)
REMARK    1  A    between atoms: N1_1  and  N2_4 
REMARK    2  A    between atoms: N3_6  and  C1_8 
REMARK    3  A    between atoms: C1_8  and  C2_9 
REMARK    4  A    between atoms: C4_11  and  O1_12 
REMARK    5  A    between atoms: C5_14  and  C6_15 
REMARK    6  A    between atoms: C6_15  and  O2_16 
ROOT
HETATM    1  C2  UNL     1      65.198  95.206  51.294  1.00  0.00     0.143 C 
HETATM    2  C3  UNL     1      65.697  95.786  52.575  1.00  0.00     0.068 C 
HETATM    3  C4  UNL     1      67.013  95.043  52.777  1.00  0.00     0.151 C 
HETATM    4  C5  UNL     1      67.375  94.692  51.360  1.00  0.00     0.174 C 
HETATM    5  O3  UNL     1      66.189  94.468  50.713  1.00  0.00    -0.374 OA
ENDROOT
BRANCH   1   6
HETATM    6  C1  UNL     1      64.736  96.269  50.311  1.00  0.00     0.172 C 
BRANCH   6   7
HETATM    7  N3  UNL     1      64.958  97.598  50.829  1.00  0.00    -0.320 N 
HETATM    8  N2  UNL     1      65.056  98.531  50.001  1.00  0.00    -0.254 N 
ATOM      9  H2  UNL     1      65.990  98.428  49.605  1.00  0.00     0.207 HD
ATOM     10  H3  UNL     1      65.032  97.770  51.832  1.00  0.00     0.181 HD
BRANCH   8  11
HETATM   11  N1  UNL     1      64.581  99.512  49.429  1.00  0.00    -0.331 N 
ATOM     12  H12 UNL     1      64.387 100.147  50.203  1.00  0.00     0.178 HD
ATOM     13  H11 UNL     1      64.292  99.991  48.576  1.00  0.00     0.178 HD
ENDBRANCH   8  11
ENDBRANCH   6   7
ENDBRANCH   1   6
BRANCH   3  14
HETATM   14  O1  UNL     1      66.747  93.906  53.518  1.00  0.00    -0.393 OA
ATOM     15  H1  UNL     1      67.428  93.821  54.175  1.00  0.00     0.210 HD
ENDBRANCH   3  14
BRANCH   4  16
HETATM   16  C6  UNL     1      68.177  93.387  51.320  1.00  0.00     0.198 C 
BRANCH  16  17
HETATM   17  O2  UNL     1      69.453  93.591  50.840  1.00  0.00    -0.398 OA
ATOM     18  H2  UNL     1      70.094  93.095  51.335  1.00  0.00     0.209 HD
ENDBRANCH  16  17
ENDBRANCH   4  16
TORSDOF 6
ENDMDL
MODEL 2
REMARK VINA RESULT: -5.846635898      1.284      1.284
REMARK  6 active torsions:
REMARK  status: ('A' for Active; 'I' for Inactive)
REMARK    1  A    between atoms: N1_1  and  N2_4 
REMARK    2  A    between atoms: N3_6  and  C1_8 
REMARK    3  A    between atoms: C1_8  and  C2_9 
REMARK    4  A    between atoms: C4_11  and  O1_12 
REMARK    5  A    between atoms: C5_14  and  C6_15 
REMARK    6  A    between atoms: C6_15  and  O2_16 
ROOT
HETATM    1  C2  UNL     1      65.279  95.287  51.335  1.00  0.00     0.143 C 
HETATM    2  C3  UNL     1      65.761  95.686  52.689  1.00  0.00     0.068 C 
HETATM    3  C4  UNL     1      67.047  94.880  52.827  1.00  0.00     0.151 C 
HETATM    4  C5  UNL     1      67.437  94.694  51.386  1.00  0.00     0.174 C 
HETATM    5  O3  UNL     1      66.262  94.592  50.689  1.00  0.00    -0.374 OA
ENDROOT
BRANCH   1   6
HETATM    6  C1  UNL     1      64.877  96.478  50.481  1.00  0.00     0.172 C 
BRANCH   6   7
HETATM    7  N3  UNL     1      64.342  96.057  49.208  1.00  0.00    -0.320 N 
HETATM    8  N2  UNL     1      63.709  96.905  48.541  1.00  0.00    -0.254 N 
ATOM      9  H2  UNL     1      62.803  96.975  49.004  1.00  0.00     0.207 HD
ATOM     10  H3  UNL     1      64.475  95.105  48.867  1.00  0.00     0.181 HD
BRANCH   8  11
HETATM   11  N1  UNL     1      63.640  97.696  47.599  1.00  0.00    -0.331 N 
ATOM     12  H12 UNL     1      63.807  98.594  48.052  1.00  0.00     0.178 HD
ATOM     13  H11 UNL     1      63.499  97.888  46.608  1.00  0.00     0.178 HD
ENDBRANCH   8  11
ENDBRANCH   6   7
ENDBRANCH   1   6
BRANCH   3  14
HETATM   14  O1  UNL     1      66.726  93.669  53.415  1.00  0.00    -0.393 OA
ATOM     15  H1  UNL     1      66.713  93.009  52.732  1.00  0.00     0.210 HD
ENDBRANCH   3  14
BRANCH   4  16
HETATM   16  C6  UNL     1      68.198  93.378  51.203  1.00  0.00     0.198 C 
BRANCH  16  17
HETATM   17  O2  UNL     1      69.504  93.597  50.819  1.00  0.00    -0.398 OA
ATOM     18  H2  UNL     1      69.782  92.973  50.159  1.00  0.00     0.209 HD
ENDBRANCH  16  17
ENDBRANCH   4  16
TORSDOF 6
ENDMDL
MODEL 3
REMARK VINA RESULT: -5.688531618      3.642      4.833
REMARK  6 active torsions:
REMARK  status: ('A' for Active; 'I' for Inactive)
REMARK    1  A    between atoms: N1_1  and  N2_4 
REMARK    2  A    between atoms: N3_6  and  C1_8 
REMARK    3  A    between atoms: C1_8  and  C2_9 
REMARK    4  A    between atoms: C4_11  and  O1_12 
REMARK    5  A    between atoms: C5_14  and  C6_15 
REMARK    6  A    between atoms: C6_15  and  O2_16 
ROOT
HETATM    1  C2  UNL     1      67.349  94.786  51.981  1.00  0.00     0.143 C 
HETATM    2  C3  UNL     1      66.464  94.979  53.167  1.00  0.00     0.068 C 
HETATM    3  C4  UNL     1      65.222  95.606  52.545  1.00  0.00     0.151 C 
HETATM    4  C5  UNL     1      65.298  95.083  51.137  1.00  0.00     0.174 C 
HETATM    5  O3  UNL     1      66.633  95.000  50.839  1.00  0.00    -0.374 OA
ENDROOT
BRANCH   1   6
HETATM    6  C1  UNL     1      67.959  93.395  51.926  1.00  0.00     0.172 C 
BRANCH   6   7
HETATM    7  N3  UNL     1      68.538  93.125  50.632  1.00  0.00    -0.320 N 
HETATM    8  N2  UNL     1      69.784  93.024  50.567  1.00  0.00    -0.254 N 
ATOM      9  H2  UNL     1      70.124  93.983  50.623  1.00  0.00     0.207 HD
ATOM     10  H3  UNL     1      67.954  93.020  49.803  1.00  0.00     0.181 HD
BRANCH   8  11
HETATM   11  N1  UNL     1      70.801  92.337  50.469  1.00  0.00    -0.331 N 
ATOM     12  H12 UNL     1      70.669  91.639  51.201  1.00  0.00     0.178 HD
ATOM     13  H11 UNL     1      71.694  92.130  50.022  1.00  0.00     0.178 HD
ENDBRANCH   8  11
ENDBRANCH   6   7
ENDBRANCH   1   6
BRANCH   3  14
HETATM   14  O1  UNL     1      65.382  96.980  52.574  1.00  0.00    -0.393 OA
ATOM     15  H1  UNL     1      65.477  97.242  53.482  1.00  0.00     0.210 HD
ENDBRANCH   3  14
BRANCH   4  16
HETATM   16  C6  UNL     1      64.668  96.080  50.160  1.00  0.00     0.198 C 
BRANCH  16  17
HETATM   17  O2  UNL     1      64.323  95.475  48.970  1.00  0.00    -0.398 OA
ATOM     18  H2  UNL     1      64.868  94.718  48.793  1.00  0.00     0.209 HD
ENDBRANCH  16  17
ENDBRANCH   4  16
TORSDOF 6
ENDMDL
MODEL 4
REMARK VINA RESULT: -5.134549715      3.566      5.290
REMARK  6 active torsions:
REMARK  status: ('A' for Active; 'I' for Inactive)
REMARK    1  A    between atoms: N1_1  and  N2_4 
REMARK    2  A    between atoms: N3_6  and  C1_8 
REMARK    3  A    between atoms: C1_8  and  C2_9 
REMARK    4  A    between atoms: C4_11  and  O1_12 
REMARK    5  A    between atoms: C5_14  and  C6_15 
REMARK    6  A    between atoms: C6_15  and  O2_16 
ROOT
HETATM    1  C2  UNL     1      65.471  96.732  50.606  1.00  0.00     0.143 C 
HETATM    2  C3  UNL     1      64.972  98.007  51.198  1.00  0.00     0.068 C 
HETATM    3  C4  UNL     1      64.235  98.643  50.025  1.00  0.00     0.151 C 
HETATM    4  C5  UNL     1      63.860  97.430  49.218  1.00  0.00     0.174 C 
HETATM    5  O3  UNL     1      64.882  96.534  49.390  1.00  0.00    -0.374 OA
ENDROOT
BRANCH   1   6
HETATM    6  C1  UNL     1      65.191  95.527  51.490  1.00  0.00     0.172 C 
BRANCH   6   7
HETATM    7  N3  UNL     1      66.393  95.061  52.140  1.00  0.00    -0.320 N 
HETATM    8  N2  UNL     1      67.095  94.227  51.526  1.00  0.00    -0.254 N 
ATOM      9  H2  UNL     1      66.590  93.346  51.620  1.00  0.00     0.207 HD
ATOM     10  H3  UNL     1      66.659  95.399  53.065  1.00  0.00     0.181 HD
BRANCH   8  11
HETATM   11  N1  UNL     1      68.094  93.945  50.865  1.00  0.00    -0.331 N 
ATOM     12  H12 UNL     1      67.774  93.154  50.307  1.00  0.00     0.178 HD
ATOM     13  H11 UNL     1      69.067  94.113  50.608  1.00  0.00     0.178 HD
ENDBRANCH   8  11
ENDBRANCH   6   7
ENDBRANCH   1   6
BRANCH   3  14
HETATM   14  O1  UNL     1      65.136  99.437  49.339  1.00  0.00    -0.393 OA
ATOM     15  H1  UNL     1      65.321 100.197  49.877  1.00  0.00     0.210 HD
ENDBRANCH   3  14
BRANCH   4  16
HETATM   16  C6  UNL     1      63.797  97.777  47.728  1.00  0.00     0.198 C 
BRANCH  16  17
HETATM   17  O2  UNL     1      63.059  98.920  47.505  1.00  0.00    -0.398 OA
ATOM     18  H2  UNL     1      62.217  98.883  47.944  1.00  0.00     0.209 HD
ENDBRANCH  16  17
ENDBRANCH   4  16
TORSDOF 6
ENDMDL
MODEL 5
REMARK VINA RESULT: -4.895400380      3.249      4.489
REMARK  6 active torsions:
REMARK  status: ('A' for Active; 'I' for Inactive)
REMARK    1  A    between atoms: N1_1  and  N2_4 
REMARK    2  A    between atoms: N3_6  and  C1_8 
REMARK    3  A    between atoms: C1_8  and  C2_9 
REMARK    4  A    between atoms: C4_11  and  O1_12 
REMARK    5  A    between atoms: C5_14  and  C6_15 
REMARK    6  A    between atoms: C6_15  and  O2_16 
ROOT
HETATM    1  C2  UNL     1      63.631  98.279  48.636  1.00  0.00     0.143 C 
HETATM    2  C3  UNL     1      64.647  99.216  49.198  1.00  0.00     0.068 C 
HETATM    3  C4  UNL     1      65.306  98.370  50.281  1.00  0.00     0.151 C 
HETATM    4  C5  UNL     1      65.070  96.980  49.756  1.00  0.00     0.174 C 
HETATM    5  O3  UNL     1      63.859  97.021  49.117  1.00  0.00    -0.374 OA
ENDROOT
BRANCH   1   6
HETATM    6  C1  UNL     1      63.650  98.236  47.118  1.00  0.00     0.172 C 
BRANCH   6   7
HETATM    7  N3  UNL     1      63.969  99.528  46.558  1.00  0.00    -0.320 N 
HETATM    8  N2  UNL     1      64.721  99.554  45.559  1.00  0.00    -0.254 N 
ATOM      9  H2  UNL     1      65.654  99.381  45.933  1.00  0.00     0.207 HD
ATOM     10  H3  UNL     1      63.595 100.387  46.962  1.00  0.00     0.181 HD
BRANCH   8  11
HETATM   11  N1  UNL     1      64.891  99.685  44.346  1.00  0.00    -0.331 N 
ATOM     12  H12 UNL     1      64.514 100.616  44.169  1.00  0.00     0.178 HD
ATOM     13  H11 UNL     1      65.218  99.325  43.450  1.00  0.00     0.178 HD
ENDBRANCH   8  11
ENDBRANCH   6   7
ENDBRANCH   1   6
BRANCH   3  14
HETATM   14  O1  UNL     1      64.615  98.580  51.461  1.00  0.00    -0.393 OA
ATOM     15  H1  UNL     1      65.177  98.310  52.178  1.00  0.00     0.210 HD
ENDBRANCH   3  14
BRANCH   4  16
HETATM   16  C6  UNL     1      64.948  95.985  50.913  1.00  0.00     0.198 C 
BRANCH  16  17
HETATM   17  O2  UNL     1      66.083  95.976  51.695  1.00  0.00    -0.398 OA
ATOM     18  H2  UNL     1      65.893  95.695  52.582  1.00  0.00     0.209 HD
ENDBRANCH  16  17
ENDBRANCH   4  16
TORSDOF 6
ENDMDL
