MODEL 1
REMARK VINA RESULT: -7.433880427      0.000      0.000
REMARK  14 active torsions:
REMARK  status: ('A' for Active; 'I' for Inactive)
REMARK    1  A    between atoms: C2_2  and  C3_3 
REMARK    2  A    between atoms: C3_3  and  C4_4 
REMARK    3  A    between atoms: C4_4  and  N1_5 
REMARK    4  A    between atoms: C6_7  and  O1_8 
REMARK    5  A    between atoms: C7_10  and  C8_11 
REMARK    6  A    between atoms: C12_16  and  C13_17 
REMARK    7  A    between atoms: C13_17  and  N2_18 
REMARK    8  A    between atoms: C16_21  and  O3_22 
REMARK    9  A    between atoms: O3_22  and  C17_23 
REMARK   10  A    between atoms: C18_25  and  C19_26 
REMARK   11  A    between atoms: C19_26  and  O5_27 
REMARK   12  A    between atoms: C20_29  and  O6_30 
REMARK   13  A    between atoms: C21_32  and  O7_33 
REMARK   14  A    between atoms: C22_35  and  O8_36 
ROOT
HETATM    1  C8  UNL     1     -13.522   1.622 -17.414  1.00  0.00     0.129 C 
HETATM    2  O2  UNL     1     -13.842   1.466 -16.026  1.00  0.00    -0.364 OA
HETATM    3  C9  UNL     1     -14.839   0.590 -16.358  1.00  0.00     0.155 C 
HETATM    4  C10 UNL     1     -16.064   1.377 -16.694  1.00  0.00     0.035 C 
HETATM    5  C11 UNL     1     -15.647   2.774 -17.200  1.00  0.00     0.012 C 
HETATM    6  C12 UNL     1     -14.478   2.478 -18.143  1.00  0.00     0.056 C 
HETATM    7  C16 UNL     1     -13.964   0.169 -17.546  1.00  0.00     0.193 C 
ENDROOT
BRANCH   1   8
HETATM    8  C7  UNL     1     -12.063   1.864 -17.559  1.00  0.00     0.065 A 
HETATM    9  C6  UNL     1     -11.384   2.862 -16.862  1.00  0.00     0.095 A 
HETATM   10  C5  UNL     1     -10.063   2.844 -17.249  1.00  0.00     0.130 A 
HETATM   11  N1  UNL     1      -9.887   1.883 -18.151  1.00  0.00    -0.335 N 
HETATM   12  C22 UNL     1     -11.096   1.295 -18.334  1.00  0.00     0.154 A 
BRANCH   9  13
HETATM   13  O1  UNL     1     -11.953   3.738 -15.917  1.00  0.00    -0.358 OA
ATOM     14  H1  UNL     1     -11.736   3.772 -14.992  1.00  0.00     0.217 HD
ENDBRANCH   9  13
BRANCH  11  15
HETATM   15  C4  UNL     1      -8.637   1.511 -18.834  1.00  0.00     0.130 C 
BRANCH  15  16
HETATM   16  C3  UNL     1      -7.846   2.718 -19.211  1.00  0.00     0.020 C 
BRANCH  16  17
HETATM   17  C2  UNL     1      -6.617   2.959 -18.407  1.00  0.00    -0.003 C 
HETATM   18  C1  UNL     1      -6.636   4.254 -17.639  1.00  0.00     0.005 C 
ENDBRANCH  16  17
ENDBRANCH  15  16
ENDBRANCH  11  15
BRANCH  12  19
HETATM   19  O8  UNL     1     -11.280   0.237 -19.220  1.00  0.00    -0.345 OA
ATOM     20  H8  UNL     1     -11.196  -0.670 -18.950  1.00  0.00     0.219 HD
ENDBRANCH  12  19
ENDBRANCH   1   8
BRANCH   6  21
HETATM   21  C13 UNL     1     -14.008   3.691 -18.830  1.00  0.00     0.279 C 
BRANCH  21  22
HETATM   22  N2  UNL     1     -14.939   4.778 -18.414  1.00  0.00     0.080 N 
HETATM   23  C14 UNL     1     -14.189   5.761 -17.644  1.00  0.00     0.309 C 
HETATM   24  C15 UNL     1     -15.512   5.391 -19.603  1.00  0.00     0.309 C 
ENDBRANCH  21  22
ENDBRANCH   6  21
BRANCH   7  25
HETATM   25  O3  UNL     1     -14.674  -0.069 -18.673  1.00  0.00    -0.347 OA
BRANCH  25  26
HETATM   26  C17 UNL     1     -14.551  -1.226 -19.348  1.00  0.00     0.292 C 
HETATM   27  O4  UNL     1     -13.518  -1.964 -18.769  1.00  0.00    -0.348 OA
HETATM   28  C18 UNL     1     -14.120  -2.939 -17.984  1.00  0.00     0.179 C 
HETATM   29  C20 UNL     1     -15.326  -3.382 -18.748  1.00  0.00     0.182 C 
HETATM   30  C21 UNL     1     -15.727  -2.113 -19.476  1.00  0.00     0.204 C 
BRANCH  28  31
HETATM   31  C19 UNL     1     -13.101  -4.051 -17.810  1.00  0.00     0.198 C 
BRANCH  31  32
HETATM   32  O5  UNL     1     -13.640  -5.156 -17.170  1.00  0.00    -0.398 OA
ATOM     33  H5  UNL     1     -12.971  -5.772 -16.898  1.00  0.00     0.209 HD
ENDBRANCH  31  32
ENDBRANCH  28  31
BRANCH  29  34
HETATM   34  O6  UNL     1     -15.005  -4.392 -19.682  1.00  0.00    -0.390 OA
ATOM     35  H6  UNL     1     -15.365  -5.233 -19.425  1.00  0.00     0.210 HD
ENDBRANCH  29  34
BRANCH  30  36
HETATM   36  O7  UNL     1     -16.023  -2.475 -20.796  1.00  0.00    -0.388 OA
ATOM     37  H7  UNL     1     -16.605  -1.869 -21.239  1.00  0.00     0.210 HD
ENDBRANCH  30  36
ENDBRANCH  25  26
ENDBRANCH   7  25
TORSDOF 14
ENDMDL
MODEL 2
REMARK VINA RESULT: -7.342708261      2.853      6.261
REMARK  14 active torsions:
REMARK  status: ('A' for Active; 'I' for Inactive)
REMARK    1  A    between atoms: C2_2  and  C3_3 
REMARK    2  A    between atoms: C3_3  and  C4_4 
REMARK    3  A    between atoms: C4_4  and  N1_5 
REMARK    4  A    between atoms: C6_7  and  O1_8 
REMARK    5  A    between atoms: C7_10  and  C8_11 
REMARK    6  A    between atoms: C12_16  and  C13_17 
REMARK    7  A    between atoms: C13_17  and  N2_18 
REMARK    8  A    between atoms: C16_21  and  O3_22 
REMARK    9  A    between atoms: O3_22  and  C17_23 
REMARK   10  A    between atoms: C18_25  and  C19_26 
REMARK   11  A    between atoms: C19_26  and  O5_27 
REMARK   12  A    between atoms: C20_29  and  O6_30 
REMARK   13  A    between atoms: C21_32  and  O7_33 
REMARK   14  A    between atoms: C22_35  and  O8_36 
ROOT
HETATM    1  C8  UNL     1     -13.929   3.097 -18.117  1.00  0.00     0.129 C 
HETATM    2  O2  UNL     1     -13.285   2.633 -19.310  1.00  0.00    -0.364 OA
HETATM    3  C9  UNL     1     -13.055   1.424 -18.711  1.00  0.00     0.155 C 
HETATM    4  C10 UNL     1     -11.798   1.528 -17.908  1.00  0.00     0.035 C 
HETATM    5  C11 UNL     1     -11.588   2.997 -17.483  1.00  0.00     0.012 C 
HETATM    6  C12 UNL     1     -12.984   3.443 -17.038  1.00  0.00     0.056 C 
HETATM    7  C16 UNL     1     -14.363   1.646 -17.942  1.00  0.00     0.193 C 
ENDROOT
BRANCH   1   8
HETATM    8  C7  UNL     1     -15.009   4.050 -18.479  1.00  0.00     0.065 A 
HETATM    9  C6  UNL     1     -14.884   4.988 -19.503  1.00  0.00     0.095 A 
HETATM   10  C5  UNL     1     -16.039   5.735 -19.555  1.00  0.00     0.130 A 
HETATM   11  N1  UNL     1     -16.876   5.308 -18.614  1.00  0.00    -0.335 N 
HETATM   12  C22 UNL     1     -16.251   4.292 -17.969  1.00  0.00     0.154 A 
BRANCH   9  13
HETATM   13  O1  UNL     1     -13.767   5.141 -20.348  1.00  0.00    -0.358 OA
ATOM     14  H1  UNL     1     -13.095   4.488 -20.501  1.00  0.00     0.217 HD
ENDBRANCH   9  13
BRANCH  11  15
HETATM   15  C4  UNL     1     -18.223   5.819 -18.311  1.00  0.00     0.130 C 
BRANCH  15  16
HETATM   16  C3  UNL     1     -19.259   5.142 -19.143  1.00  0.00     0.020 C 
BRANCH  16  17
HETATM   17  C2  UNL     1     -20.478   4.697 -18.416  1.00  0.00    -0.003 C 
HETATM   18  C1  UNL     1     -20.405   3.280 -17.914  1.00  0.00     0.005 C 
ENDBRANCH  16  17
ENDBRANCH  15  16
ENDBRANCH  11  15
BRANCH  12  19
HETATM   19  O8  UNL     1     -16.845   3.604 -16.915  1.00  0.00    -0.345 OA
ATOM     20  H8  UNL     1     -17.057   4.025 -16.090  1.00  0.00     0.219 HD
ENDBRANCH  12  19
ENDBRANCH   1   8
BRANCH   6  21
HETATM   21  C13 UNL     1     -12.970   4.802 -16.475  1.00  0.00     0.279 C 
BRANCH  21  22
HETATM   22  N2  UNL     1     -13.232   4.640 -15.017  1.00  0.00     0.080 N 
HETATM   23  C14 UNL     1     -12.238   5.408 -14.279  1.00  0.00     0.309 C 
HETATM   24  C15 UNL     1     -14.572   5.121 -14.719  1.00  0.00     0.309 C 
ENDBRANCH  21  22
ENDBRANCH   6  21
BRANCH   7  25
HETATM   25  O3  UNL     1     -14.305   1.226 -16.657  1.00  0.00    -0.347 OA
BRANCH  25  26
HETATM   26  C17 UNL     1     -14.910   0.092 -16.262  1.00  0.00     0.292 C 
HETATM   27  O4  UNL     1     -15.945   0.429 -15.388  1.00  0.00    -0.348 OA
HETATM   28  C18 UNL     1     -17.124   0.341 -16.119  1.00  0.00     0.179 C 
HETATM   29  C20 UNL     1     -16.952  -0.841 -17.018  1.00  0.00     0.182 C 
HETATM   30  C21 UNL     1     -15.458  -0.826 -17.283  1.00  0.00     0.204 C 
BRANCH  28  31
HETATM   31  C19 UNL     1     -18.246   0.149 -15.116  1.00  0.00     0.198 C 
BRANCH  31  32
HETATM   32  O5  UNL     1     -19.496   0.207 -15.714  1.00  0.00    -0.398 OA
ATOM     33  H5  UNL     1     -20.193   0.295 -15.076  1.00  0.00     0.209 HD
ENDBRANCH  31  32
ENDBRANCH  28  31
BRANCH  29  34
HETATM   34  O6  UNL     1     -17.313  -2.043 -16.370  1.00  0.00    -0.390 OA
ATOM     35  H6  UNL     1     -18.200  -2.305 -16.589  1.00  0.00     0.210 HD
ENDBRANCH  29  34
BRANCH  30  36
HETATM   36  O7  UNL     1     -15.008  -2.146 -17.159  1.00  0.00    -0.388 OA
ATOM     37  H7  UNL     1     -14.740  -2.539 -17.982  1.00  0.00     0.210 HD
ENDBRANCH  30  36
ENDBRANCH  25  26
ENDBRANCH   7  25
TORSDOF 14
ENDMDL
MODEL 3
REMARK VINA RESULT: -7.292579959      1.022      1.641
REMARK  14 active torsions:
REMARK  status: ('A' for Active; 'I' for Inactive)
REMARK    1  A    between atoms: C2_2  and  C3_3 
REMARK    2  A    between atoms: C3_3  and  C4_4 
REMARK    3  A    between atoms: C4_4  and  N1_5 
REMARK    4  A    between atoms: C6_7  and  O1_8 
REMARK    5  A    between atoms: C7_10  and  C8_11 
REMARK    6  A    between atoms: C12_16  and  C13_17 
REMARK    7  A    between atoms: C13_17  and  N2_18 
REMARK    8  A    between atoms: C16_21  and  O3_22 
REMARK    9  A    between atoms: O3_22  and  C17_23 
REMARK   10  A    between atoms: C18_25  and  C19_26 
REMARK   11  A    between atoms: C19_26  and  O5_27 
REMARK   12  A    between atoms: C20_29  and  O6_30 
REMARK   13  A    between atoms: C21_32  and  O7_33 
REMARK   14  A    between atoms: C22_35  and  O8_36 
ROOT
HETATM    1  C8  UNL     1     -13.394   1.566 -17.545  1.00  0.00     0.129 C 
HETATM    2  O2  UNL     1     -13.720   1.558 -16.150  1.00  0.00    -0.364 OA
HETATM    3  C9  UNL     1     -14.800   0.761 -16.411  1.00  0.00     0.155 C 
HETATM    4  C10 UNL     1     -15.944   1.634 -16.813  1.00  0.00     0.035 C 
HETATM    5  C11 UNL     1     -15.394   2.937 -17.432  1.00  0.00     0.012 C 
HETATM    6  C12 UNL     1     -14.265   2.450 -18.345  1.00  0.00     0.056 C 
HETATM    7  C16 UNL     1     -13.979   0.159 -17.557  1.00  0.00     0.193 C 
ENDROOT
BRANCH   1   8
HETATM    8  C7  UNL     1     -11.920   1.650 -17.707  1.00  0.00     0.065 A 
HETATM    9  C6  UNL     1     -11.132   2.582 -17.033  1.00  0.00     0.095 A 
HETATM   10  C5  UNL     1      -9.824   2.418 -17.430  1.00  0.00     0.130 A 
HETATM   11  N1  UNL     1      -9.760   1.429 -18.317  1.00  0.00    -0.335 N 
HETATM   12  C22 UNL     1     -11.026   0.969 -18.480  1.00  0.00     0.154 A 
BRANCH   9  13
HETATM   13  O1  UNL     1     -11.595   3.529 -16.099  1.00  0.00    -0.358 OA
ATOM     14  H1  UNL     1     -11.163   4.345 -15.876  1.00  0.00     0.217 HD
ENDBRANCH   9  13
BRANCH  11  15
HETATM   15  C4  UNL     1      -8.563   0.915 -19.002  1.00  0.00     0.130 C 
BRANCH  15  16
HETATM   16  C3  UNL     1      -7.938  -0.202 -18.236  1.00  0.00     0.020 C 
BRANCH  16  17
HETATM   17  C2  UNL     1      -8.334  -1.573 -18.658  1.00  0.00    -0.003 C 
HETATM   18  C1  UNL     1      -9.162  -2.309 -17.638  1.00  0.00     0.005 C 
ENDBRANCH  16  17
ENDBRANCH  15  16
ENDBRANCH  11  15
BRANCH  12  19
HETATM   19  O8  UNL     1     -11.330  -0.078 -19.344  1.00  0.00    -0.345 OA
ATOM     20  H8  UNL     1     -11.921  -0.781 -19.102  1.00  0.00     0.219 HD
ENDBRANCH  12  19
ENDBRANCH   1   8
BRANCH   6  21
HETATM   21  C13 UNL     1     -13.682   3.549 -19.129  1.00  0.00     0.279 C 
BRANCH  21  22
HETATM   22  N2  UNL     1     -14.532   4.741 -18.849  1.00  0.00     0.080 N 
HETATM   23  C14 UNL     1     -13.849   5.579 -17.872  1.00  0.00     0.309 C 
HETATM   24  C15 UNL     1     -14.744   5.473 -20.089  1.00  0.00     0.309 C 
ENDBRANCH  21  22
ENDBRANCH   6  21
BRANCH   7  25
HETATM   25  O3  UNL     1     -14.715  -0.100 -18.662  1.00  0.00    -0.347 OA
BRANCH  25  26
HETATM   26  C17 UNL     1     -14.581  -1.254 -19.340  1.00  0.00     0.292 C 
HETATM   27  O4  UNL     1     -13.539  -1.982 -18.765  1.00  0.00    -0.348 OA
HETATM   28  C18 UNL     1     -14.129  -2.966 -17.981  1.00  0.00     0.179 C 
HETATM   29  C20 UNL     1     -15.331  -3.420 -18.743  1.00  0.00     0.182 C 
HETATM   30  C21 UNL     1     -15.747  -2.154 -19.468  1.00  0.00     0.204 C 
BRANCH  28  31
HETATM   31  C19 UNL     1     -13.098  -4.066 -17.812  1.00  0.00     0.198 C 
BRANCH  31  32
HETATM   32  O5  UNL     1     -13.610  -5.161 -17.132  1.00  0.00    -0.398 OA
ATOM     33  H5  UNL     1     -14.014  -4.913 -16.309  1.00  0.00     0.209 HD
ENDBRANCH  31  32
ENDBRANCH  28  31
BRANCH  29  34
HETATM   34  O6  UNL     1     -15.001  -4.424 -19.681  1.00  0.00    -0.390 OA
ATOM     35  H6  UNL     1     -14.218  -4.201 -20.171  1.00  0.00     0.210 HD
ENDBRANCH  29  34
BRANCH  30  36
HETATM   36  O7  UNL     1     -16.042  -2.516 -20.788  1.00  0.00    -0.388 OA
ATOM     37  H7  UNL     1     -16.613  -3.272 -20.861  1.00  0.00     0.210 HD
ENDBRANCH  30  36
ENDBRANCH  25  26
ENDBRANCH   7  25
TORSDOF 14
ENDMDL
MODEL 4
REMARK VINA RESULT: -7.281140137      2.597      5.883
REMARK  14 active torsions:
REMARK  status: ('A' for Active; 'I' for Inactive)
REMARK    1  A    between atoms: C2_2  and  C3_3 
REMARK    2  A    between atoms: C3_3  and  C4_4 
REMARK    3  A    between atoms: C4_4  and  N1_5 
REMARK    4  A    between atoms: C6_7  and  O1_8 
REMARK    5  A    between atoms: C7_10  and  C8_11 
REMARK    6  A    between atoms: C12_16  and  C13_17 
REMARK    7  A    between atoms: C13_17  and  N2_18 
REMARK    8  A    between atoms: C16_21  and  O3_22 
REMARK    9  A    between atoms: O3_22  and  C17_23 
REMARK   10  A    between atoms: C18_25  and  C19_26 
REMARK   11  A    between atoms: C19_26  and  O5_27 
REMARK   12  A    between atoms: C20_29  and  O6_30 
REMARK   13  A    between atoms: C21_32  and  O7_33 
REMARK   14  A    between atoms: C22_35  and  O8_36 
ROOT
HETATM    1  C8  UNL     1     -13.766   3.396 -18.524  1.00  0.00     0.129 C 
HETATM    2  O2  UNL     1     -12.908   2.940 -19.576  1.00  0.00    -0.364 OA
HETATM    3  C9  UNL     1     -12.982   1.668 -19.079  1.00  0.00     0.155 C 
HETATM    4  C10 UNL     1     -11.960   1.524 -17.998  1.00  0.00     0.035 C 
HETATM    5  C11 UNL     1     -11.685   2.909 -17.374  1.00  0.00     0.012 C 
HETATM    6  C12 UNL     1     -13.083   3.515 -17.221  1.00  0.00     0.056 C 
HETATM    7  C16 UNL     1     -14.403   2.015 -18.619  1.00  0.00     0.193 C 
ENDROOT
BRANCH   1   8
HETATM    8  C7  UNL     1     -14.599   4.522 -19.020  1.00  0.00     0.065 A 
HETATM    9  C6  UNL     1     -14.153   5.437 -19.972  1.00  0.00     0.095 A 
HETATM   10  C5  UNL     1     -15.144   6.368 -20.183  1.00  0.00     0.130 A 
HETATM   11  N1  UNL     1     -16.186   6.077 -19.409  1.00  0.00    -0.335 N 
HETATM   12  C22 UNL     1     -15.852   4.963 -18.710  1.00  0.00     0.154 A 
BRANCH   9  13
HETATM   13  O1  UNL     1     -12.900   5.410 -20.616  1.00  0.00    -0.358 OA
ATOM     14  H1  UNL     1     -12.157   5.964 -20.407  1.00  0.00     0.217 HD
ENDBRANCH   9  13
BRANCH  11  15
HETATM   15  C4  UNL     1     -17.461   6.804 -19.310  1.00  0.00     0.130 C 
BRANCH  15  16
HETATM   16  C3  UNL     1     -18.379   6.443 -20.429  1.00  0.00     0.020 C 
BRANCH  16  17
HETATM   17  C2  UNL     1     -19.241   5.253 -20.196  1.00  0.00    -0.003 C 
HETATM   18  C1  UNL     1     -20.031   5.315 -18.916  1.00  0.00     0.005 C 
ENDBRANCH  16  17
ENDBRANCH  15  16
ENDBRANCH  11  15
BRANCH  12  19
HETATM   19  O8  UNL     1     -16.719   4.373 -17.795  1.00  0.00    -0.345 OA
ATOM     20  H8  UNL     1     -16.970   3.458 -17.851  1.00  0.00     0.219 HD
ENDBRANCH  12  19
ENDBRANCH   1   8
BRANCH   6  21
HETATM   21  C13 UNL     1     -13.044   4.810 -16.522  1.00  0.00     0.279 C 
BRANCH  21  22
HETATM   22  N2  UNL     1     -13.303   4.502 -15.086  1.00  0.00     0.080 N 
HETATM   23  C14 UNL     1     -12.308   5.195 -14.278  1.00  0.00     0.309 C 
HETATM   24  C15 UNL     1     -14.643   4.950 -14.740  1.00  0.00     0.309 C 
ENDBRANCH  21  22
ENDBRANCH   6  21
BRANCH   7  25
HETATM   25  O3  UNL     1     -14.716   1.490 -17.412  1.00  0.00    -0.347 OA
BRANCH  25  26
HETATM   26  C17 UNL     1     -15.714   0.599 -17.272  1.00  0.00     0.292 C 
HETATM   27  O4  UNL     1     -15.683  -0.269 -18.364  1.00  0.00    -0.348 OA
HETATM   28  C18 UNL     1     -15.095  -1.446 -17.918  1.00  0.00     0.179 C 
HETATM   29  C20 UNL     1     -15.604  -1.646 -16.526  1.00  0.00     0.182 C 
HETATM   30  C21 UNL     1     -15.782  -0.219 -16.042  1.00  0.00     0.204 C 
BRANCH  28  31
HETATM   31  C19 UNL     1     -15.544  -2.545 -18.863  1.00  0.00     0.198 C 
BRANCH  31  32
HETATM   32  O5  UNL     1     -15.793  -2.064 -20.140  1.00  0.00    -0.398 OA
ATOM     33  H5  UNL     1     -15.047  -1.601 -20.499  1.00  0.00     0.209 HD
ENDBRANCH  31  32
ENDBRANCH  28  31
BRANCH  29  34
HETATM   34  O6  UNL     1     -16.848  -2.314 -16.520  1.00  0.00    -0.390 OA
ATOM     35  H6  UNL     1     -16.740  -3.255 -16.600  1.00  0.00     0.210 HD
ENDBRANCH  29  34
BRANCH  30  36
HETATM   36  O7  UNL     1     -17.018  -0.160 -15.390  1.00  0.00    -0.388 OA
ATOM     37  H7  UNL     1     -17.501   0.642 -15.553  1.00  0.00     0.210 HD
ENDBRANCH  30  36
ENDBRANCH  25  26
ENDBRANCH   7  25
TORSDOF 14
ENDMDL
MODEL 5
REMARK VINA RESULT: -7.246336525      2.744      6.066
REMARK  14 active torsions:
REMARK  status: ('A' for Active; 'I' for Inactive)
REMARK    1  A    between atoms: C2_2  and  C3_3 
REMARK    2  A    between atoms: C3_3  and  C4_4 
REMARK    3  A    between atoms: C4_4  and  N1_5 
REMARK    4  A    between atoms: C6_7  and  O1_8 
REMARK    5  A    between atoms: C7_10  and  C8_11 
REMARK    6  A    between atoms: C12_16  and  C13_17 
REMARK    7  A    between atoms: C13_17  and  N2_18 
REMARK    8  A    between atoms: C16_21  and  O3_22 
REMARK    9  A    between atoms: O3_22  and  C17_23 
REMARK   10  A    between atoms: C18_25  and  C19_26 
REMARK   11  A    between atoms: C19_26  and  O5_27 
REMARK   12  A    between atoms: C20_29  and  O6_30 
REMARK   13  A    between atoms: C21_32  and  O7_33 
REMARK   14  A    between atoms: C22_35  and  O8_36 
ROOT
HETATM    1  C8  UNL     1     -13.829   2.939 -18.052  1.00  0.00     0.129 C 
HETATM    2  O2  UNL     1     -13.251   2.477 -19.280  1.00  0.00    -0.364 OA
HETATM    3  C9  UNL     1     -12.988   1.268 -18.696  1.00  0.00     0.155 C 
HETATM    4  C10 UNL     1     -11.689   1.371 -17.964  1.00  0.00     0.035 C 
HETATM    5  C11 UNL     1     -11.457   2.839 -17.549  1.00  0.00     0.012 C 
HETATM    6  C12 UNL     1     -12.825   3.283 -17.026  1.00  0.00     0.056 C 
HETATM    7  C16 UNL     1     -14.252   1.488 -17.856  1.00  0.00     0.193 C 
ENDROOT
BRANCH   1   8
HETATM    8  C7  UNL     1     -14.928   3.892 -18.352  1.00  0.00     0.065 A 
HETATM    9  C6  UNL     1     -16.084   3.988 -17.579  1.00  0.00     0.095 A 
HETATM   10  C5  UNL     1     -16.910   4.933 -18.144  1.00  0.00     0.130 A 
HETATM   11  N1  UNL     1     -16.324   5.430 -19.229  1.00  0.00    -0.335 N 
HETATM   12  C22 UNL     1     -15.129   4.800 -19.350  1.00  0.00     0.154 A 
BRANCH   9  13
HETATM   13  O1  UNL     1     -16.358   3.247 -16.413  1.00  0.00    -0.358 OA
ATOM     14  H1  UNL     1     -17.147   2.743 -16.249  1.00  0.00     0.217 HD
ENDBRANCH   9  13
BRANCH  11  15
HETATM   15  C4  UNL     1     -16.848   6.462 -20.139  1.00  0.00     0.130 C 
BRANCH  15  16
HETATM   16  C3  UNL     1     -18.103   6.009 -20.806  1.00  0.00     0.020 C 
BRANCH  16  17
HETATM   17  C2  UNL     1     -19.360   6.620 -20.295  1.00  0.00    -0.003 C 
HETATM   18  C1  UNL     1     -20.066   5.785 -19.260  1.00  0.00     0.005 C 
ENDBRANCH  16  17
ENDBRANCH  15  16
ENDBRANCH  11  15
BRANCH  12  19
HETATM   19  O8  UNL     1     -14.244   5.079 -20.387  1.00  0.00    -0.345 OA
ATOM     20  H8  UNL     1     -13.325   5.262 -20.233  1.00  0.00     0.219 HD
ENDBRANCH  12  19
ENDBRANCH   1   8
BRANCH   6  21
HETATM   21  C13 UNL     1     -12.782   4.642 -16.462  1.00  0.00     0.279 C 
BRANCH  21  22
HETATM   22  N2  UNL     1     -13.043   4.483 -15.003  1.00  0.00     0.080 N 
HETATM   23  C14 UNL     1     -11.945   5.096 -14.267  1.00  0.00     0.309 C 
HETATM   24  C15 UNL     1     -14.303   5.133 -14.675  1.00  0.00     0.309 C 
ENDBRANCH  21  22
ENDBRANCH   6  21
BRANCH   7  25
HETATM   25  O3  UNL     1     -14.123   1.065 -16.577  1.00  0.00    -0.347 OA
BRANCH  25  26
HETATM   26  C17 UNL     1     -14.841   0.031 -16.104  1.00  0.00     0.292 C 
HETATM   27  O4  UNL     1     -15.982   0.539 -15.481  1.00  0.00    -0.348 OA
HETATM   28  C18 UNL     1     -17.034   0.355 -16.370  1.00  0.00     0.179 C 
HETATM   29  C20 UNL     1     -16.784  -0.967 -17.020  1.00  0.00     0.182 C 
HETATM   30  C21 UNL     1     -15.268  -1.036 -17.034  1.00  0.00     0.204 C 
BRANCH  28  31
HETATM   31  C19 UNL     1     -18.309   0.367 -15.548  1.00  0.00     0.198 C 
BRANCH  31  32
HETATM   32  O5  UNL     1     -19.443   0.302 -16.343  1.00  0.00    -0.398 OA
ATOM     33  H5  UNL     1     -20.199  -0.011 -15.861  1.00  0.00     0.209 HD
ENDBRANCH  31  32
ENDBRANCH  28  31
BRANCH  29  34
HETATM   34  O6  UNL     1     -17.305  -2.031 -16.249  1.00  0.00    -0.390 OA
ATOM     35  H6  UNL     1     -16.639  -2.680 -16.055  1.00  0.00     0.210 HD
ENDBRANCH  29  34
BRANCH  30  36
HETATM   36  O7  UNL     1     -14.912  -2.324 -16.620  1.00  0.00    -0.388 OA
ATOM     37  H7  UNL     1     -13.978  -2.494 -16.650  1.00  0.00     0.210 HD
ENDBRANCH  30  36
ENDBRANCH  25  26
ENDBRANCH   7  25
TORSDOF 14
ENDMDL
