MODEL 1
REMARK VINA RESULT: -5.501975487      0.000      0.000
REMARK  4 active torsions:
REMARK  status: ('A' for Active; 'I' for Inactive)
REMARK    1  A    between atoms: N2_4  and  N3_6 
REMARK    2  A    between atoms: N3_6  and  C1_8 
REMARK    3  A    between atoms: N4_9  and  C2_11 
REMARK    4  A    between atoms: C2_11  and  C3_12 
ROOT
HETATM    1  N3  UNL     1      41.917  72.990  13.907  1.00  0.00    -0.283 N 
ATOM      2  H3  UNL     1      41.722  73.697  13.199  1.00  0.00     0.189 HD
ENDROOT
BRANCH   1   3
HETATM    3  N2  UNL     1      41.101  71.861  13.954  1.00  0.00    -0.248 N 
HETATM    4  N1  UNL     1      40.355  71.628  12.956  1.00  0.00    -0.331 N 
ATOM      5  H12 UNL     1      40.364  72.256  12.153  1.00  0.00     0.178 HD
ATOM      6  H11 UNL     1      39.758  70.801  12.991  1.00  0.00     0.178 HD
ATOM      7  H2  UNL     1      41.104  71.242  14.765  1.00  0.00     0.207 HD
ENDBRANCH   1   3
BRANCH   1   8
HETATM    8  C1  UNL     1      43.007  73.209  14.794  1.00  0.00     0.194 C 
HETATM    9  N4  UNL     1      43.365  72.285  15.592  1.00  0.00    -0.385 N 
ATOM     10  H4  UNL     1      42.838  71.413  15.553  1.00  0.00     0.160 HD
BRANCH   9  11
HETATM   11  C2  UNL     1      44.431  72.350  16.536  1.00  0.00     0.125 C 
BRANCH  11  12
HETATM   12  C3  UNL     1      45.090  71.007  16.705  1.00  0.00     0.003 A 
HETATM   13  C4  UNL     1      46.599  71.001  16.655  1.00  0.00     0.007 A 
HETATM   14  C5  UNL     1      45.869  70.674  17.918  1.00  0.00     0.007 A 
ENDBRANCH  11  12
ENDBRANCH   9  11
ENDBRANCH   1   8
TORSDOF 4
ENDMDL
MODEL 2
REMARK VINA RESULT: -5.402441151      3.054      3.859
REMARK  4 active torsions:
REMARK  status: ('A' for Active; 'I' for Inactive)
REMARK    1  A    between atoms: N2_4  and  N3_6 
REMARK    2  A    between atoms: N3_6  and  C1_8 
REMARK    3  A    between atoms: N4_9  and  C2_11 
REMARK    4  A    between atoms: C2_11  and  C3_12 
ROOT
HETATM    1  N3  UNL     1      42.228  72.269  14.043  1.00  0.00    -0.283 N 
ATOM      2  H3  UNL     1      42.839  71.484  13.823  1.00  0.00     0.189 HD
ENDROOT
BRANCH   1   3
HETATM    3  N2  UNL     1      40.849  72.072  13.977  1.00  0.00    -0.248 N 
HETATM    4  N1  UNL     1      40.375  71.553  12.924  1.00  0.00    -0.331 N 
ATOM      5  H12 UNL     1      40.996  71.293  12.157  1.00  0.00     0.178 HD
ATOM      6  H11 UNL     1      39.367  71.408  12.875  1.00  0.00     0.178 HD
ATOM      7  H2  UNL     1      40.241  72.337  14.753  1.00  0.00     0.207 HD
ENDBRANCH   1   3
BRANCH   1   8
HETATM    8  C1  UNL     1      42.827  73.508  14.401  1.00  0.00     0.194 C 
HETATM    9  N4  UNL     1      44.021  73.758  14.039  1.00  0.00    -0.385 N 
ATOM     10  H4  UNL     1      44.498  73.038  13.497  1.00  0.00     0.160 HD
BRANCH   9  11
HETATM   11  C2  UNL     1      44.757  74.947  14.317  1.00  0.00     0.125 C 
BRANCH  11  12
HETATM   12  C3  UNL     1      44.149  75.705  15.468  1.00  0.00     0.003 A 
HETATM   13  C4  UNL     1      44.889  76.947  15.904  1.00  0.00     0.007 A 
HETATM   14  C5  UNL     1      43.535  77.037  15.279  1.00  0.00     0.007 A 
ENDBRANCH  11  12
ENDBRANCH   9  11
ENDBRANCH   1   8
TORSDOF 4
ENDMDL
MODEL 3
REMARK VINA RESULT: -5.268081663      2.550      3.611
REMARK  4 active torsions:
REMARK  status: ('A' for Active; 'I' for Inactive)
REMARK    1  A    between atoms: N2_4  and  N3_6 
REMARK    2  A    between atoms: N3_6  and  C1_8 
REMARK    3  A    between atoms: N4_9  and  C2_11 
REMARK    4  A    between atoms: C2_11  and  C3_12 
ROOT
HETATM    1  N3  UNL     1      42.231  72.302  14.043  1.00  0.00    -0.283 N 
ATOM      2  H3  UNL     1      42.861  71.582  13.689  1.00  0.00     0.189 HD
ENDROOT
BRANCH   1   3
HETATM    3  N2  UNL     1      40.858  72.068  13.978  1.00  0.00    -0.248 N 
HETATM    4  N1  UNL     1      40.396  71.547  12.920  1.00  0.00    -0.331 N 
ATOM      5  H12 UNL     1      41.022  71.312  12.150  1.00  0.00     0.178 HD
ATOM      6  H11 UNL     1      39.391  71.375  12.873  1.00  0.00     0.178 HD
ATOM      7  H2  UNL     1      40.246  72.309  14.758  1.00  0.00     0.207 HD
ENDBRANCH   1   3
BRANCH   1   8
HETATM    8  C1  UNL     1      42.801  73.490  14.576  1.00  0.00     0.194 C 
HETATM    9  N4  UNL     1      43.606  73.418  15.559  1.00  0.00    -0.385 N 
ATOM     10  H4  UNL     1      43.805  72.486  15.922  1.00  0.00     0.160 HD
BRANCH   9  11
HETATM   11  C2  UNL     1      44.256  74.511  16.202  1.00  0.00     0.125 C 
BRANCH  11  12
HETATM   12  C3  UNL     1      44.507  75.638  15.234  1.00  0.00     0.003 A 
HETATM   13  C4  UNL     1      43.966  76.988  15.640  1.00  0.00     0.007 A 
HETATM   14  C5  UNL     1      45.438  76.742  15.557  1.00  0.00     0.007 A 
ENDBRANCH  11  12
ENDBRANCH   9  11
ENDBRANCH   1   8
TORSDOF 4
ENDMDL
MODEL 4
REMARK VINA RESULT: -5.227917544      1.057      1.549
REMARK  4 active torsions:
REMARK  status: ('A' for Active; 'I' for Inactive)
REMARK    1  A    between atoms: N2_4  and  N3_6 
REMARK    2  A    between atoms: N3_6  and  C1_8 
REMARK    3  A    between atoms: N4_9  and  C2_11 
REMARK    4  A    between atoms: C2_11  and  C3_12 
ROOT
HETATM    1  N3  UNL     1      41.169  71.770  14.035  1.00  0.00    -0.283 N 
ATOM      2  H3  UNL     1      40.975  71.086  14.766  1.00  0.00     0.189 HD
ENDROOT
BRANCH   1   3
HETATM    3  N2  UNL     1      40.474  71.664  12.831  1.00  0.00    -0.248 N 
HETATM    4  N1  UNL     1      39.218  71.507  12.884  1.00  0.00    -0.331 N 
ATOM      5  H12 UNL     1      38.746  71.462  13.787  1.00  0.00     0.178 HD
ATOM      6  H11 UNL     1      38.710  71.430  12.003  1.00  0.00     0.178 HD
ATOM      7  H2  UNL     1      40.961  71.711  11.935  1.00  0.00     0.207 HD
ENDBRANCH   1   3
BRANCH   1   8
HETATM    8  C1  UNL     1      42.135  72.780  14.298  1.00  0.00     0.194 C 
HETATM    9  N4  UNL     1      43.077  72.552  15.122  1.00  0.00    -0.385 N 
ATOM     10  H4  UNL     1      43.090  71.632  15.563  1.00  0.00     0.160 HD
BRANCH   9  11
HETATM   11  C2  UNL     1      44.114  73.457  15.491  1.00  0.00     0.125 C 
BRANCH  11  12
HETATM   12  C3  UNL     1      45.173  72.765  16.308  1.00  0.00     0.003 A 
HETATM   13  C4  UNL     1      44.866  72.595  17.777  1.00  0.00     0.007 A 
HETATM   14  C5  UNL     1      44.958  71.413  16.868  1.00  0.00     0.007 A 
ENDBRANCH  11  12
ENDBRANCH   9  11
ENDBRANCH   1   8
TORSDOF 4
ENDMDL
MODEL 5
REMARK VINA RESULT: -5.213489969      2.045      2.977
REMARK  4 active torsions:
REMARK  status: ('A' for Active; 'I' for Inactive)
REMARK    1  A    between atoms: N2_4  and  N3_6 
REMARK    2  A    between atoms: N3_6  and  C1_8 
REMARK    3  A    between atoms: N4_9  and  C2_11 
REMARK    4  A    between atoms: C2_11  and  C3_12 
ROOT
HETATM    1  N3  UNL     1      41.184  71.757  14.093  1.00  0.00    -0.283 N 
ATOM      2  H3  UNL     1      40.895  71.115  14.830  1.00  0.00     0.189 HD
ENDROOT
BRANCH   1   3
HETATM    3  N2  UNL     1      40.514  71.702  12.871  1.00  0.00    -0.248 N 
HETATM    4  N1  UNL     1      39.264  71.499  12.890  1.00  0.00    -0.331 N 
ATOM      5  H12 UNL     1      38.778  71.381  13.779  1.00  0.00     0.178 HD
ATOM      6  H11 UNL     1      38.773  71.459  11.996  1.00  0.00     0.178 HD
ATOM      7  H2  UNL     1      41.014  71.822  11.990  1.00  0.00     0.207 HD
ENDBRANCH   1   3
BRANCH   1   8
HETATM    8  C1  UNL     1      42.249  72.659  14.365  1.00  0.00     0.194 C 
HETATM    9  N4  UNL     1      43.049  72.417  15.324  1.00  0.00    -0.385 N 
ATOM     10  H4  UNL     1      42.881  71.567  15.861  1.00  0.00     0.160 HD
BRANCH   9  11
HETATM   11  C2  UNL     1      44.159  73.219  15.720  1.00  0.00     0.125 C 
BRANCH  11  12
HETATM   12  C3  UNL     1      44.210  74.502  14.933  1.00  0.00     0.003 A 
HETATM   13  C4  UNL     1      45.345  75.439  15.272  1.00  0.00     0.007 A 
HETATM   14  C5  UNL     1      45.278  74.760  13.942  1.00  0.00     0.007 A 
ENDBRANCH  11  12
ENDBRANCH   9  11
ENDBRANCH   1   8
TORSDOF 4
ENDMDL
