MODEL 1
REMARK VINA RESULT: -5.485157394      0.000      0.000
REMARK  3 active torsions:
REMARK  status: ('A' for Active; 'I' for Inactive)
REMARK    1  A    between atoms: N2_4  and  N3_6 
REMARK    2  A    between atoms: C1_8  and  N4_9 
REMARK    3  A    between atoms: C3_11  and  C4_12 
ROOT
HETATM    1  N3  UNL     1      41.910  72.993  13.953  1.00  0.00    -0.282 N 
ATOM      2  H3  UNL     1      41.723  73.752  13.297  1.00  0.00     0.189 HD
HETATM    3  C1  UNL     1      42.899  73.097  14.771  1.00  0.00     0.197 C 
ENDROOT
BRANCH   3   4
HETATM    4  N4  UNL     1      43.680  74.275  14.709  1.00  0.00    -0.363 N 
HETATM    5  C2  UNL     1      43.712  75.750  15.050  1.00  0.00     0.155 A 
HETATM    6  C3  UNL     1      44.862  75.029  14.365  1.00  0.00     0.141 A 
BRANCH   6   7
HETATM    7  C4  UNL     1      46.069  74.912  15.207  1.00  0.00     0.080 C 
HETATM    8  N5  UNL     1      47.045  74.209  14.783  1.00  0.00    -0.409 N 
ATOM      9  H52 UNL     1      46.976  73.743  13.878  1.00  0.00     0.155 HD
ATOM     10  H51 UNL     1      47.879  74.129  15.365  1.00  0.00     0.155 HD
ENDBRANCH   6   7
ENDBRANCH   3   4
BRANCH   1  11
HETATM   11  N2  UNL     1      41.088  71.868  13.943  1.00  0.00    -0.248 N 
HETATM   12  N1  UNL     1      40.351  71.651  12.941  1.00  0.00    -0.331 N 
ATOM     13  H12 UNL     1      40.369  72.301  12.156  1.00  0.00     0.178 HD
ATOM     14  H11 UNL     1      39.750  70.826  12.934  1.00  0.00     0.178 HD
ATOM     15  H2  UNL     1      41.082  71.227  14.737  1.00  0.00     0.207 HD
ENDBRANCH   1  11
TORSDOF 3
ENDMDL
MODEL 2
REMARK VINA RESULT: -5.360163056      1.294      1.544
REMARK  3 active torsions:
REMARK  status: ('A' for Active; 'I' for Inactive)
REMARK    1  A    between atoms: N2_4  and  N3_6 
REMARK    2  A    between atoms: C1_8  and  N4_9 
REMARK    3  A    between atoms: C3_11  and  C4_12 
ROOT
HETATM    1  N3  UNL     1      42.082  72.212  14.061  1.00  0.00    -0.282 N 
ATOM      2  H3  UNL     1      42.349  71.389  14.601  1.00  0.00     0.189 HD
HETATM    3  C1  UNL     1      42.623  73.349  14.335  1.00  0.00     0.197 C 
ENDROOT
BRANCH   3   4
HETATM    4  N4  UNL     1      43.570  73.387  15.386  1.00  0.00    -0.363 N 
HETATM    5  C2  UNL     1      43.987  72.741  16.691  1.00  0.00     0.155 A 
HETATM    6  C3  UNL     1      44.729  73.912  16.067  1.00  0.00     0.141 A 
BRANCH   6   7
HETATM    7  C4  UNL     1      46.078  73.563  15.580  1.00  0.00     0.080 C 
HETATM    8  N5  UNL     1      46.747  74.444  14.947  1.00  0.00    -0.409 N 
ATOM      9  H52 UNL     1      46.343  75.367  14.788  1.00  0.00     0.155 HD
ATOM     10  H51 UNL     1      47.680  74.203  14.611  1.00  0.00     0.155 HD
ENDBRANCH   6   7
ENDBRANCH   3   4
BRANCH   1  11
HETATM   11  N2  UNL     1      41.139  72.082  13.043  1.00  0.00    -0.248 N 
HETATM   12  N1  UNL     1      40.178  71.277  13.192  1.00  0.00    -0.331 N 
ATOM     13  H12 UNL     1      40.107  70.736  14.054  1.00  0.00     0.178 HD
ATOM     14  H11 UNL     1      39.487  71.182  12.447  1.00  0.00     0.178 HD
ATOM     15  H2  UNL     1      41.225  72.631  12.188  1.00  0.00     0.207 HD
ENDBRANCH   1  11
TORSDOF 3
ENDMDL
MODEL 3
REMARK VINA RESULT: -5.261568573      2.160      2.313
REMARK  3 active torsions:
REMARK  status: ('A' for Active; 'I' for Inactive)
REMARK    1  A    between atoms: N2_4  and  N3_6 
REMARK    2  A    between atoms: C1_8  and  N4_9 
REMARK    3  A    between atoms: C3_11  and  C4_12 
ROOT
HETATM    1  N3  UNL     1      42.228  72.244  14.261  1.00  0.00    -0.282 N 
ATOM      2  H3  UNL     1      42.382  71.408  14.826  1.00  0.00     0.189 HD
HETATM    3  C1  UNL     1      42.863  73.326  14.553  1.00  0.00     0.197 C 
ENDROOT
BRANCH   3   4
HETATM    4  N4  UNL     1      43.749  73.290  15.656  1.00  0.00    -0.363 N 
HETATM    5  C2  UNL     1      43.915  73.662  17.114  1.00  0.00     0.155 A 
HETATM    6  C3  UNL     1      44.996  72.966  16.304  1.00  0.00     0.141 A 
BRANCH   6   7
HETATM    7  C4  UNL     1      45.253  71.577  16.735  1.00  0.00     0.080 C 
HETATM    8  N5  UNL     1      46.091  70.877  16.078  1.00  0.00    -0.409 N 
ATOM      9  H52 UNL     1      46.568  71.284  15.273  1.00  0.00     0.155 HD
ATOM     10  H51 UNL     1      46.268  69.917  16.375  1.00  0.00     0.155 HD
ENDBRANCH   6   7
ENDBRANCH   3   4
BRANCH   1  11
HETATM   11  N2  UNL     1      41.335  72.189  13.193  1.00  0.00    -0.248 N 
HETATM   12  N1  UNL     1      40.364  71.383  13.242  1.00  0.00    -0.331 N 
ATOM     13  H12 UNL     1      40.249  70.787  14.061  1.00  0.00     0.178 HD
ATOM     14  H11 UNL     1      39.710  71.343  12.460  1.00  0.00     0.178 HD
ATOM     15  H2  UNL     1      41.464  72.792  12.381  1.00  0.00     0.207 HD
ENDBRANCH   1  11
TORSDOF 3
ENDMDL
MODEL 4
REMARK VINA RESULT: -5.164609196      1.236      2.317
REMARK  3 active torsions:
REMARK  status: ('A' for Active; 'I' for Inactive)
REMARK    1  A    between atoms: N2_4  and  N3_6 
REMARK    2  A    between atoms: C1_8  and  N4_9 
REMARK    3  A    between atoms: C3_11  and  C4_12 
ROOT
HETATM    1  N3  UNL     1      41.965  73.015  14.048  1.00  0.00    -0.282 N 
ATOM      2  H3  UNL     1      41.766  73.804  13.433  1.00  0.00     0.189 HD
HETATM    3  C1  UNL     1      42.932  73.104  14.895  1.00  0.00     0.197 C 
ENDROOT
BRANCH   3   4
HETATM    4  N4  UNL     1      43.671  74.310  14.920  1.00  0.00    -0.363 N 
HETATM    5  C2  UNL     1      44.892  75.018  14.369  1.00  0.00     0.155 A 
HETATM    6  C3  UNL     1      43.932  75.661  15.357  1.00  0.00     0.141 A 
BRANCH   6   7
HETATM    7  C4  UNL     1      43.152  76.775  14.782  1.00  0.00     0.080 C 
HETATM    8  N5  UNL     1      41.967  76.545  14.373  1.00  0.00    -0.409 N 
ATOM      9  H52 UNL     1      41.580  75.604  14.449  1.00  0.00     0.155 HD
ATOM     10  H51 UNL     1      41.428  77.315  13.976  1.00  0.00     0.155 HD
ENDBRANCH   6   7
ENDBRANCH   3   4
BRANCH   1  11
HETATM   11  N2  UNL     1      41.185  71.864  13.953  1.00  0.00    -0.248 N 
HETATM   12  N1  UNL     1      40.458  71.694  12.935  1.00  0.00    -0.331 N 
ATOM     13  H12 UNL     1      40.454  72.400  12.199  1.00  0.00     0.178 HD
ATOM     14  H11 UNL     1      39.887  70.851  12.865  1.00  0.00     0.178 HD
ATOM     15  H2  UNL     1      41.201  71.167  14.698  1.00  0.00     0.207 HD
ENDBRANCH   1  11
TORSDOF 3
ENDMDL
MODEL 5
REMARK VINA RESULT: -5.139320541      1.890      2.107
REMARK  3 active torsions:
REMARK  status: ('A' for Active; 'I' for Inactive)
REMARK    1  A    between atoms: N2_4  and  N3_6 
REMARK    2  A    between atoms: C1_8  and  N4_9 
REMARK    3  A    between atoms: C3_11  and  C4_12 
ROOT
HETATM    1  N3  UNL     1      41.280  72.289  13.586  1.00  0.00    -0.282 N 
ATOM      2  H3  UNL     1      41.330  73.147  13.036  1.00  0.00     0.189 HD
HETATM    3  C1  UNL     1      42.063  72.143  14.598  1.00  0.00     0.197 C 
ENDROOT
BRANCH   3   4
HETATM    4  N4  UNL     1      42.959  73.199  14.890  1.00  0.00    -0.363 N 
HETATM    5  C2  UNL     1      43.248  74.668  14.661  1.00  0.00     0.155 A 
HETATM    6  C3  UNL     1      44.135  73.767  15.506  1.00  0.00     0.141 A 
BRANCH   6   7
HETATM    7  C4  UNL     1      44.113  74.101  16.944  1.00  0.00     0.080 C 
HETATM    8  N5  UNL     1      43.818  73.185  17.780  1.00  0.00    -0.409 N 
ATOM      9  H52 UNL     1      43.603  72.245  17.445  1.00  0.00     0.155 HD
ATOM     10  H51 UNL     1      43.803  73.415  18.774  1.00  0.00     0.155 HD
ENDBRANCH   6   7
ENDBRANCH   3   4
BRANCH   1  11
HETATM   11  N2  UNL     1      40.367  71.300  13.224  1.00  0.00    -0.248 N 
HETATM   12  N1  UNL     1      39.209  71.637  12.851  1.00  0.00    -0.331 N 
ATOM     13  H12 UNL     1      38.961  72.626  12.821  1.00  0.00     0.178 HD
ATOM     14  H11 UNL     1      38.541  70.913  12.586  1.00  0.00     0.178 HD
ATOM     15  H2  UNL     1      40.632  70.316  13.260  1.00  0.00     0.207 HD
ENDBRANCH   1  11
TORSDOF 3
ENDMDL
