MODEL 1
REMARK VINA RESULT: -7.368408817      0.000      0.000
REMARK  3 active torsions:
REMARK  status: ('A' for Active; 'I' for Inactive)
REMARK    1  A    between atoms: C4_4  and  C5_5 
REMARK    2  A    between atoms: C9_11  and  C10_12 
REMARK    3  A    between atoms: C12_16  and  O5_17 
ROOT
HETATM    1  C1  UNL     1      13.795 -13.221  21.676  1.00  0.00     0.011 C 
HETATM    2  C2  UNL     1      12.755 -13.270  22.777  1.00  0.00     0.002 C 
HETATM    3  C3  UNL     1      11.463 -12.783  22.192  1.00  0.00     0.026 C 
HETATM    4  C4  UNL     1      10.364 -12.598  23.168  1.00  0.00     0.052 C 
HETATM    5  C6  UNL     1       9.448 -13.813  23.160  1.00  0.00     0.028 C 
HETATM    6  C7  UNL     1      10.285 -14.805  23.961  1.00  0.00     0.022 C 
HETATM    7  C8  UNL     1      11.367 -15.331  23.080  1.00  0.00     0.028 C 
HETATM    8  C9  UNL     1      12.645 -14.604  23.436  1.00  0.00     0.055 C 
HETATM    9  C11 UNL     1      12.455 -14.378  24.919  1.00  0.00     0.059 C 
HETATM   10  C12 UNL     1      11.007 -13.969  25.001  1.00  0.00     0.064 C 
HETATM   11  C13 UNL     1      10.795 -12.546  24.604  1.00  0.00     0.058 C 
ENDROOT
BRANCH   4  12
HETATM   12  C5  UNL     1       9.611 -11.361  22.873  1.00  0.00     0.182 C 
HETATM   13  O1  UNL     1       8.361 -11.312  22.918  1.00  0.00    -0.647 OA
HETATM   14  O2  UNL     1      10.310 -10.220  22.537  1.00  0.00    -0.647 OA
ENDBRANCH   4  12
BRANCH  10  15
HETATM   15  O5  UNL     1      10.542 -14.239  26.291  1.00  0.00    -0.389 OA
ATOM     16  H5  UNL     1      10.197 -15.121  26.361  1.00  0.00     0.210 HD
ENDBRANCH  10  15
BRANCH   8  17
HETATM   17  C10 UNL     1      13.758 -15.507  23.228  1.00  0.00     0.182 C 
HETATM   18  O3  UNL     1      14.759 -15.425  23.978  1.00  0.00    -0.647 OA
HETATM   19  O4  UNL     1      13.795 -16.478  22.237  1.00  0.00    -0.647 OA
ENDBRANCH   8  17
TORSDOF 3
ENDMDL
MODEL 2
REMARK VINA RESULT: -7.347543638      3.501      5.406
REMARK  3 active torsions:
REMARK  status: ('A' for Active; 'I' for Inactive)
REMARK    1  A    between atoms: C4_4  and  C5_5 
REMARK    2  A    between atoms: C9_11  and  C10_12 
REMARK    3  A    between atoms: C12_16  and  O5_17 
ROOT
HETATM    1  C1  UNL     1      11.406 -12.934  25.230  1.00  0.00     0.011 C 
HETATM    2  C2  UNL     1      10.666 -11.616  25.349  1.00  0.00     0.002 C 
HETATM    3  C3  UNL     1       9.940 -11.630  26.661  1.00  0.00     0.026 C 
HETATM    4  C4  UNL     1       9.020 -10.489  26.880  1.00  0.00     0.052 C 
HETATM    5  C6  UNL     1       9.702  -9.424  27.724  1.00  0.00     0.028 C 
HETATM    6  C7  UNL     1      10.609  -8.774  26.683  1.00  0.00     0.022 C 
HETATM    7  C8  UNL     1      11.782  -9.666  26.455  1.00  0.00     0.028 C 
HETATM    8  C9  UNL     1      11.542 -10.422  25.167  1.00  0.00     0.055 C 
HETATM    9  C11 UNL     1      10.774  -9.398  24.361  1.00  0.00     0.059 C 
HETATM   10  C12 UNL     1       9.827  -8.826  25.385  1.00  0.00     0.064 C 
HETATM   11  C13 UNL     1       8.661  -9.721  25.643  1.00  0.00     0.058 C 
ENDROOT
BRANCH   4  12
HETATM   12  C5  UNL     1       7.765 -10.948  27.512  1.00  0.00     0.182 C 
HETATM   13  O1  UNL     1       7.700 -12.005  28.178  1.00  0.00    -0.647 OA
HETATM   14  O2  UNL     1       6.626 -10.184  27.361  1.00  0.00    -0.647 OA
ENDBRANCH   4  12
BRANCH  10  15
HETATM   15  O5  UNL     1       9.439  -7.551  24.966  1.00  0.00    -0.389 OA
ATOM     16  H5  UNL     1       8.517  -7.395  25.127  1.00  0.00     0.210 HD
ENDBRANCH  10  15
BRANCH   8  17
HETATM   17  C10 UNL     1      12.822 -10.665  24.535  1.00  0.00     0.182 C 
HETATM   18  O3  UNL     1      12.874 -10.788  23.288  1.00  0.00    -0.647 OA
HETATM   19  O4  UNL     1      14.021 -10.773  25.226  1.00  0.00    -0.647 OA
ENDBRANCH   8  17
TORSDOF 3
ENDMDL
MODEL 3
REMARK VINA RESULT: -7.309972597      3.623      5.388
REMARK  3 active torsions:
REMARK  status: ('A' for Active; 'I' for Inactive)
REMARK    1  A    between atoms: C4_4  and  C5_5 
REMARK    2  A    between atoms: C9_11  and  C10_12 
REMARK    3  A    between atoms: C12_16  and  O5_17 
ROOT
HETATM    1  C1  UNL     1      10.640 -13.725  26.250  1.00  0.00     0.011 C 
HETATM    2  C2  UNL     1      10.492 -12.216  26.246  1.00  0.00     0.002 C 
HETATM    3  C3  UNL     1      11.166 -11.706  25.008  1.00  0.00     0.026 C 
HETATM    4  C4  UNL     1      11.273 -10.231  24.916  1.00  0.00     0.052 C 
HETATM    5  C6  UNL     1      10.150  -9.680  24.049  1.00  0.00     0.028 C 
HETATM    6  C7  UNL     1       8.978  -9.752  25.023  1.00  0.00     0.022 C 
HETATM    7  C8  UNL     1       8.522 -11.169  25.110  1.00  0.00     0.028 C 
HETATM    8  C9  UNL     1       9.080 -11.755  26.388  1.00  0.00     0.055 C 
HETATM    9  C11 UNL     1       9.072 -10.546  27.296  1.00  0.00     0.059 C 
HETATM   10  C12 UNL     1       9.573  -9.455  26.386  1.00  0.00     0.064 C 
HETATM   11  C13 UNL     1      11.054  -9.499  26.207  1.00  0.00     0.058 C 
ENDROOT
BRANCH   4  12
HETATM   12  C5  UNL     1      12.596  -9.838  24.388  1.00  0.00     0.182 C 
HETATM   13  O1  UNL     1      12.733  -9.278  23.277  1.00  0.00    -0.647 OA
HETATM   14  O2  UNL     1      13.719 -10.098  25.146  1.00  0.00    -0.647 OA
ENDBRANCH   4  12
BRANCH  10  15
HETATM   15  O5  UNL     1       9.132  -8.226  26.883  1.00  0.00    -0.389 OA
ATOM     16  H5  UNL     1       8.400  -7.888  26.380  1.00  0.00     0.210 HD
ENDBRANCH  10  15
BRANCH   8  17
HETATM   17  C10 UNL     1       8.140 -12.736  26.889  1.00  0.00     0.182 C 
HETATM   18  O3  UNL     1       8.026 -12.896  28.127  1.00  0.00    -0.647 OA
HETATM   19  O4  UNL     1       7.339 -13.529  26.078  1.00  0.00    -0.647 OA
ENDBRANCH   8  17
TORSDOF 3
ENDMDL
MODEL 4
REMARK VINA RESULT: -7.251070033      3.714      5.575
REMARK  3 active torsions:
REMARK  status: ('A' for Active; 'I' for Inactive)
REMARK    1  A    between atoms: C4_4  and  C5_5 
REMARK    2  A    between atoms: C9_11  and  C10_12 
REMARK    3  A    between atoms: C12_16  and  O5_17 
ROOT
HETATM    1  C1  UNL     1      10.373  -9.023  27.553  1.00  0.00     0.011 C 
HETATM    2  C2  UNL     1       9.771 -10.318  27.046  1.00  0.00     0.002 C 
HETATM    3  C3  UNL     1       8.290 -10.234  27.261  1.00  0.00     0.026 C 
HETATM    4  C4  UNL     1       7.544 -11.484  26.982  1.00  0.00     0.052 C 
HETATM    5  C6  UNL     1       6.942 -11.431  25.586  1.00  0.00     0.028 C 
HETATM    6  C7  UNL     1       8.174 -11.718  24.733  1.00  0.00     0.022 C 
HETATM    7  C8  UNL     1       9.003 -10.480  24.669  1.00  0.00     0.028 C 
HETATM    8  C9  UNL     1      10.151 -10.643  25.641  1.00  0.00     0.055 C 
HETATM    9  C11 UNL     1      10.400 -12.132  25.557  1.00  0.00     0.059 C 
HETATM   10  C12 UNL     1       9.002 -12.694  25.546  1.00  0.00     0.064 C 
HETATM   11  C13 UNL     1       8.390 -12.720  26.906  1.00  0.00     0.058 C 
ENDROOT
BRANCH   4  12
HETATM   12  C5  UNL     1       6.501 -11.706  28.005  1.00  0.00     0.182 C 
HETATM   13  O1  UNL     1       5.671 -12.639  27.921  1.00  0.00    -0.647 OA
HETATM   14  O2  UNL     1       6.440 -10.855  29.089  1.00  0.00    -0.647 OA
ENDBRANCH   4  12
BRANCH  10  15
HETATM   15  O5  UNL     1       9.037 -13.958  24.951  1.00  0.00    -0.389 OA
ATOM     16  H5  UNL     1       9.623 -13.977  24.204  1.00  0.00     0.210 HD
ENDBRANCH  10  15
BRANCH   8  17
HETATM   17  C10 UNL     1      11.299  -9.935  25.114  1.00  0.00     0.182 C 
HETATM   18  O3  UNL     1      12.451 -10.353  25.383  1.00  0.00    -0.647 OA
HETATM   19  O4  UNL     1      11.214  -8.802  24.316  1.00  0.00    -0.647 OA
ENDBRANCH   8  17
TORSDOF 3
ENDMDL
MODEL 5
REMARK VINA RESULT: -7.241592584      2.335      3.316
REMARK  3 active torsions:
REMARK  status: ('A' for Active; 'I' for Inactive)
REMARK    1  A    between atoms: C4_4  and  C5_5 
REMARK    2  A    between atoms: C9_11  and  C10_12 
REMARK    3  A    between atoms: C12_16  and  O5_17 
ROOT
HETATM    1  C1  UNL     1      11.604 -14.382  23.293  1.00  0.00     0.011 C 
HETATM    2  C2  UNL     1      12.228 -13.040  23.620  1.00  0.00     0.002 C 
HETATM    3  C3  UNL     1      11.114 -12.112  24.003  1.00  0.00     0.026 C 
HETATM    4  C4  UNL     1      11.514 -10.698  24.192  1.00  0.00     0.052 C 
HETATM    5  C6  UNL     1      11.726 -10.411  25.671  1.00  0.00     0.028 C 
HETATM    6  C7  UNL     1      13.091 -11.054  25.893  1.00  0.00     0.022 C 
HETATM    7  C8  UNL     1      12.910 -12.532  25.974  1.00  0.00     0.028 C 
HETATM    8  C9  UNL     1      13.313 -13.120  24.640  1.00  0.00     0.055 C 
HETATM    9  C11 UNL     1      14.417 -12.174  24.222  1.00  0.00     0.059 C 
HETATM   10  C12 UNL     1      13.853 -10.830  24.601  1.00  0.00     0.064 C 
HETATM   11  C13 UNL     1      12.849 -10.336  23.613  1.00  0.00     0.058 C 
ENDROOT
BRANCH   4  12
HETATM   12  C5  UNL     1      10.503  -9.790  23.612  1.00  0.00     0.182 C 
HETATM   13  O1  UNL     1      10.064  -8.796  24.231  1.00  0.00    -0.647 OA
HETATM   14  O2  UNL     1      10.027 -10.049  22.343  1.00  0.00    -0.647 OA
ENDBRANCH   4  12
BRANCH  10  15
HETATM   15  O5  UNL     1      14.913  -9.937  24.777  1.00  0.00    -0.389 OA
ATOM     16  H5  UNL     1      14.961  -9.307  24.068  1.00  0.00     0.210 HD
ENDBRANCH  10  15
BRANCH   8  17
HETATM   17  C10 UNL     1      13.872 -14.436  24.871  1.00  0.00     0.182 C 
HETATM   18  O3  UNL     1      13.659 -15.007  25.967  1.00  0.00    -0.647 OA
HETATM   19  O4  UNL     1      14.643 -15.125  23.945  1.00  0.00    -0.647 OA
ENDBRANCH   8  17
TORSDOF 3
ENDMDL
