MODEL 1
REMARK VINA RESULT: -6.760663296      0.000      0.000
REMARK  15 active torsions:
REMARK  status: ('A' for Active; 'I' for Inactive)
REMARK    1  A    between atoms: C2_2  and  N1_3 
REMARK    2  A    between atoms: C2_2  and  N6_25 
REMARK    3  A    between atoms: N1_3  and  N2_5 
REMARK       I    between atoms: N2_5  and  C3_7 
REMARK    4  A    between atoms: C3_7  and  O2_9 
REMARK    5  A    between atoms: O2_9  and  C4_10 
REMARK    6  A    between atoms: C4_10  and  O3_11 
REMARK    7  A    between atoms: O3_11  and  C5_12 
REMARK    8  A    between atoms: C5_12  and  O4_13 
REMARK    9  A    between atoms: C5_12  and  C6_15 
REMARK   10  A    between atoms: C7_19  and  N4_20 
REMARK   11  A    between atoms: N6_25  and  C8_27 
REMARK   12  A    between atoms: C9_32  and  C10_33 
REMARK   13  A    between atoms: C10_33  and  C11_34 
REMARK   14  A    between atoms: N10_41  and  N11_42 
REMARK   15  A    between atoms: N11_42  and  C16_44 
ROOT
HETATM    1  C1  UNL     1       0.907 -27.680  98.137  1.00  0.00     0.090 C 
HETATM    2  C2  UNL     1       1.409 -26.700  97.112  1.00  0.00     0.093 C 
ENDROOT
BRANCH   2   3
HETATM    3  N1  UNL     1       2.427 -26.993  96.378  1.00  0.00    -0.285 N 
ATOM      4  H1  UNL     1       3.350 -26.677  96.677  1.00  0.00     0.188 HD
BRANCH   3   5
HETATM    5  N2  UNL     1       2.325 -27.723  95.195  1.00  0.00    -0.244 N 
HETATM    6  C3  UNL     1       2.103 -27.000  93.972  1.00  0.00     0.381 C 
HETATM    7  O1  UNL     1       2.003 -25.747  93.966  1.00  0.00    -0.237 OA
ATOM      8  H2  UNL     1       2.406 -28.740  95.196  1.00  0.00     0.192 HD
BRANCH   6   9
HETATM    9  O2  UNL     1       1.990 -27.651  92.755  1.00  0.00    -0.277 OA
BRANCH   9  10
HETATM   10  C4  UNL     1       0.835 -27.415  91.938  1.00  0.00     0.353 C 
BRANCH  10  11
HETATM   11  O3  UNL     1      -0.202 -28.243  92.292  1.00  0.00    -0.330 OA
BRANCH  11  12
HETATM   12  C5  UNL     1      -1.437 -27.599  92.291  1.00  0.00     0.330 C 
BRANCH  12  13
HETATM   13  O4  UNL     1      -2.404 -28.560  92.012  1.00  0.00    -0.365 OA
ATOM     14  H4  UNL     1      -2.813 -28.797  92.835  1.00  0.00     0.213 HD
ENDBRANCH  12  13
BRANCH  12  15
HETATM   15  C6  UNL     1      -1.727 -26.979  93.610  1.00  0.00     0.161 A 
HETATM   16  N3  UNL     1      -1.289 -27.376  94.830  1.00  0.00    -0.240 N 
HETATM   17  O5  UNL     1      -1.753 -26.587  95.751  1.00  0.00    -0.200 OA
ATOM     18  H3  UNL     1      -0.682 -28.178  95.000  1.00  0.00     0.196 HD
HETATM   19  C7  UNL     1      -2.499 -25.658  95.195  1.00  0.00     0.242 A 
HETATM   20  N5  UNL     1      -2.490 -25.892  93.871  1.00  0.00    -0.305 N 
ATOM     21  H5  UNL     1      -2.982 -25.336  93.172  1.00  0.00     0.171 HD
BRANCH  19  22
HETATM   22  N4  UNL     1      -3.091 -24.735  95.873  1.00  0.00    -0.364 N 
ATOM     23  H42 UNL     1      -3.759 -24.807  96.640  1.00  0.00     0.159 HD
ATOM     24  H41 UNL     1      -2.943 -23.741  95.702  1.00  0.00     0.159 HD
ENDBRANCH  19  22
ENDBRANCH  12  15
ENDBRANCH  11  12
ENDBRANCH  10  11
ENDBRANCH   9  10
ENDBRANCH   6   9
ENDBRANCH   3   5
ENDBRANCH   2   3
BRANCH   2  25
HETATM   25  N6  UNL     1       0.785 -25.438  96.926  1.00  0.00    -0.324 N 
ATOM     26  H6  UNL     1       0.595 -25.088  95.987  1.00  0.00     0.169 HD
BRANCH  25  27
HETATM   27  C8  UNL     1       0.461 -24.735  97.967  1.00  0.00     0.166 A 
HETATM   28  N7  UNL     1       1.295 -24.172  98.849  1.00  0.00    -0.279 N 
HETATM   29  N8  UNL     1       0.799 -23.514  99.816  1.00  0.00    -0.296 N 
ATOM     30  H7  UNL     1       2.305 -24.269  98.747  1.00  0.00     0.189 HD
HETATM   31  C9  UNL     1      -0.499 -23.378  99.962  1.00  0.00     0.075 A 
ATOM     32  H8  UNL     1       1.425 -23.081 100.495  1.00  0.00     0.187 HD
HETATM   33  S2  UNL     1      -1.062 -24.277  98.588  1.00  0.00    -0.037 SA
BRANCH  31  34
HETATM   34  C10 UNL     1      -1.328 -22.665 101.000  1.00  0.00     0.126 C 
BRANCH  34  35
HETATM   35  C11 UNL     1      -2.518 -23.510 101.261  1.00  0.00     0.044 A 
HETATM   36  C12 UNL     1      -2.237 -24.630 102.041  1.00  0.00     0.029 A 
HETATM   37  C13 UNL     1      -3.248 -25.495 102.349  1.00  0.00     0.034 A 
HETATM   38  C14 UNL     1      -4.497 -25.231 101.885  1.00  0.00     0.116 A 
HETATM   39  N9  UNL     1      -5.560 -26.110 102.190  1.00  0.00    -0.097 NA
HETATM   40  C15 UNL     1      -4.714 -24.094 101.110  1.00  0.00     0.290 A 
HETATM   41  O6  UNL     1      -5.893 -23.931 100.727  1.00  0.00    -0.264 OA
HETATM   42  N10 UNL     1      -3.763 -23.230 100.788  1.00  0.00    -0.221 N 
BRANCH  42  43
HETATM   43  N11 UNL     1      -3.914 -22.083 100.039  1.00  0.00    -0.269 N 
ATOM     44  H11 UNL     1      -3.986 -21.251 100.625  1.00  0.00     0.189 HD
BRANCH  43  45
HETATM   45  C16 UNL     1      -3.993 -21.774  98.698  1.00  0.00     0.200 C 
HETATM   46  N12 UNL     1      -4.631 -22.769  97.807  1.00  0.00    -0.068 NA
HETATM   47  S1  UNL     1      -3.501 -20.466  97.918  1.00  0.00    -0.043 SA
ENDBRANCH  43  45
ENDBRANCH  42  43
ENDBRANCH  34  35
ENDBRANCH  31  34
ENDBRANCH  25  27
ENDBRANCH   2  25
TORSDOF 15
ENDMDL
MODEL 2
REMARK VINA RESULT: -6.645349918      2.481      4.068
REMARK  15 active torsions:
REMARK  status: ('A' for Active; 'I' for Inactive)
REMARK    1  A    between atoms: C2_2  and  N1_3 
REMARK    2  A    between atoms: C2_2  and  N6_25 
REMARK    3  A    between atoms: N1_3  and  N2_5 
REMARK       I    between atoms: N2_5  and  C3_7 
REMARK    4  A    between atoms: C3_7  and  O2_9 
REMARK    5  A    between atoms: O2_9  and  C4_10 
REMARK    6  A    between atoms: C4_10  and  O3_11 
REMARK    7  A    between atoms: O3_11  and  C5_12 
REMARK    8  A    between atoms: C5_12  and  O4_13 
REMARK    9  A    between atoms: C5_12  and  C6_15 
REMARK   10  A    between atoms: C7_19  and  N4_20 
REMARK   11  A    between atoms: N6_25  and  C8_27 
REMARK   12  A    between atoms: C9_32  and  C10_33 
REMARK   13  A    between atoms: C10_33  and  C11_34 
REMARK   14  A    between atoms: N10_41  and  N11_42 
REMARK   15  A    between atoms: N11_42  and  C16_44 
ROOT
HETATM    1  C1  UNL     1       4.205 -26.254  94.669  1.00  0.00     0.090 C 
HETATM    2  C2  UNL     1       3.245 -27.381  94.399  1.00  0.00     0.093 C 
ENDROOT
BRANCH   2   3
HETATM    3  N1  UNL     1       2.906 -27.667  93.189  1.00  0.00    -0.285 N 
ATOM      4  H1  UNL     1       3.609 -27.584  92.454  1.00  0.00     0.188 HD
BRANCH   3   5
HETATM    5  N2  UNL     1       1.623 -28.085  92.838  1.00  0.00    -0.244 N 
HETATM    6  C3  UNL     1       0.750 -27.131  92.212  1.00  0.00     0.381 C 
HETATM    7  O1  UNL     1       1.127 -25.953  91.984  1.00  0.00    -0.237 OA
ATOM      8  H2  UNL     1       1.313 -29.040  93.021  1.00  0.00     0.192 HD
BRANCH   6   9
HETATM    9  O2  UNL     1      -0.539 -27.468  91.833  1.00  0.00    -0.277 OA
BRANCH   9  10
HETATM   10  C4  UNL     1      -1.429 -28.038  92.804  1.00  0.00     0.353 C 
BRANCH  10  11
HETATM   11  O3  UNL     1      -1.277 -27.438  94.029  1.00  0.00    -0.330 OA
BRANCH  11  12
HETATM   12  C5  UNL     1      -2.235 -26.458  94.277  1.00  0.00     0.330 C 
BRANCH  12  13
HETATM   13  O4  UNL     1      -2.520 -26.493  95.639  1.00  0.00    -0.365 OA
ATOM     14  H4  UNL     1      -3.184 -27.158  95.772  1.00  0.00     0.213 HD
ENDBRANCH  12  13
BRANCH  12  15
HETATM   15  C6  UNL     1      -1.735 -25.106  93.915  1.00  0.00     0.161 A 
HETATM   16  N3  UNL     1      -1.210 -24.166  94.737  1.00  0.00    -0.240 N 
HETATM   17  O5  UNL     1      -0.885 -23.108  94.058  1.00  0.00    -0.200 OA
ATOM     18  H3  UNL     1      -1.087 -24.273  95.744  1.00  0.00     0.196 HD
HETATM   19  C7  UNL     1      -1.174 -23.298  92.789  1.00  0.00     0.242 A 
HETATM   20  N5  UNL     1      -1.700 -24.531  92.690  1.00  0.00    -0.305 N 
ATOM     21  H5  UNL     1      -2.023 -24.965  91.825  1.00  0.00     0.171 HD
BRANCH  19  22
HETATM   22  N4  UNL     1      -0.957 -22.409  91.880  1.00  0.00    -0.364 N 
ATOM     23  H42 UNL     1      -1.172 -21.413  91.869  1.00  0.00     0.159 HD
ATOM     24  H41 UNL     1      -0.505 -22.624  90.992  1.00  0.00     0.159 HD
ENDBRANCH  19  22
ENDBRANCH  12  15
ENDBRANCH  11  12
ENDBRANCH  10  11
ENDBRANCH   9  10
ENDBRANCH   6   9
ENDBRANCH   3   5
ENDBRANCH   2   3
BRANCH   2  25
HETATM   25  N6  UNL     1       2.692 -28.152  95.455  1.00  0.00    -0.324 N 
ATOM     26  H6  UNL     1       2.967 -29.125  95.584  1.00  0.00     0.169 HD
BRANCH  25  27
HETATM   27  C8  UNL     1       1.831 -27.601  96.254  1.00  0.00     0.166 A 
HETATM   28  N7  UNL     1       0.499 -27.721  96.206  1.00  0.00    -0.279 N 
HETATM   29  N8  UNL     1      -0.196 -27.107  97.074  1.00  0.00    -0.296 N 
ATOM     30  H7  UNL     1       0.052 -28.292  95.489  1.00  0.00     0.189 HD
HETATM   31  C9  UNL     1       0.364 -26.368  98.006  1.00  0.00     0.075 A 
ATOM     32  H8  UNL     1      -1.212 -27.189  97.048  1.00  0.00     0.187 HD
HETATM   33  S2  UNL     1       2.038 -26.571  97.599  1.00  0.00    -0.037 SA
BRANCH  31  34
HETATM   34  C10 UNL     1      -0.220 -25.552  99.131  1.00  0.00     0.126 C 
BRANCH  34  35
HETATM   35  C11 UNL     1      -0.638 -24.252  98.552  1.00  0.00     0.044 A 
HETATM   36  C12 UNL     1       0.422 -23.372  98.352  1.00  0.00     0.029 A 
HETATM   37  C13 UNL     1       0.171 -22.136  97.828  1.00  0.00     0.034 A 
HETATM   38  C14 UNL     1      -1.110 -21.808  97.518  1.00  0.00     0.116 A 
HETATM   39  N9  UNL     1      -1.398 -20.536  96.975  1.00  0.00    -0.097 NA
HETATM   40  C15 UNL     1      -2.128 -22.732  97.741  1.00  0.00     0.290 A 
HETATM   41  O6  UNL     1      -3.274 -22.344  97.426  1.00  0.00    -0.264 OA
HETATM   42  N10 UNL     1      -1.927 -23.940  98.246  1.00  0.00    -0.221 N 
BRANCH  42  43
HETATM   43  N11 UNL     1      -2.886 -24.904  98.479  1.00  0.00    -0.269 N 
ATOM     44  H11 UNL     1      -2.928 -25.589  97.724  1.00  0.00     0.189 HD
BRANCH  43  45
HETATM   45  C16 UNL     1      -3.801 -25.176  99.472  1.00  0.00     0.200 C 
HETATM   46  N12 UNL     1      -4.392 -26.532  99.500  1.00  0.00    -0.068 NA
HETATM   47  S1  UNL     1      -4.342 -24.237 100.651  1.00  0.00    -0.043 SA
ENDBRANCH  43  45
ENDBRANCH  42  43
ENDBRANCH  34  35
ENDBRANCH  31  34
ENDBRANCH  25  27
ENDBRANCH   2  25
TORSDOF 15
ENDMDL
MODEL 3
REMARK VINA RESULT: -6.496013132      2.744      3.591
REMARK  15 active torsions:
REMARK  status: ('A' for Active; 'I' for Inactive)
REMARK    1  A    between atoms: C2_2  and  N1_3 
REMARK    2  A    between atoms: C2_2  and  N6_25 
REMARK    3  A    between atoms: N1_3  and  N2_5 
REMARK       I    between atoms: N2_5  and  C3_7 
REMARK    4  A    between atoms: C3_7  and  O2_9 
REMARK    5  A    between atoms: O2_9  and  C4_10 
REMARK    6  A    between atoms: C4_10  and  O3_11 
REMARK    7  A    between atoms: O3_11  and  C5_12 
REMARK    8  A    between atoms: C5_12  and  O4_13 
REMARK    9  A    between atoms: C5_12  and  C6_15 
REMARK   10  A    between atoms: C7_19  and  N4_20 
REMARK   11  A    between atoms: N6_25  and  C8_27 
REMARK   12  A    between atoms: C9_32  and  C10_33 
REMARK   13  A    between atoms: C10_33  and  C11_34 
REMARK   14  A    between atoms: N10_41  and  N11_42 
REMARK   15  A    between atoms: N11_42  and  C16_44 
ROOT
HETATM    1  C1  UNL     1       3.176 -27.142  95.323  1.00  0.00     0.090 C 
HETATM    2  C2  UNL     1       1.800 -27.699  95.082  1.00  0.00     0.093 C 
ENDROOT
BRANCH   2   3
HETATM    3  N1  UNL     1       1.455 -28.084  93.901  1.00  0.00    -0.285 N 
ATOM      4  H1  UNL     1       1.868 -28.939  93.527  1.00  0.00     0.188 HD
BRANCH   3   5
HETATM    5  N2  UNL     1       0.543 -27.386  93.111  1.00  0.00    -0.244 N 
HETATM    6  C3  UNL     1      -0.629 -28.083  92.656  1.00  0.00     0.381 C 
HETATM    7  O1  UNL     1      -0.830 -29.287  92.960  1.00  0.00    -0.237 OA
ATOM      8  H2  UNL     1       0.702 -26.409  92.863  1.00  0.00     0.192 HD
BRANCH   6   9
HETATM    9  O2  UNL     1      -1.583 -27.461  91.868  1.00  0.00    -0.277 OA
BRANCH   9  10
HETATM   10  C4  UNL     1      -2.149 -26.216  92.305  1.00  0.00     0.353 C 
BRANCH  10  11
HETATM   11  O3  UNL     1      -1.255 -25.185  92.159  1.00  0.00    -0.330 OA
BRANCH  11  12
HETATM   12  C5  UNL     1      -1.244 -24.316  93.247  1.00  0.00     0.330 C 
BRANCH  12  13
HETATM   13  O4  UNL     1      -0.071 -24.553  93.956  1.00  0.00    -0.365 OA
ATOM     14  H4  UNL     1       0.137 -23.759  94.433  1.00  0.00     0.213 HD
ENDBRANCH  12  13
BRANCH  12  15
HETATM   15  C6  UNL     1      -1.273 -22.896  92.807  1.00  0.00     0.161 A 
HETATM   16  N3  UNL     1      -0.956 -22.396  91.588  1.00  0.00    -0.240 N 
HETATM   17  O5  UNL     1      -1.101 -21.106  91.581  1.00  0.00    -0.200 OA
ATOM     18  H3  UNL     1      -0.647 -22.954  90.791  1.00  0.00     0.196 HD
HETATM   19  C7  UNL     1      -1.510 -20.706  92.765  1.00  0.00     0.242 A 
HETATM   20  N5  UNL     1      -1.619 -21.805  93.531  1.00  0.00    -0.305 N 
ATOM     21  H5  UNL     1      -1.917 -21.816  94.506  1.00  0.00     0.171 HD
BRANCH  19  22
HETATM   22  N4  UNL     1      -1.738 -19.469  93.047  1.00  0.00    -0.364 N 
ATOM     23  H42 UNL     1      -2.418 -19.053  93.682  1.00  0.00     0.159 HD
ATOM     24  H41 UNL     1      -1.216 -18.700  92.627  1.00  0.00     0.159 HD
ENDBRANCH  19  22
ENDBRANCH  12  15
ENDBRANCH  11  12
ENDBRANCH  10  11
ENDBRANCH   9  10
ENDBRANCH   6   9
ENDBRANCH   3   5
ENDBRANCH   2   3
BRANCH   2  25
HETATM   25  N6  UNL     1       0.853 -27.815  96.133  1.00  0.00    -0.324 N 
ATOM     26  H6  UNL     1       0.675 -28.719  96.571  1.00  0.00     0.169 HD
BRANCH  25  27
HETATM   27  C8  UNL     1       0.218 -26.757  96.529  1.00  0.00     0.166 A 
HETATM   28  N7  UNL     1      -1.036 -26.408  96.218  1.00  0.00    -0.279 N 
HETATM   29  N8  UNL     1      -1.502 -25.329  96.699  1.00  0.00    -0.296 N 
ATOM     30  H7  UNL     1      -1.605 -26.996  95.608  1.00  0.00     0.189 HD
HETATM   31  C9  UNL     1      -0.783 -24.561  97.486  1.00  0.00     0.075 A 
ATOM     32  H8  UNL     1      -2.456 -25.052  96.468  1.00  0.00     0.187 HD
HETATM   33  S2  UNL     1       0.695 -25.468  97.541  1.00  0.00    -0.037 SA
BRANCH  31  34
HETATM   34  C10 UNL     1      -1.091 -23.255  98.175  1.00  0.00     0.126 C 
BRANCH  34  35
HETATM   35  C11 UNL     1      -2.403 -23.416  98.845  1.00  0.00     0.044 A 
HETATM   36  C12 UNL     1      -2.363 -24.281  99.935  1.00  0.00     0.029 A 
HETATM   37  C13 UNL     1      -3.509 -24.520 100.637  1.00  0.00     0.034 A 
HETATM   38  C14 UNL     1      -4.654 -23.903 100.247  1.00  0.00     0.116 A 
HETATM   39  N9  UNL     1      -5.855 -24.134 100.955  1.00  0.00    -0.097 NA
HETATM   40  C15 UNL     1      -4.631 -23.049  99.146  1.00  0.00     0.290 A 
HETATM   41  O6  UNL     1      -5.729 -22.524  98.860  1.00  0.00    -0.264 OA
HETATM   42  N10 UNL     1      -3.542 -22.789  98.439  1.00  0.00    -0.221 N 
BRANCH  42  43
HETATM   43  N11 UNL     1      -3.449 -21.945  97.353  1.00  0.00    -0.269 N 
ATOM     44  H11 UNL     1      -3.608 -22.437  96.473  1.00  0.00     0.189 HD
BRANCH  43  45
HETATM   45  C16 UNL     1      -3.194 -20.606  97.153  1.00  0.00     0.200 C 
HETATM   46  N12 UNL     1      -2.103 -20.251  96.218  1.00  0.00    -0.068 NA
HETATM   47  S1  UNL     1      -3.916 -19.322  97.781  1.00  0.00    -0.043 SA
ENDBRANCH  43  45
ENDBRANCH  42  43
ENDBRANCH  34  35
ENDBRANCH  31  34
ENDBRANCH  25  27
ENDBRANCH   2  25
TORSDOF 15
ENDMDL
MODEL 4
REMARK VINA RESULT: -6.488438918      1.780      2.166
REMARK  15 active torsions:
REMARK  status: ('A' for Active; 'I' for Inactive)
REMARK    1  A    between atoms: C2_2  and  N1_3 
REMARK    2  A    between atoms: C2_2  and  N6_25 
REMARK    3  A    between atoms: N1_3  and  N2_5 
REMARK       I    between atoms: N2_5  and  C3_7 
REMARK    4  A    between atoms: C3_7  and  O2_9 
REMARK    5  A    between atoms: O2_9  and  C4_10 
REMARK    6  A    between atoms: C4_10  and  O3_11 
REMARK    7  A    between atoms: O3_11  and  C5_12 
REMARK    8  A    between atoms: C5_12  and  O4_13 
REMARK    9  A    between atoms: C5_12  and  C6_15 
REMARK   10  A    between atoms: C7_19  and  N4_20 
REMARK   11  A    between atoms: N6_25  and  C8_27 
REMARK   12  A    between atoms: C9_32  and  C10_33 
REMARK   13  A    between atoms: C10_33  and  C11_34 
REMARK   14  A    between atoms: N10_41  and  N11_42 
REMARK   15  A    between atoms: N11_42  and  C16_44 
ROOT
HETATM    1  C1  UNL     1       0.895 -27.425  98.559  1.00  0.00     0.090 C 
HETATM    2  C2  UNL     1       1.672 -26.662  97.521  1.00  0.00     0.093 C 
ENDROOT
BRANCH   2   3
HETATM    3  N1  UNL     1       1.899 -27.187  96.366  1.00  0.00    -0.285 N 
ATOM      4  H1  UNL     1       2.856 -27.190  96.012  1.00  0.00     0.188 HD
BRANCH   3   5
HETATM    5  N2  UNL     1       0.897 -27.752  95.578  1.00  0.00    -0.244 N 
HETATM    6  C3  UNL     1       1.132 -27.860  94.163  1.00  0.00     0.381 C 
HETATM    7  O1  UNL     1       2.206 -27.459  93.648  1.00  0.00    -0.237 OA
ATOM      8  H2  UNL     1       0.024 -28.078  95.992  1.00  0.00     0.192 HD
BRANCH   6   9
HETATM    9  O2  UNL     1       0.187 -28.410  93.312  1.00  0.00    -0.277 OA
BRANCH   9  10
HETATM   10  C4  UNL     1      -0.221 -27.674  92.149  1.00  0.00     0.353 C 
BRANCH  10  11
HETATM   11  O3  UNL     1      -1.581 -27.491  92.129  1.00  0.00    -0.330 OA
BRANCH  11  12
HETATM   12  C5  UNL     1      -1.952 -26.158  92.284  1.00  0.00     0.330 C 
BRANCH  12  13
HETATM   13  O4  UNL     1      -3.220 -26.013  91.729  1.00  0.00    -0.365 OA
ATOM     14  H4  UNL     1      -3.796 -26.622  92.176  1.00  0.00     0.213 HD
ENDBRANCH  12  13
BRANCH  12  15
HETATM   15  C6  UNL     1      -1.999 -25.771  93.719  1.00  0.00     0.161 A 
HETATM   16  N3  UNL     1      -1.867 -24.531  94.251  1.00  0.00    -0.240 N 
HETATM   17  O5  UNL     1      -1.963 -24.587  95.544  1.00  0.00    -0.200 OA
ATOM     18  H3  UNL     1      -1.715 -23.678  93.713  1.00  0.00     0.196 HD
HETATM   19  C7  UNL     1      -2.156 -25.833  95.915  1.00  0.00     0.242 A 
HETATM   20  N5  UNL     1      -2.180 -26.574  94.794  1.00  0.00    -0.305 N 
ATOM     21  H5  UNL     1      -2.315 -27.584  94.758  1.00  0.00     0.171 HD
BRANCH  19  22
HETATM   22  N4  UNL     1      -2.288 -26.185  97.148  1.00  0.00    -0.364 N 
ATOM     23  H42 UNL     1      -2.378 -25.616  97.990  1.00  0.00     0.159 HD
ATOM     24  H41 UNL     1      -2.319 -27.160  97.446  1.00  0.00     0.159 HD
ENDBRANCH  19  22
ENDBRANCH  12  15
ENDBRANCH  11  12
ENDBRANCH  10  11
ENDBRANCH   9  10
ENDBRANCH   6   9
ENDBRANCH   3   5
ENDBRANCH   2   3
BRANCH   2  25
HETATM   25  N6  UNL     1       2.172 -25.358  97.779  1.00  0.00    -0.324 N 
ATOM     26  H6  UNL     1       3.173 -25.201  97.890  1.00  0.00     0.169 HD
BRANCH  25  27
HETATM   27  C8  UNL     1       1.337 -24.370  97.872  1.00  0.00     0.166 A 
HETATM   28  N7  UNL     1       0.636 -23.814  96.877  1.00  0.00    -0.279 N 
HETATM   29  N8  UNL     1      -0.140 -22.846  97.150  1.00  0.00    -0.296 N 
ATOM     30  H7  UNL     1       0.724 -24.159  95.921  1.00  0.00     0.189 HD
HETATM   31  C9  UNL     1      -0.265 -22.390  98.376  1.00  0.00     0.075 A 
ATOM     32  H8  UNL     1      -0.679 -22.413  96.400  1.00  0.00     0.187 HD
HETATM   33  S2  UNL     1       0.830 -23.443  99.213  1.00  0.00    -0.037 SA
BRANCH  31  34
HETATM   34  C10 UNL     1      -1.099 -21.276  98.956  1.00  0.00     0.126 C 
BRANCH  34  35
HETATM   35  C11 UNL     1      -2.395 -21.870  99.361  1.00  0.00     0.044 A 
HETATM   36  C12 UNL     1      -2.359 -22.467 100.619  1.00  0.00     0.029 A 
HETATM   37  C13 UNL     1      -3.489 -23.057 101.108  1.00  0.00     0.034 A 
HETATM   38  C14 UNL     1      -4.615 -23.040 100.348  1.00  0.00     0.116 A 
HETATM   39  N9  UNL     1      -5.798 -23.644 100.830  1.00  0.00    -0.097 NA
HETATM   40  C15 UNL     1      -4.589 -22.427  99.097  1.00  0.00     0.290 A 
HETATM   41  O6  UNL     1      -5.669 -22.459  98.469  1.00  0.00    -0.264 OA
HETATM   42  N10 UNL     1      -3.515 -21.843  98.587  1.00  0.00    -0.221 N 
BRANCH  42  43
HETATM   43  N11 UNL     1      -3.426 -21.209  97.366  1.00  0.00    -0.269 N 
ATOM     44  H11 UNL     1      -3.190 -21.858  96.615  1.00  0.00     0.189 HD
BRANCH  43  45
HETATM   45  C16 UNL     1      -3.576 -19.920  96.903  1.00  0.00     0.200 C 
HETATM   46  N12 UNL     1      -3.420 -19.696  95.448  1.00  0.00    -0.068 NA
HETATM   47  S1  UNL     1      -3.913 -18.576  97.705  1.00  0.00    -0.043 SA
ENDBRANCH  43  45
ENDBRANCH  42  43
ENDBRANCH  34  35
ENDBRANCH  31  34
ENDBRANCH  25  27
ENDBRANCH   2  25
TORSDOF 15
ENDMDL
MODEL 5
REMARK VINA RESULT: -6.452685815      2.802      8.958
REMARK  15 active torsions:
REMARK  status: ('A' for Active; 'I' for Inactive)
REMARK    1  A    between atoms: C2_2  and  N1_3 
REMARK    2  A    between atoms: C2_2  and  N6_25 
REMARK    3  A    between atoms: N1_3  and  N2_5 
REMARK       I    between atoms: N2_5  and  C3_7 
REMARK    4  A    between atoms: C3_7  and  O2_9 
REMARK    5  A    between atoms: O2_9  and  C4_10 
REMARK    6  A    between atoms: C4_10  and  O3_11 
REMARK    7  A    between atoms: O3_11  and  C5_12 
REMARK    8  A    between atoms: C5_12  and  O4_13 
REMARK    9  A    between atoms: C5_12  and  C6_15 
REMARK   10  A    between atoms: C7_19  and  N4_20 
REMARK   11  A    between atoms: N6_25  and  C8_27 
REMARK   12  A    between atoms: C9_32  and  C10_33 
REMARK   13  A    between atoms: C10_33  and  C11_34 
REMARK   14  A    between atoms: N10_41  and  N11_42 
REMARK   15  A    between atoms: N11_42  and  C16_44 
ROOT
HETATM    1  C1  UNL     1      -0.397 -21.492  95.213  1.00  0.00     0.090 C 
HETATM    2  C2  UNL     1      -1.191 -22.768  95.160  1.00  0.00     0.093 C 
ENDROOT
BRANCH   2   3
HETATM    3  N1  UNL     1      -1.429 -23.429  96.240  1.00  0.00    -0.285 N 
ATOM      4  H1  UNL     1      -0.668 -23.964  96.661  1.00  0.00     0.188 HD
BRANCH   3   5
HETATM    5  N2  UNL     1      -2.676 -23.447  96.862  1.00  0.00    -0.244 N 
HETATM    6  C3  UNL     1      -3.346 -24.712  96.996  1.00  0.00     0.381 C 
HETATM    7  O1  UNL     1      -2.825 -25.773  96.567  1.00  0.00    -0.237 OA
ATOM      8  H2  UNL     1      -3.102 -22.588  97.211  1.00  0.00     0.192 HD
BRANCH   6   9
HETATM    9  O2  UNL     1      -4.588 -24.814  97.601  1.00  0.00    -0.277 OA
BRANCH   9  10
HETATM   10  C4  UNL     1      -5.492 -23.701  97.539  1.00  0.00     0.353 C 
BRANCH  10  11
HETATM   11  O3  UNL     1      -4.998 -22.622  98.228  1.00  0.00    -0.330 OA
BRANCH  11  12
HETATM   12  C5  UNL     1      -5.248 -22.691  99.597  1.00  0.00     0.330 C 
BRANCH  12  13
HETATM   13  O4  UNL     1      -6.200 -23.686  99.794  1.00  0.00    -0.365 OA
ATOM     14  H4  UNL     1      -5.735 -24.480 100.027  1.00  0.00     0.213 HD
ENDBRANCH  12  13
BRANCH  12  15
HETATM   15  C6  UNL     1      -4.018 -23.032 100.357  1.00  0.00     0.161 A 
HETATM   16  N3  UNL     1      -3.174 -22.186 100.998  1.00  0.00    -0.240 N 
HETATM   17  O5  UNL     1      -2.206 -22.852 101.550  1.00  0.00    -0.200 OA
ATOM     18  H3  UNL     1      -3.285 -21.172 101.041  1.00  0.00     0.196 HD
HETATM   19  C7  UNL     1      -2.362 -24.134 101.305  1.00  0.00     0.242 A 
HETATM   20  N5  UNL     1      -3.479 -24.256 100.567  1.00  0.00    -0.305 N 
ATOM     21  H5  UNL     1      -3.863 -25.135 100.221  1.00  0.00     0.171 HD
BRANCH  19  22
HETATM   22  N4  UNL     1      -1.545 -25.034 101.733  1.00  0.00    -0.364 N 
ATOM     23  H42 UNL     1      -1.409 -25.407 102.672  1.00  0.00     0.159 HD
ATOM     24  H41 UNL     1      -0.883 -25.516 101.125  1.00  0.00     0.159 HD
ENDBRANCH  19  22
ENDBRANCH  12  15
ENDBRANCH  11  12
ENDBRANCH  10  11
ENDBRANCH   9  10
ENDBRANCH   6   9
ENDBRANCH   3   5
ENDBRANCH   2   3
BRANCH   2  25
HETATM   25  N6  UNL     1      -1.696 -23.277  93.934  1.00  0.00    -0.324 N 
ATOM     26  H6  UNL     1      -2.325 -22.715  93.360  1.00  0.00     0.169 HD
BRANCH  25  27
HETATM   27  C8  UNL     1      -1.345 -24.465  93.552  1.00  0.00     0.166 A 
HETATM   28  N7  UNL     1      -2.076 -25.584  93.631  1.00  0.00    -0.279 N 
HETATM   29  N8  UNL     1      -1.570 -26.668  93.206  1.00  0.00    -0.296 N 
ATOM     30  H7  UNL     1      -3.017 -25.565  94.023  1.00  0.00     0.189 HD
HETATM   31  C9  UNL     1      -0.360 -26.710  92.697  1.00  0.00     0.075 A 
ATOM     32  H8  UNL     1      -2.117 -27.528  93.262  1.00  0.00     0.187 HD
HETATM   33  S2  UNL     1       0.096 -25.042  92.841  1.00  0.00    -0.037 SA
BRANCH  31  34
HETATM   34  C10 UNL     1       0.459 -27.845  92.135  1.00  0.00     0.126 C 
BRANCH  34  35
HETATM   35  C11 UNL     1       1.881 -27.436  92.216  1.00  0.00     0.044 A 
HETATM   36  C12 UNL     1       2.388 -26.961  91.009  1.00  0.00     0.029 A 
HETATM   37  C13 UNL     1       3.691 -26.557  90.948  1.00  0.00     0.034 A 
HETATM   38  C14 UNL     1       4.450 -26.629  92.071  1.00  0.00     0.116 A 
HETATM   39  N9  UNL     1       5.800 -26.217  92.036  1.00  0.00    -0.097 NA
HETATM   40  C15 UNL     1       3.886 -27.113  93.250  1.00  0.00     0.290 A 
HETATM   41  O6  UNL     1       4.657 -27.145  94.233  1.00  0.00    -0.264 OA
HETATM   42  N10 UNL     1       2.628 -27.515  93.352  1.00  0.00    -0.221 N 
BRANCH  42  43
HETATM   43  N11 UNL     1       2.006 -27.990  94.487  1.00  0.00    -0.269 N 
ATOM     44  H11 UNL     1       1.961 -29.009  94.500  1.00  0.00     0.189 HD
BRANCH  43  45
HETATM   45  C16 UNL     1       1.429 -27.436  95.610  1.00  0.00     0.200 C 
HETATM   46  N12 UNL     1       0.030 -27.810  95.912  1.00  0.00    -0.068 NA
HETATM   47  S1  UNL     1       2.049 -26.427  96.687  1.00  0.00    -0.043 SA
ENDBRANCH  43  45
ENDBRANCH  42  43
ENDBRANCH  34  35
ENDBRANCH  31  34
ENDBRANCH  25  27
ENDBRANCH   2  25
TORSDOF 15
ENDMDL
