MODEL 1
REMARK VINA RESULT: -8.891488655      0.000      0.000
REMARK  5 active torsions:
REMARK  status: ('A' for Active; 'I' for Inactive)
REMARK    1  A    between atoms: C6_9  and  N3_10 
REMARK    2  A    between atoms: N3_10  and  C7_12 
REMARK    3  A    between atoms: C12_17  and  S1_18 
REMARK    4  A    between atoms: N5_28  and  C18_30 
REMARK    5  A    between atoms: C21_33  and  C22_34 
ROOT
HETATM    1  C1  UNL     1     -43.605  26.452 -21.862  1.00  0.00     0.089 C 
HETATM    2  C2  UNL     1     -44.336  25.688 -20.790  1.00  0.00     0.079 A 
HETATM    3  N1  UNL     1     -43.754  25.555 -19.583  1.00  0.00    -0.344 N 
ATOM      4  H1  UNL     1     -42.836  25.970 -19.419  1.00  0.00     0.167 HD
HETATM    5  C3  UNL     1     -44.363  24.881 -18.589  1.00  0.00     0.073 A 
HETATM    6  C4  UNL     1     -43.743  24.753 -17.339  1.00  0.00     0.116 A 
HETATM    7  C5  UNL     1     -42.454  25.345 -17.133  1.00  0.00     0.105 C 
HETATM    8  N2  UNL     1     -41.418  25.830 -16.992  1.00  0.00    -0.191 NA
HETATM    9  C6  UNL     1     -44.392  24.060 -16.346  1.00  0.00     0.129 A 
HETATM   10  N4  UNL     1     -45.625  23.533 -16.651  1.00  0.00    -0.350 N 
ATOM     11  H4  UNL     1     -46.120  23.016 -15.925  1.00  0.00     0.166 HD
HETATM   12  C15 UNL     1     -46.208  23.660 -17.841  1.00  0.00     0.107 A 
HETATM   13  C16 UNL     1     -45.600  24.342 -18.864  1.00  0.00     0.052 A 
HETATM   14  C17 UNL     1     -46.215  24.466 -20.088  1.00  0.00     0.121 A 
HETATM   15  N5  UNL     1     -47.371  23.962 -20.349  1.00  0.00    -0.342 N 
ATOM     16  H5  UNL     1     -47.874  23.444 -19.629  1.00  0.00     0.167 HD
HETATM   17  N8  UNL     1     -45.549  25.150 -21.035  1.00  0.00    -0.332 N 
ATOM     18  H8  UNL     1     -45.969  25.265 -21.958  1.00  0.00     0.168 HD
ENDROOT
BRANCH   9  19
HETATM   19  N3  UNL     1     -43.987  23.858 -15.203  1.00  0.00    -0.341 N 
ATOM     20  H3  UNL     1     -43.591  22.919 -15.140  1.00  0.00     0.167 HD
BRANCH  19  21
HETATM   21  C7  UNL     1     -43.892  24.479 -13.982  1.00  0.00     0.035 A 
HETATM   22  C8  UNL     1     -42.756  24.365 -13.158  1.00  0.00     0.030 A 
HETATM   23  C9  UNL     1     -42.718  24.991 -11.938  1.00  0.00     0.010 A 
HETATM   24  C10 UNL     1     -43.773  25.746 -11.476  1.00  0.00    -0.040 A 
HETATM   25  C11 UNL     1     -43.731  26.427 -10.146  1.00  0.00     0.049 C 
HETATM   26  C12 UNL     1     -44.888  25.858 -12.284  1.00  0.00     0.067 A 
HETATM   27  C14 UNL     1     -44.924  25.244 -13.481  1.00  0.00     0.053 A 
BRANCH  26  28
HETATM   28  S1  UNL     1     -46.270  26.815 -11.741  1.00  0.00     0.172 S 
HETATM   29  C13 UNL     1     -47.364  27.071 -13.117  1.00  0.00     0.167 C 
HETATM   30  O1  UNL     1     -45.748  28.163 -11.341  1.00  0.00    -0.223 OA
HETATM   31  O2  UNL     1     -46.934  26.211 -10.568  1.00  0.00    -0.223 OA
ENDBRANCH  26  28
ENDBRANCH  19  21
ENDBRANCH   9  19
BRANCH  15  32
HETATM   32  C18 UNL     1     -47.949  24.127 -21.635  1.00  0.00     0.033 A 
HETATM   33  C19 UNL     1     -48.642  25.267 -21.927  1.00  0.00     0.030 A 
HETATM   34  C20 UNL     1     -49.216  25.463 -23.163  1.00  0.00     0.014 A 
HETATM   35  C21 UNL     1     -49.119  24.520 -24.161  1.00  0.00    -0.023 A 
HETATM   36  C26 UNL     1     -48.410  23.366 -23.847  1.00  0.00     0.014 A 
HETATM   37  C27 UNL     1     -47.833  23.158 -22.622  1.00  0.00     0.030 A 
BRANCH  35  38
HETATM   38  C22 UNL     1     -49.721  24.721 -25.460  1.00  0.00     0.005 A 
HETATM   39  C23 UNL     1     -49.148  24.250 -26.625  1.00  0.00     0.102 A 
HETATM   40  N6  UNL     1     -49.765  24.476 -27.775  1.00  0.00    -0.361 N 
HETATM   41  C24 UNL     1     -50.918  25.144 -27.850  1.00  0.00     0.180 A 
ATOM     42  H6  UNL     1     -49.343  24.127 -28.636  1.00  0.00     0.166 HD
HETATM   43  N7  UNL     1     -51.481  25.606 -26.738  1.00  0.00    -0.361 N 
HETATM   44  C25 UNL     1     -50.905  25.405 -25.560  1.00  0.00     0.102 A 
ATOM     45  H7  UNL     1     -52.363  26.117 -26.791  1.00  0.00     0.166 HD
ENDBRANCH  35  38
ENDBRANCH  15  32
TORSDOF 5
ENDMDL
MODEL 2
REMARK VINA RESULT: -8.805175858      3.251      4.194
REMARK  5 active torsions:
REMARK  status: ('A' for Active; 'I' for Inactive)
REMARK    1  A    between atoms: C6_9  and  N3_10 
REMARK    2  A    between atoms: N3_10  and  C7_12 
REMARK    3  A    between atoms: C12_17  and  S1_18 
REMARK    4  A    between atoms: N5_28  and  C18_30 
REMARK    5  A    between atoms: C21_33  and  C22_34 
ROOT
HETATM    1  C1  UNL     1     -47.735  18.321 -18.484  1.00  0.00     0.089 C 
HETATM    2  C2  UNL     1     -47.536  19.683 -17.874  1.00  0.00     0.079 A 
HETATM    3  N1  UNL     1     -46.730  19.796 -16.801  1.00  0.00    -0.344 N 
ATOM      4  H1  UNL     1     -46.273  18.964 -16.426  1.00  0.00     0.167 HD
HETATM    5  C3  UNL     1     -46.517  20.990 -16.215  1.00  0.00     0.073 A 
HETATM    6  C4  UNL     1     -45.674  21.090 -15.101  1.00  0.00     0.116 A 
HETATM    7  C5  UNL     1     -45.043  19.907 -14.592  1.00  0.00     0.105 C 
HETATM    8  N2  UNL     1     -44.548  18.942 -14.202  1.00  0.00    -0.191 NA
HETATM    9  C6  UNL     1     -45.477  22.323 -14.527  1.00  0.00     0.129 A 
HETATM   10  N4  UNL     1     -46.131  23.390 -15.096  1.00  0.00    -0.350 N 
ATOM     11  H4  UNL     1     -45.996  24.312 -14.682  1.00  0.00     0.166 HD
HETATM   12  C15 UNL     1     -46.930  23.287 -16.155  1.00  0.00     0.107 A 
HETATM   13  C16 UNL     1     -47.157  22.079 -16.762  1.00  0.00     0.052 A 
HETATM   14  C17 UNL     1     -47.985  21.988 -17.858  1.00  0.00     0.121 A 
HETATM   15  N5  UNL     1     -48.587  23.004 -18.372  1.00  0.00    -0.342 N 
ATOM     16  H5  UNL     1     -48.457  23.930 -17.965  1.00  0.00     0.167 HD
HETATM   17  N8  UNL     1     -48.153  20.765 -18.391  1.00  0.00    -0.332 N 
ATOM     18  H8  UNL     1     -48.760  20.654 -19.204  1.00  0.00     0.168 HD
ENDROOT
BRANCH   9  19
HETATM   19  N3  UNL     1     -44.774  22.578 -13.552  1.00  0.00    -0.341 N 
ATOM     20  H3  UNL     1     -44.394  21.712 -13.167  1.00  0.00     0.167 HD
BRANCH  19  21
HETATM   21  C7  UNL     1     -44.331  23.645 -12.809  1.00  0.00     0.035 A 
HETATM   22  C8  UNL     1     -42.988  23.790 -12.415  1.00  0.00     0.030 A 
HETATM   23  C9  UNL     1     -42.599  24.866 -11.657  1.00  0.00     0.010 A 
HETATM   24  C10 UNL     1     -43.494  25.833 -11.256  1.00  0.00    -0.040 A 
HETATM   25  C11 UNL     1     -43.070  27.004 -10.429  1.00  0.00     0.049 C 
HETATM   26  C12 UNL     1     -44.813  25.690 -11.642  1.00  0.00     0.067 A 
HETATM   27  C14 UNL     1     -45.192  24.635 -12.386  1.00  0.00     0.053 A 
BRANCH  26  28
HETATM   28  S1  UNL     1     -46.003  26.901 -11.156  1.00  0.00     0.172 S 
HETATM   29  C13 UNL     1     -45.971  28.236 -12.327  1.00  0.00     0.167 C 
HETATM   30  O1  UNL     1     -45.554  27.463  -9.840  1.00  0.00    -0.223 OA
HETATM   31  O2  UNL     1     -47.347  26.314 -10.973  1.00  0.00    -0.223 OA
ENDBRANCH  26  28
ENDBRANCH  19  21
ENDBRANCH   9  19
BRANCH  15  32
HETATM   32  C18 UNL     1     -49.429  22.840 -19.502  1.00  0.00     0.033 A 
HETATM   33  C19 UNL     1     -48.921  23.022 -20.758  1.00  0.00     0.030 A 
HETATM   34  C20 UNL     1     -49.706  22.872 -21.879  1.00  0.00     0.014 A 
HETATM   35  C21 UNL     1     -51.037  22.532 -21.787  1.00  0.00    -0.023 A 
HETATM   36  C26 UNL     1     -51.537  22.350 -20.503  1.00  0.00     0.014 A 
HETATM   37  C27 UNL     1     -50.767  22.496 -19.378  1.00  0.00     0.030 A 
BRANCH  35  38
HETATM   38  C22 UNL     1     -51.865  22.374 -22.962  1.00  0.00     0.005 A 
HETATM   39  C23 UNL     1     -53.220  22.639 -22.957  1.00  0.00     0.102 A 
HETATM   40  N6  UNL     1     -53.907  22.469 -24.077  1.00  0.00    -0.361 N 
HETATM   41  C24 UNL     1     -53.339  22.050 -25.208  1.00  0.00     0.180 A 
ATOM     42  H6  UNL     1     -54.908  22.666 -24.074  1.00  0.00     0.166 HD
HETATM   43  N7  UNL     1     -52.035  21.788 -25.230  1.00  0.00    -0.361 N 
HETATM   44  C25 UNL     1     -51.301  21.943 -24.135  1.00  0.00     0.102 A 
ATOM     45  H7  UNL     1     -51.597  21.467 -26.093  1.00  0.00     0.166 HD
ENDBRANCH  35  38
ENDBRANCH  15  32
TORSDOF 5
ENDMDL
MODEL 3
REMARK VINA RESULT: -8.123954779      5.952      9.689
REMARK  5 active torsions:
REMARK  status: ('A' for Active; 'I' for Inactive)
REMARK    1  A    between atoms: C6_9  and  N3_10 
REMARK    2  A    between atoms: N3_10  and  C7_12 
REMARK    3  A    between atoms: C12_17  and  S1_18 
REMARK    4  A    between atoms: N5_28  and  C18_30 
REMARK    5  A    between atoms: C21_33  and  C22_34 
ROOT
HETATM    1  C1  UNL     1     -46.846  26.413 -11.505  1.00  0.00     0.089 C 
HETATM    2  C2  UNL     1     -46.953  26.252 -12.998  1.00  0.00     0.079 A 
HETATM    3  N1  UNL     1     -45.867  25.844 -13.681  1.00  0.00    -0.344 N 
ATOM      4  H1  UNL     1     -44.999  25.654 -13.179  1.00  0.00     0.167 HD
HETATM    5  C3  UNL     1     -45.907  25.684 -15.018  1.00  0.00     0.073 A 
HETATM    6  C4  UNL     1     -44.768  25.259 -15.713  1.00  0.00     0.116 A 
HETATM    7  C5  UNL     1     -43.560  24.998 -14.985  1.00  0.00     0.105 C 
HETATM    8  N2  UNL     1     -42.603  24.794 -14.378  1.00  0.00    -0.191 NA
HETATM    9  C6  UNL     1     -44.842  25.105 -17.077  1.00  0.00     0.129 A 
HETATM   10  N4  UNL     1     -46.049  25.383 -17.673  1.00  0.00    -0.350 N 
ATOM     11  H4  UNL     1     -46.122  25.273 -18.685  1.00  0.00     0.166 HD
HETATM   12  C15 UNL     1     -47.128  25.786 -17.006  1.00  0.00     0.107 A 
HETATM   13  C16 UNL     1     -47.102  25.954 -15.646  1.00  0.00     0.052 A 
HETATM   14  C17 UNL     1     -48.226  26.371 -14.968  1.00  0.00     0.121 A 
HETATM   15  N5  UNL     1     -49.345  26.625 -15.552  1.00  0.00    -0.342 N 
ATOM     16  H5  UNL     1     -49.427  26.518 -16.563  1.00  0.00     0.167 HD
HETATM   17  N8  UNL     1     -48.114  26.511 -13.636  1.00  0.00    -0.332 N 
ATOM     18  H8  UNL     1     -48.923  26.819 -13.096  1.00  0.00     0.168 HD
ENDROOT
BRANCH   9  19
HETATM   19  N3  UNL     1     -43.939  24.742 -17.828  1.00  0.00    -0.341 N 
ATOM     20  H3  UNL     1     -43.940  23.724 -17.899  1.00  0.00     0.167 HD
BRANCH  19  21
HETATM   21  C7  UNL     1     -42.928  25.257 -18.603  1.00  0.00     0.035 A 
HETATM   22  C8  UNL     1     -41.581  25.250 -18.195  1.00  0.00     0.030 A 
HETATM   23  C9  UNL     1     -40.610  25.794 -18.998  1.00  0.00     0.010 A 
HETATM   24  C10 UNL     1     -40.910  26.360 -20.217  1.00  0.00    -0.040 A 
HETATM   25  C11 UNL     1     -39.852  26.953 -21.091  1.00  0.00     0.049 C 
HETATM   26  C12 UNL     1     -42.233  26.367 -20.617  1.00  0.00     0.067 A 
HETATM   27  C14 UNL     1     -43.183  25.832 -19.829  1.00  0.00     0.053 A 
BRANCH  26  28
HETATM   28  S1  UNL     1     -42.673  27.079 -22.172  1.00  0.00     0.172 S 
HETATM   29  C13 UNL     1     -42.255  28.805 -22.150  1.00  0.00     0.167 C 
HETATM   30  O1  UNL     1     -44.166  26.993 -22.294  1.00  0.00    -0.223 OA
HETATM   31  O2  UNL     1     -42.074  26.345 -23.307  1.00  0.00    -0.223 OA
ENDBRANCH  26  28
ENDBRANCH  19  21
ENDBRANCH   9  19
BRANCH  15  32
HETATM   32  C18 UNL     1     -50.466  27.053 -14.794  1.00  0.00     0.033 A 
HETATM   33  C19 UNL     1     -50.986  28.300 -14.995  1.00  0.00     0.030 A 
HETATM   34  C20 UNL     1     -52.072  28.751 -14.280  1.00  0.00     0.014 A 
HETATM   35  C21 UNL     1     -52.685  27.966 -13.329  1.00  0.00    -0.023 A 
HETATM   36  C26 UNL     1     -52.144  26.700 -13.137  1.00  0.00     0.014 A 
HETATM   37  C27 UNL     1     -51.063  26.239 -13.842  1.00  0.00     0.030 A 
BRANCH  35  38
HETATM   38  C22 UNL     1     -53.826  28.435 -12.575  1.00  0.00     0.005 A 
HETATM   39  C23 UNL     1     -54.194  27.883 -11.364  1.00  0.00     0.102 A 
HETATM   40  N6  UNL     1     -55.253  28.372 -10.736  1.00  0.00    -0.361 N 
HETATM   41  C24 UNL     1     -55.978  29.377 -11.231  1.00  0.00     0.180 A 
ATOM     42  H6  UNL     1     -55.524  27.966  -9.841  1.00  0.00     0.166 HD
HETATM   43  N7  UNL     1     -55.638  29.919 -12.397  1.00  0.00    -0.361 N 
HETATM   44  C25 UNL     1     -54.585  29.466 -13.066  1.00  0.00     0.102 A 
ATOM     45  H7  UNL     1     -56.190  30.687 -12.779  1.00  0.00     0.166 HD
ENDBRANCH  35  38
ENDBRANCH  15  32
TORSDOF 5
ENDMDL
MODEL 4
REMARK VINA RESULT: -7.996646384      5.226      6.832
REMARK  5 active torsions:
REMARK  status: ('A' for Active; 'I' for Inactive)
REMARK    1  A    between atoms: C6_9  and  N3_10 
REMARK    2  A    between atoms: N3_10  and  C7_12 
REMARK    3  A    between atoms: C12_17  and  S1_18 
REMARK    4  A    between atoms: N5_28  and  C18_30 
REMARK    5  A    between atoms: C21_33  and  C22_34 
ROOT
HETATM    1  C1  UNL     1     -44.671  22.453 -20.354  1.00  0.00     0.089 C 
HETATM    2  C2  UNL     1     -44.813  23.695 -19.515  1.00  0.00     0.079 A 
HETATM    3  N1  UNL     1     -45.565  23.634 -18.399  1.00  0.00    -0.344 N 
ATOM      4  H1  UNL     1     -46.019  22.757 -18.146  1.00  0.00     0.167 HD
HETATM    5  C3  UNL     1     -45.727  24.715 -17.612  1.00  0.00     0.073 A 
HETATM    6  C4  UNL     1     -46.512  24.635 -16.454  1.00  0.00     0.116 A 
HETATM    7  C5  UNL     1     -47.140  23.390 -16.119  1.00  0.00     0.105 C 
HETATM    8  N2  UNL     1     -47.634  22.379 -15.872  1.00  0.00    -0.191 NA
HETATM    9  C6  UNL     1     -46.656  25.756 -15.672  1.00  0.00     0.129 A 
HETATM   10  N4  UNL     1     -46.010  26.896 -16.087  1.00  0.00    -0.350 N 
ATOM     11  H4  UNL     1     -46.107  27.737 -15.518  1.00  0.00     0.166 HD
HETATM   12  C15 UNL     1     -45.265  26.965 -17.188  1.00  0.00     0.107 A 
HETATM   13  C16 UNL     1     -45.092  25.873 -18.000  1.00  0.00     0.052 A 
HETATM   14  C17 UNL     1     -44.318  25.959 -19.135  1.00  0.00     0.121 A 
HETATM   15  N5  UNL     1     -43.723  27.040 -19.501  1.00  0.00    -0.342 N 
ATOM     16  H5  UNL     1     -43.814  27.886 -18.938  1.00  0.00     0.167 HD
HETATM   17  N8  UNL     1     -44.201  24.842 -19.874  1.00  0.00    -0.332 N 
ATOM     18  H8  UNL     1     -43.637  24.862 -20.725  1.00  0.00     0.168 HD
ENDROOT
BRANCH   9  19
HETATM   19  N3  UNL     1     -47.306  25.851 -14.633  1.00  0.00    -0.341 N 
ATOM     20  H3  UNL     1     -46.730  25.566 -13.841  1.00  0.00     0.167 HD
BRANCH  19  21
HETATM   21  C7  UNL     1     -48.554  26.213 -14.188  1.00  0.00     0.035 A 
HETATM   22  C8  UNL     1     -48.758  26.887 -12.970  1.00  0.00     0.030 A 
HETATM   23  C9  UNL     1     -50.027  27.212 -12.560  1.00  0.00     0.010 A 
HETATM   24  C10 UNL     1     -51.136  26.896 -13.313  1.00  0.00    -0.040 A 
HETATM   25  C11 UNL     1     -52.518  27.249 -12.867  1.00  0.00     0.049 C 
HETATM   26  C12 UNL     1     -50.935  26.234 -14.510  1.00  0.00     0.067 A 
HETATM   27  C14 UNL     1     -49.690  25.917 -14.910  1.00  0.00     0.053 A 
BRANCH  26  28
HETATM   28  S1  UNL     1     -52.322  25.805 -15.516  1.00  0.00     0.172 S 
HETATM   29  C13 UNL     1     -51.793  25.712 -17.209  1.00  0.00     0.167 C 
HETATM   30  O1  UNL     1     -53.303  26.937 -15.427  1.00  0.00    -0.223 OA
HETATM   31  O2  UNL     1     -52.991  24.576 -15.042  1.00  0.00    -0.223 OA
ENDBRANCH  26  28
ENDBRANCH  19  21
ENDBRANCH   9  19
BRANCH  15  32
HETATM   32  C18 UNL     1     -42.941  27.060 -20.685  1.00  0.00     0.033 A 
HETATM   33  C19 UNL     1     -43.464  27.579 -21.835  1.00  0.00     0.030 A 
HETATM   34  C20 UNL     1     -42.736  27.616 -23.003  1.00  0.00     0.014 A 
HETATM   35  C21 UNL     1     -41.448  27.133 -23.066  1.00  0.00    -0.023 A 
HETATM   36  C26 UNL     1     -40.932  26.609 -21.887  1.00  0.00     0.014 A 
HETATM   37  C27 UNL     1     -41.645  26.566 -20.718  1.00  0.00     0.030 A 
BRANCH  35  38
HETATM   38  C22 UNL     1     -40.680  27.170 -24.291  1.00  0.00     0.005 A 
HETATM   39  C23 UNL     1     -39.791  28.186 -24.579  1.00  0.00     0.102 A 
HETATM   40  N6  UNL     1     -39.125  28.145 -25.724  1.00  0.00    -0.361 N 
HETATM   41  C24 UNL     1     -39.283  27.159 -26.608  1.00  0.00     0.180 A 
ATOM     42  H6  UNL     1     -38.467  28.895 -25.936  1.00  0.00     0.166 HD
HETATM   43  N7  UNL     1     -40.136  26.173 -26.346  1.00  0.00    -0.361 N 
HETATM   44  C25 UNL     1     -40.828  26.167 -25.214  1.00  0.00     0.102 A 
ATOM     45  H7  UNL     1     -40.260  25.417 -27.020  1.00  0.00     0.166 HD
ENDBRANCH  35  38
ENDBRANCH  15  32
TORSDOF 5
ENDMDL
MODEL 5
REMARK VINA RESULT: -7.960149801      6.328     12.251
REMARK  5 active torsions:
REMARK  status: ('A' for Active; 'I' for Inactive)
REMARK    1  A    between atoms: C6_9  and  N3_10 
REMARK    2  A    between atoms: N3_10  and  C7_12 
REMARK    3  A    between atoms: C12_17  and  S1_18 
REMARK    4  A    between atoms: N5_28  and  C18_30 
REMARK    5  A    between atoms: C21_33  and  C22_34 
ROOT
HETATM    1  C1  UNL     1     -46.214  24.508 -20.260  1.00  0.00     0.089 C 
HETATM    2  C2  UNL     1     -47.531  23.953 -19.789  1.00  0.00     0.079 A 
HETATM    3  N1  UNL     1     -48.459  23.627 -20.709  1.00  0.00    -0.344 N 
ATOM      4  H1  UNL     1     -48.253  23.762 -21.700  1.00  0.00     0.167 HD
HETATM    5  C3  UNL     1     -49.654  23.126 -20.343  1.00  0.00     0.073 A 
HETATM    6  C4  UNL     1     -50.608  22.793 -21.314  1.00  0.00     0.116 A 
HETATM    7  C5  UNL     1     -50.296  22.992 -22.699  1.00  0.00     0.105 C 
HETATM    8  N2  UNL     1     -50.021  23.161 -23.805  1.00  0.00    -0.191 NA
HETATM    9  C6  UNL     1     -51.817  22.284 -20.907  1.00  0.00     0.129 A 
HETATM   10  N4  UNL     1     -52.011  22.134 -19.554  1.00  0.00    -0.350 N 
ATOM     11  H4  UNL     1     -52.904  21.757 -19.235  1.00  0.00     0.166 HD
HETATM   12  C15 UNL     1     -51.100  22.453 -18.638  1.00  0.00     0.107 A 
HETATM   13  C16 UNL     1     -49.879  22.965 -18.995  1.00  0.00     0.052 A 
HETATM   14  C17 UNL     1     -48.946  23.289 -18.036  1.00  0.00     0.121 A 
HETATM   15  N5  UNL     1     -49.153  23.139 -16.774  1.00  0.00    -0.342 N 
ATOM     16  H5  UNL     1     -50.043  22.763 -16.446  1.00  0.00     0.167 HD
HETATM   17  N8  UNL     1     -47.775  23.785 -18.473  1.00  0.00    -0.332 N 
ATOM     18  H8  UNL     1     -47.057  24.039 -17.794  1.00  0.00     0.168 HD
ENDROOT
BRANCH   9  19
HETATM   19  N3  UNL     1     -52.754  21.944 -21.628  1.00  0.00    -0.341 N 
ATOM     20  H3  UNL     1     -53.394  22.729 -21.751  1.00  0.00     0.167 HD
BRANCH  19  21
HETATM   21  C7  UNL     1     -53.222  20.856 -22.322  1.00  0.00     0.035 A 
HETATM   22  C8  UNL     1     -54.421  20.200 -21.985  1.00  0.00     0.030 A 
HETATM   23  C9  UNL     1     -54.837  19.104 -22.700  1.00  0.00     0.010 A 
HETATM   24  C10 UNL     1     -54.109  18.609 -23.758  1.00  0.00    -0.040 A 
HETATM   25  C11 UNL     1     -54.562  17.414 -24.535  1.00  0.00     0.049 C 
HETATM   26  C12 UNL     1     -52.932  19.253 -24.088  1.00  0.00     0.067 A 
HETATM   27  C14 UNL     1     -52.526  20.327 -23.388  1.00  0.00     0.053 A 
BRANCH  26  28
HETATM   28  S1  UNL     1     -51.959  18.660 -25.438  1.00  0.00     0.172 S 
HETATM   29  C13 UNL     1     -52.895  18.834 -26.938  1.00  0.00     0.167 C 
HETATM   30  O1  UNL     1     -51.748  17.191 -25.223  1.00  0.00    -0.223 OA
HETATM   31  O2  UNL     1     -50.635  19.313 -25.495  1.00  0.00    -0.223 OA
ENDBRANCH  26  28
ENDBRANCH  19  21
ENDBRANCH   9  19
BRANCH  15  32
HETATM   32  C18 UNL     1     -48.148  23.495 -15.837  1.00  0.00     0.033 A 
HETATM   33  C19 UNL     1     -48.137  24.750 -15.298  1.00  0.00     0.030 A 
HETATM   34  C20 UNL     1     -47.179  25.133 -14.387  1.00  0.00     0.014 A 
HETATM   35  C21 UNL     1     -46.188  24.269 -13.976  1.00  0.00    -0.023 A 
HETATM   36  C26 UNL     1     -46.215  22.996 -14.534  1.00  0.00     0.014 A 
HETATM   37  C27 UNL     1     -47.162  22.602 -15.443  1.00  0.00     0.030 A 
BRANCH  35  38
HETATM   38  C22 UNL     1     -45.180  24.667 -13.020  1.00  0.00     0.005 A 
HETATM   39  C23 UNL     1     -43.927  24.088 -12.977  1.00  0.00     0.102 A 
HETATM   40  N6  UNL     1     -43.060  24.511 -12.069  1.00  0.00    -0.361 N 
HETATM   41  C24 UNL     1     -43.353  25.474 -11.193  1.00  0.00     0.180 A 
ATOM     42  H6  UNL     1     -42.134  24.084 -12.038  1.00  0.00     0.166 HD
HETATM   43  N7  UNL     1     -44.555  26.041 -11.220  1.00  0.00    -0.361 N 
HETATM   44  C25 UNL     1     -45.460  25.654 -12.110  1.00  0.00     0.102 A 
ATOM     45  H7  UNL     1     -44.783  26.778 -10.552  1.00  0.00     0.166 HD
ENDBRANCH  35  38
ENDBRANCH  15  32
TORSDOF 5
ENDMDL
