MODEL 1
REMARK VINA RESULT: -7.685839414      0.000      0.000
REMARK  4 active torsions:
REMARK  status: ('A' for Active; 'I' for Inactive)
REMARK    1  A    between atoms: C4_8  and  C5_9 
REMARK    2  A    between atoms: C6_11  and  C7_12 
REMARK    3  A    between atoms: C11_16  and  S1_17 
REMARK    4  A    between atoms: S1_17  and  N3_18 
ROOT
HETATM    1  C1  UNL     1      45.464  -0.660  92.768  1.00  0.00     0.044 C 
HETATM    2  C2  UNL     1      44.157  -0.528  92.713  1.00  0.00     0.047 A 
HETATM    3  N1  UNL     1      43.588   0.792  92.871  1.00  0.00    -0.341 N 
ATOM      4  H1  UNL     1      44.199   1.596  93.012  1.00  0.00     0.167 HD
HETATM    5  C3  UNL     1      42.190   0.968  92.832  1.00  0.00     0.117 A 
HETATM    6  N2  UNL     1      41.364   2.050  92.946  1.00  0.00    -0.344 N 
ATOM      7  H2  UNL     1      41.674   3.011  93.095  1.00  0.00     0.167 HD
HETATM    8  C4  UNL     1      40.088   1.661  92.834  1.00  0.00     0.032 A 
HETATM    9  C6  UNL     1      40.106   0.298  92.645  1.00  0.00    -0.021 A 
HETATM   10  C9  UNL     1      41.423  -0.160  92.640  1.00  0.00     0.018 A 
HETATM   11  C10 UNL     1      41.996  -1.486  92.480  1.00  0.00     0.043 A 
HETATM   12  C11 UNL     1      43.325  -1.702  92.510  1.00  0.00     0.106 A 
ENDROOT
BRANCH  12  13
HETATM   13  S1  UNL     1      43.950  -3.324  92.279  1.00  0.00     0.259 S 
HETATM   14  O1  UNL     1      44.152  -3.698  90.859  1.00  0.00    -0.201 OA
HETATM   15  O2  UNL     1      42.889  -4.316  92.794  1.00  0.00    -0.201 OA
BRANCH  13  16
HETATM   16  N3  UNL     1      45.344  -3.625  93.218  1.00  0.00    -0.324 N 
ATOM     17  H32 UNL     1      45.304  -3.984  94.172  1.00  0.00     0.169 HD
ATOM     18  H31 UNL     1      46.205  -3.405  92.717  1.00  0.00     0.169 HD
ENDBRANCH  13  16
ENDBRANCH  12  13
BRANCH   9  19
HETATM   19  C7  UNL     1      38.945  -0.643  92.463  1.00  0.00     0.037 C 
HETATM   20  C8  UNL     1      38.589  -0.805  91.006  1.00  0.00     0.010 C 
ENDBRANCH   9  19
BRANCH   8  21
HETATM   21  C5  UNL     1      38.851   2.477  92.890  1.00  0.00     0.172 C 
HETATM   22 CL1  UNL     1      38.870   3.520  94.350  1.00  0.00    -0.124 Cl
ENDBRANCH   8  21
TORSDOF 4
ENDMDL
MODEL 2
REMARK VINA RESULT: -7.401779232      1.933      2.556
REMARK  4 active torsions:
REMARK  status: ('A' for Active; 'I' for Inactive)
REMARK    1  A    between atoms: C4_8  and  C5_9 
REMARK    2  A    between atoms: C6_11  and  C7_12 
REMARK    3  A    between atoms: C11_16  and  S1_17 
REMARK    4  A    between atoms: S1_17  and  N3_18 
ROOT
HETATM    1  C1  UNL     1      47.326  -0.549  93.905  1.00  0.00     0.044 C 
HETATM    2  C2  UNL     1      46.099  -0.735  93.469  1.00  0.00     0.047 A 
HETATM    3  N1  UNL     1      45.251   0.419  93.275  1.00  0.00    -0.341 N 
ATOM      4  H1  UNL     1      45.612   1.354  93.466  1.00  0.00     0.167 HD
HETATM    5  C3  UNL     1      43.927   0.255  92.823  1.00  0.00     0.117 A 
HETATM    6  N2  UNL     1      42.901   1.116  92.549  1.00  0.00    -0.344 N 
ATOM      7  H2  UNL     1      42.947   2.131  92.642  1.00  0.00     0.167 HD
HETATM    8  C4  UNL     1      41.828   0.428  92.141  1.00  0.00     0.032 A 
HETATM    9  C6  UNL     1      42.181  -0.903  92.159  1.00  0.00    -0.021 A 
HETATM   10  C9  UNL     1      43.502  -1.034  92.585  1.00  0.00     0.018 A 
HETATM   11  C10 UNL     1      44.356  -2.194  92.780  1.00  0.00     0.043 A 
HETATM   12  C11 UNL     1      45.627  -2.085  93.210  1.00  0.00     0.106 A 
ENDROOT
BRANCH  12  13
HETATM   13  S1  UNL     1      46.611  -3.526  93.393  1.00  0.00     0.259 S 
HETATM   14  O1  UNL     1      47.979  -3.398  92.837  1.00  0.00    -0.201 OA
HETATM   15  O2  UNL     1      45.960  -4.651  92.567  1.00  0.00    -0.201 OA
BRANCH  13  16
HETATM   16  N3  UNL     1      46.632  -4.099  95.001  1.00  0.00    -0.324 N 
ATOM     17  H32 UNL     1      45.862  -3.951  95.653  1.00  0.00     0.169 HD
ATOM     18  H31 UNL     1      47.494  -4.597  95.226  1.00  0.00     0.169 HD
ENDBRANCH  13  16
ENDBRANCH  12  13
BRANCH   9  19
HETATM   19  C7  UNL     1      41.349  -2.103  91.794  1.00  0.00     0.037 C 
HETATM   20  C8  UNL     1      40.192  -2.282  92.745  1.00  0.00     0.010 C 
ENDBRANCH   9  19
BRANCH   8  21
HETATM   21  C5  UNL     1      40.492   0.928  91.735  1.00  0.00     0.172 C 
HETATM   22 CL1  UNL     1      39.578   1.477  93.178  1.00  0.00    -0.124 Cl
ENDBRANCH   8  21
TORSDOF 4
ENDMDL
MODEL 3
REMARK VINA RESULT: -7.401480094      2.105      3.728
REMARK  4 active torsions:
REMARK  status: ('A' for Active; 'I' for Inactive)
REMARK    1  A    between atoms: C4_8  and  C5_9 
REMARK    2  A    between atoms: C6_11  and  C7_12 
REMARK    3  A    between atoms: C11_16  and  S1_17 
REMARK    4  A    between atoms: S1_17  and  N3_18 
ROOT
HETATM    1  C1  UNL     1      40.245  -2.183  92.633  1.00  0.00     0.044 C 
HETATM    2  C2  UNL     1      41.168  -1.247  92.658  1.00  0.00     0.047 A 
HETATM    3  N1  UNL     1      40.751   0.133  92.762  1.00  0.00    -0.341 N 
ATOM      4  H1  UNL     1      39.759   0.362  92.826  1.00  0.00     0.167 HD
HETATM    5  C3  UNL     1      41.712   1.163  92.777  1.00  0.00     0.117 A 
HETATM    6  N2  UNL     1      41.647   2.525  92.861  1.00  0.00    -0.344 N 
ATOM      7  H2  UNL     1      40.786   3.067  92.937  1.00  0.00     0.167 HD
HETATM    8  C4  UNL     1      42.882   3.042  92.830  1.00  0.00     0.032 A 
HETATM    9  C6  UNL     1      43.751   1.981  92.721  1.00  0.00    -0.021 A 
HETATM   10  C9  UNL     1      43.034   0.786  92.687  1.00  0.00     0.018 A 
HETATM   11  C10 UNL     1      43.452  -0.602  92.582  1.00  0.00     0.043 A 
HETATM   12  C11 UNL     1      42.569  -1.619  92.565  1.00  0.00     0.106 A 
ENDROOT
BRANCH  12  13
HETATM   13  S1  UNL     1      43.146  -3.273  92.468  1.00  0.00     0.259 S 
HETATM   14  O1  UNL     1      42.392  -4.226  93.317  1.00  0.00    -0.201 OA
HETATM   15  O2  UNL     1      44.581  -3.306  93.026  1.00  0.00    -0.201 OA
BRANCH  13  16
HETATM   16  N3  UNL     1      43.273  -3.824  90.857  1.00  0.00    -0.324 N 
ATOM     17  H32 UNL     1      42.737  -3.422  90.089  1.00  0.00     0.169 HD
ATOM     18  H31 UNL     1      43.939  -4.591  90.759  1.00  0.00     0.169 HD
ENDBRANCH  13  16
ENDBRANCH  12  13
BRANCH   9  19
HETATM   19  C7  UNL     1      45.255   1.999  92.645  1.00  0.00     0.037 C 
HETATM   20  C8  UNL     1      45.733   2.119  91.220  1.00  0.00     0.010 C 
ENDBRANCH   9  19
BRANCH   8  21
HETATM   21  C5  UNL     1      43.306   4.462  92.896  1.00  0.00     0.172 C 
HETATM   22 CL1  UNL     1      42.266   5.359  94.051  1.00  0.00    -0.124 Cl
ENDBRANCH   8  21
TORSDOF 4
ENDMDL
MODEL 4
REMARK VINA RESULT: -7.314372964      0.942      1.119
REMARK  4 active torsions:
REMARK  status: ('A' for Active; 'I' for Inactive)
REMARK    1  A    between atoms: C4_8  and  C5_9 
REMARK    2  A    between atoms: C6_11  and  C7_12 
REMARK    3  A    between atoms: C11_16  and  S1_17 
REMARK    4  A    between atoms: S1_17  and  N3_18 
ROOT
HETATM    1  C1  UNL     1      45.346  -1.151  92.697  1.00  0.00     0.044 C 
HETATM    2  C2  UNL     1      44.061  -0.875  92.662  1.00  0.00     0.047 A 
HETATM    3  N1  UNL     1      43.649   0.509  92.722  1.00  0.00    -0.341 N 
ATOM      4  H1  UNL     1      44.350   1.247  92.781  1.00  0.00     0.167 HD
HETATM    5  C3  UNL     1      42.279   0.840  92.700  1.00  0.00     0.117 A 
HETATM    6  N2  UNL     1      41.584   2.015  92.743  1.00  0.00    -0.344 N 
ATOM      7  H2  UNL     1      42.003   2.943  92.804  1.00  0.00     0.167 HD
HETATM    8  C4  UNL     1      40.269   1.766  92.693  1.00  0.00     0.032 A 
HETATM    9  C6  UNL     1      40.128   0.399  92.619  1.00  0.00    -0.021 A 
HETATM   10  C9  UNL     1      41.384  -0.205  92.621  1.00  0.00     0.018 A 
HETATM   11  C10 UNL     1      41.800  -1.596  92.560  1.00  0.00     0.043 A 
HETATM   12  C11 UNL     1      43.097  -1.959  92.577  1.00  0.00     0.106 A 
ENDROOT
BRANCH  12  13
HETATM   13  S1  UNL     1      43.529  -3.656  92.469  1.00  0.00     0.259 S 
HETATM   14  O1  UNL     1      42.590  -4.564  93.170  1.00  0.00    -0.201 OA
HETATM   15  O2  UNL     1      44.873  -3.849  93.197  1.00  0.00    -0.201 OA
BRANCH  13  16
HETATM   16  N3  UNL     1      43.809  -4.154  90.860  1.00  0.00    -0.324 N 
ATOM     17  H32 UNL     1      43.131  -4.689  90.318  1.00  0.00     0.169 HD
ATOM     18  H31 UNL     1      44.722  -3.858  90.514  1.00  0.00     0.169 HD
ENDBRANCH  13  16
ENDBRANCH  12  13
BRANCH   9  19
HETATM   19  C7  UNL     1      38.863  -0.415  92.543  1.00  0.00     0.037 C 
HETATM   20  C8  UNL     1      38.513  -0.758  91.117  1.00  0.00     0.010 C 
ENDBRANCH   9  19
BRANCH   8  21
HETATM   21  C5  UNL     1      39.133   2.720  92.710  1.00  0.00     0.172 C 
HETATM   22 CL1  UNL     1      38.953   3.432  94.347  1.00  0.00    -0.124 Cl
ENDBRANCH   8  21
TORSDOF 4
ENDMDL
MODEL 5
REMARK VINA RESULT: -7.266608925      2.348      3.183
REMARK  4 active torsions:
REMARK  status: ('A' for Active; 'I' for Inactive)
REMARK    1  A    between atoms: C4_8  and  C5_9 
REMARK    2  A    between atoms: C6_11  and  C7_12 
REMARK    3  A    between atoms: C11_16  and  S1_17 
REMARK    4  A    between atoms: S1_17  and  N3_18 
ROOT
HETATM    1  C1  UNL     1      44.739  -1.904  92.440  1.00  0.00     0.044 C 
HETATM    2  C2  UNL     1      43.979  -0.850  92.639  1.00  0.00     0.047 A 
HETATM    3  N1  UNL     1      44.605   0.451  92.712  1.00  0.00    -0.341 N 
ATOM      4  H1  UNL     1      45.615   0.537  92.600  1.00  0.00     0.167 HD
HETATM    5  C3  UNL     1      43.823   1.600  92.939  1.00  0.00     0.117 A 
HETATM    6  N2  UNL     1      44.101   2.932  93.059  1.00  0.00    -0.344 N 
ATOM      7  H2  UNL     1      45.032   3.345  92.994  1.00  0.00     0.167 HD
HETATM    8  C4  UNL     1      42.969   3.615  93.276  1.00  0.00     0.032 A 
HETATM    9  C6  UNL     1      41.949   2.692  93.294  1.00  0.00    -0.021 A 
HETATM   10  C9  UNL     1      42.465   1.414  93.083  1.00  0.00     0.018 A 
HETATM   11  C10 UNL     1      41.837   0.106  93.009  1.00  0.00     0.043 A 
HETATM   12  C11 UNL     1      42.544  -1.020  92.793  1.00  0.00     0.106 A 
ENDROOT
BRANCH  12  13
HETATM   13  S1  UNL     1      41.717  -2.562  92.684  1.00  0.00     0.259 S 
HETATM   14  O1  UNL     1      42.208  -3.581  93.643  1.00  0.00    -0.201 OA
HETATM   15  O2  UNL     1      42.014  -3.160  91.296  1.00  0.00    -0.201 OA
BRANCH  13  16
HETATM   16  N3  UNL     1      40.019  -2.396  92.751  1.00  0.00    -0.324 N 
ATOM     17  H32 UNL     1      39.556  -1.574  93.139  1.00  0.00     0.169 HD
ATOM     18  H31 UNL     1      39.533  -3.205  92.363  1.00  0.00     0.169 HD
ENDBRANCH  13  16
ENDBRANCH  12  13
BRANCH   9  19
HETATM   19  C7  UNL     1      40.475   2.921  93.502  1.00  0.00     0.037 C 
HETATM   20  C8  UNL     1      40.100   2.816  94.959  1.00  0.00     0.010 C 
ENDBRANCH   9  19
BRANCH   8  21
HETATM   21  C5  UNL     1      42.776   5.073  93.465  1.00  0.00     0.172 C 
HETATM   22 CL1  UNL     1      42.365   5.420  95.177  1.00  0.00    -0.124 Cl
ENDBRANCH   8  21
TORSDOF 4
ENDMDL
