MODEL 1
REMARK VINA RESULT: -9.831029028      0.000      0.000
REMARK  3 active torsions:
REMARK  status: ('A' for Active; 'I' for Inactive)
REMARK    1  A    between atoms: C3_7  and  N3_8 
REMARK    2  A    between atoms: N3_8  and  C4_10 
REMARK    3  A    between atoms: C4_10  and  C5_11 
ROOT
HETATM    1  C1  UNL     1      44.650   5.633  94.050  1.00  0.00     0.147 C 
HETATM    2  N1  UNL     1      43.478   5.052  93.614  1.00  0.00    -0.378 N 
ATOM      3  H1  UNL     1      42.664   5.424  94.104  1.00  0.00     0.160 HD
HETATM    4  C2  UNL     1      43.160   4.198  92.783  1.00  0.00     0.147 A 
HETATM    5  N2  UNL     1      41.836   3.855  92.610  1.00  0.00    -0.175 N 
ATOM      6  H2  UNL     1      41.142   4.329  93.188  1.00  0.00     0.186 HD
HETATM    7  C3  UNL     1      41.404   2.950  91.743  1.00  0.00     0.681 A 
HETATM    8  N4  UNL     1      42.312   2.328  90.984  1.00  0.00    -0.174 N 
ATOM      9  H4  UNL     1      42.000   1.629  90.310  1.00  0.00     0.186 HD
HETATM   10  C11 UNL     1      43.642   2.600  91.083  1.00  0.00     0.155 A 
HETATM   11  C12 UNL     1      44.104   3.549  91.991  1.00  0.00     0.123 A 
HETATM   12  N5  UNL     1      45.436   3.587  91.851  1.00  0.00    -0.340 N 
ATOM     13  H5  UNL     1      46.081   4.181  92.372  1.00  0.00     0.167 HD
HETATM   14  C13 UNL     1      45.771   2.686  90.885  1.00  0.00     0.081 A 
HETATM   15  C14 UNL     1      47.176   2.431  90.436  1.00  0.00     0.089 C 
HETATM   16  N6  UNL     1      44.692   2.085  90.416  1.00  0.00    -0.325 N 
HETATM   17  C15 UNL     1      44.615   1.056  89.373  1.00  0.00     0.159 C 
ENDROOT
BRANCH   7  18
HETATM   18  N3  UNL     1      40.138   2.683  91.640  1.00  0.00    -0.222 N 
ATOM     19  H3  UNL     1      39.626   3.082  90.853  1.00  0.00     0.178 HD
BRANCH  18  20
HETATM   20  C4  UNL     1      39.418   1.866  92.563  1.00  0.00     0.176 C 
BRANCH  20  21
HETATM   21  C5  UNL     1      39.997   0.495  92.646  1.00  0.00    -0.040 A 
HETATM   22  C6  UNL     1      41.265   0.326  93.112  1.00  0.00     0.012 A 
HETATM   23  C7  UNL     1      41.841  -0.923  93.205  1.00  0.00     0.043 A 
HETATM   24  C8  UNL     1      41.128  -2.036  92.822  1.00  0.00     0.116 A 
HETATM   25  F1  UNL     1      41.691  -3.286  92.911  1.00  0.00    -0.206 F 
HETATM   26  C9  UNL     1      39.848  -1.872  92.352  1.00  0.00     0.043 A 
HETATM   27  C10 UNL     1      39.290  -0.621  92.265  1.00  0.00     0.012 A 
ENDBRANCH  20  21
ENDBRANCH  18  20
ENDBRANCH   7  18
TORSDOF 3
ENDMDL
MODEL 2
REMARK VINA RESULT: -9.394166944      0.847      3.011
REMARK  3 active torsions:
REMARK  status: ('A' for Active; 'I' for Inactive)
REMARK    1  A    between atoms: C3_7  and  N3_8 
REMARK    2  A    between atoms: N3_8  and  C4_10 
REMARK    3  A    between atoms: C4_10  and  C5_11 
ROOT
HETATM    1  C1  UNL     1      45.255   2.561  89.979  1.00  0.00     0.147 C 
HETATM    2  N1  UNL     1      43.909   2.386  90.227  1.00  0.00    -0.378 N 
ATOM      3  H1  UNL     1      43.491   1.707  89.591  1.00  0.00     0.160 HD
HETATM    4  C2  UNL     1      43.083   2.839  91.022  1.00  0.00     0.147 A 
HETATM    5  N2  UNL     1      41.771   2.415  90.976  1.00  0.00    -0.175 N 
ATOM      6  H2  UNL     1      41.518   1.724  90.270  1.00  0.00     0.186 HD
HETATM    7  C3  UNL     1      40.817   2.847  91.788  1.00  0.00     0.681 A 
HETATM    8  N4  UNL     1      41.146   3.754  92.714  1.00  0.00    -0.174 N 
ATOM      9  H4  UNL     1      40.426   4.098  93.349  1.00  0.00     0.186 HD
HETATM   10  C11 UNL     1      42.415   4.231  92.835  1.00  0.00     0.155 A 
HETATM   11  C12 UNL     1      43.423   3.783  91.986  1.00  0.00     0.123 A 
HETATM   12  N5  UNL     1      44.538   4.429  92.352  1.00  0.00    -0.340 N 
ATOM     13  H5  UNL     1      45.461   4.328  91.929  1.00  0.00     0.167 HD
HETATM   14  C13 UNL     1      44.214   5.246  93.393  1.00  0.00     0.081 A 
HETATM   15  C14 UNL     1      45.194   6.140  94.087  1.00  0.00     0.089 C 
HETATM   16  N6  UNL     1      42.932   5.132  93.692  1.00  0.00    -0.325 N 
HETATM   17  C15 UNL     1      42.185   5.833  94.742  1.00  0.00     0.159 C 
ENDROOT
BRANCH   7  18
HETATM   18  N3  UNL     1      39.603   2.399  91.681  1.00  0.00    -0.222 N 
ATOM     19  H3  UNL     1      39.033   2.739  90.905  1.00  0.00     0.178 HD
BRANCH  18  20
HETATM   20  C4  UNL     1      39.017   1.460  92.581  1.00  0.00     0.176 C 
BRANCH  20  21
HETATM   21  C5  UNL     1      39.807   0.197  92.645  1.00  0.00    -0.040 A 
HETATM   22  C6  UNL     1      41.080   0.222  93.125  1.00  0.00     0.012 A 
HETATM   23  C7  UNL     1      41.847  -0.921  93.202  1.00  0.00     0.043 A 
HETATM   24  C8  UNL     1      41.326  -2.125  92.785  1.00  0.00     0.116 A 
HETATM   25  F1  UNL     1      42.080  -3.270  92.857  1.00  0.00    -0.206 F 
HETATM   26  C9  UNL     1      40.041  -2.156  92.300  1.00  0.00     0.043 A 
HETATM   27  C10 UNL     1      39.291  -1.008  92.231  1.00  0.00     0.012 A 
ENDBRANCH  20  21
ENDBRANCH  18  20
ENDBRANCH   7  18
TORSDOF 3
ENDMDL
MODEL 3
REMARK VINA RESULT: -9.176379930      2.279      4.088
REMARK  3 active torsions:
REMARK  status: ('A' for Active; 'I' for Inactive)
REMARK    1  A    between atoms: C3_7  and  N3_8 
REMARK    2  A    between atoms: N3_8  and  C4_10 
REMARK    3  A    between atoms: C4_10  and  C5_11 
ROOT
HETATM    1  C1  UNL     1      46.850   2.410  90.342  1.00  0.00     0.147 C 
HETATM    2  N1  UNL     1      46.202   1.270  90.770  1.00  0.00    -0.378 N 
ATOM      3  H1  UNL     1      46.648   0.424  90.416  1.00  0.00     0.160 HD
HETATM    4  C2  UNL     1      45.220   1.012  91.470  1.00  0.00     0.147 A 
HETATM    5  N2  UNL     1      44.850  -0.299  91.690  1.00  0.00    -0.175 N 
ATOM      6  H2  UNL     1      45.412  -1.031  91.258  1.00  0.00     0.186 HD
HETATM    7  C3  UNL     1      43.812  -0.669  92.427  1.00  0.00     0.681 A 
HETATM    8  N4  UNL     1      43.075   0.291  92.995  1.00  0.00    -0.174 N 
ATOM      9  H4  UNL     1      42.272   0.025  93.566  1.00  0.00     0.186 HD
HETATM   10  C11 UNL     1      43.362   1.611  92.835  1.00  0.00     0.155 A 
HETATM   11  C12 UNL     1      44.450   2.009  92.062  1.00  0.00     0.123 A 
HETATM   12  N5  UNL     1      44.467   3.348  92.098  1.00  0.00    -0.340 N 
ATOM     13  H5  UNL     1      45.142   3.955  91.633  1.00  0.00     0.167 HD
HETATM   14  C13 UNL     1      43.419   3.750  92.870  1.00  0.00     0.081 A 
HETATM   15  C14 UNL     1      43.096   5.184  93.155  1.00  0.00     0.089 C 
HETATM   16  N6  UNL     1      42.745   2.705  93.319  1.00  0.00    -0.325 N 
HETATM   17  C15 UNL     1      41.557   2.701  94.179  1.00  0.00     0.159 C 
ENDROOT
BRANCH   7  18
HETATM   18  N3  UNL     1      43.528  -1.926  92.586  1.00  0.00    -0.222 N 
ATOM     19  H3  UNL     1      43.967  -2.421  93.363  1.00  0.00     0.178 HD
BRANCH  18  20
HETATM   20  C4  UNL     1      42.641  -2.657  91.740  1.00  0.00     0.176 C 
BRANCH  20  21
HETATM   21  C5  UNL     1      41.336  -1.954  91.580  1.00  0.00    -0.040 A 
HETATM   22  C6  UNL     1      41.086  -1.247  90.444  1.00  0.00     0.012 A 
HETATM   23  C7  UNL     1      39.894  -0.582  90.253  1.00  0.00     0.043 A 
HETATM   24  C8  UNL     1      38.922  -0.624  91.227  1.00  0.00     0.116 A 
HETATM   25  F1  UNL     1      37.730   0.035  91.049  1.00  0.00    -0.206 F 
HETATM   26  C9  UNL     1      39.169  -1.335  92.376  1.00  0.00     0.043 A 
HETATM   27  C10 UNL     1      40.362  -1.992  92.550  1.00  0.00     0.012 A 
ENDBRANCH  20  21
ENDBRANCH  18  20
ENDBRANCH   7  18
TORSDOF 3
ENDMDL
MODEL 4
REMARK VINA RESULT: -9.168072961      1.520      3.387
REMARK  3 active torsions:
REMARK  status: ('A' for Active; 'I' for Inactive)
REMARK    1  A    between atoms: C3_7  and  N3_8 
REMARK    2  A    between atoms: N3_8  and  C4_10 
REMARK    3  A    between atoms: C4_10  and  C5_11 
ROOT
HETATM    1  C1  UNL     1      44.830   2.323  89.583  1.00  0.00     0.147 C 
HETATM    2  N1  UNL     1      43.608   1.849  90.013  1.00  0.00    -0.378 N 
ATOM      3  H1  UNL     1      43.272   1.083  89.429  1.00  0.00     0.160 HD
HETATM    4  C2  UNL     1      42.818   2.114  90.922  1.00  0.00     0.147 A 
HETATM    5  N2  UNL     1      41.644   1.402  91.051  1.00  0.00    -0.175 N 
ATOM      6  H2  UNL     1      41.461   0.660  90.376  1.00  0.00     0.186 HD
HETATM    7  C3  UNL     1      40.739   1.617  91.995  1.00  0.00     0.681 A 
HETATM    8  N4  UNL     1      40.979   2.589  92.881  1.00  0.00    -0.174 N 
ATOM      9  H4  UNL     1      40.294   2.770  93.615  1.00  0.00     0.186 HD
HETATM   10  C11 UNL     1      42.109   3.345  92.833  1.00  0.00     0.155 A 
HETATM   11  C12 UNL     1      43.065   3.126  91.845  1.00  0.00     0.123 A 
HETATM   12  N5  UNL     1      44.043   4.015  92.064  1.00  0.00    -0.340 N 
ATOM     13  H5  UNL     1      44.896   4.121  91.515  1.00  0.00     0.167 HD
HETATM   14  C13 UNL     1      43.689   4.753  93.153  1.00  0.00     0.081 A 
HETATM   15  C14 UNL     1      44.526   5.858  93.719  1.00  0.00     0.089 C 
HETATM   16  N6  UNL     1      42.520   4.354  93.625  1.00  0.00    -0.325 N 
HETATM   17  C15 UNL     1      41.786   4.882  94.780  1.00  0.00     0.159 C 
ENDROOT
BRANCH   7  18
HETATM   18  N3  UNL     1      39.657   0.902  92.049  1.00  0.00    -0.222 N 
ATOM     19  H3  UNL     1      38.892   1.234  92.638  1.00  0.00     0.178 HD
BRANCH  18  20
HETATM   20  C4  UNL     1      39.471  -0.320  91.334  1.00  0.00     0.176 C 
BRANCH  20  21
HETATM   21  C5  UNL     1      40.576  -1.284  91.604  1.00  0.00    -0.040 A 
HETATM   22  C6  UNL     1      41.558  -1.460  90.678  1.00  0.00     0.012 A 
HETATM   23  C7  UNL     1      42.598  -2.340  90.884  1.00  0.00     0.043 A 
HETATM   24  C8  UNL     1      42.659  -3.066  92.052  1.00  0.00     0.116 A 
HETATM   25  F1  UNL     1      43.690  -3.947  92.270  1.00  0.00    -0.206 F 
HETATM   26  C9  UNL     1      41.671  -2.892  92.991  1.00  0.00     0.043 A 
HETATM   27  C10 UNL     1      40.642  -2.011  92.769  1.00  0.00     0.012 A 
ENDBRANCH  20  21
ENDBRANCH  18  20
ENDBRANCH   7  18
TORSDOF 3
ENDMDL
MODEL 5
REMARK VINA RESULT: -9.095543833      1.824      3.282
REMARK  3 active torsions:
REMARK  status: ('A' for Active; 'I' for Inactive)
REMARK    1  A    between atoms: C3_7  and  N3_8 
REMARK    2  A    between atoms: N3_8  and  C4_10 
REMARK    3  A    between atoms: C4_10  and  C5_11 
ROOT
HETATM    1  C1  UNL     1      39.612   3.605  95.872  1.00  0.00     0.147 C 
HETATM    2  N1  UNL     1      39.404   2.781  94.786  1.00  0.00    -0.378 N 
ATOM      3  H1  UNL     1      38.548   2.234  94.883  1.00  0.00     0.160 HD
HETATM    4  C2  UNL     1      39.986   2.536  93.727  1.00  0.00     0.147 A 
HETATM    5  N2  UNL     1      39.463   1.615  92.843  1.00  0.00    -0.175 N 
ATOM      6  H2  UNL     1      38.589   1.154  93.098  1.00  0.00     0.186 HD
HETATM    7  C3  UNL     1      40.020   1.290  91.685  1.00  0.00     0.681 A 
HETATM    8  N4  UNL     1      41.164   1.894  91.350  1.00  0.00    -0.174 N 
ATOM      9  H4  UNL     1      41.608   1.657  90.463  1.00  0.00     0.186 HD
HETATM   10  C11 UNL     1      41.756   2.815  92.158  1.00  0.00     0.155 A 
HETATM   11  C12 UNL     1      41.178   3.163  93.376  1.00  0.00     0.123 A 
HETATM   12  N5  UNL     1      41.986   4.079  93.928  1.00  0.00    -0.340 N 
ATOM     13  H5  UNL     1      41.848   4.542  94.827  1.00  0.00     0.167 HD
HETATM   14  C13 UNL     1      43.023   4.280  93.068  1.00  0.00     0.081 A 
HETATM   15  C14 UNL     1      44.146   5.237  93.326  1.00  0.00     0.089 C 
HETATM   16  N6  UNL     1      42.892   3.520  91.995  1.00  0.00    -0.325 N 
HETATM   17  C15 UNL     1      43.787   3.434  90.836  1.00  0.00     0.159 C 
ENDROOT
BRANCH   7  18
HETATM   18  N3  UNL     1      39.464   0.411  90.908  1.00  0.00    -0.222 N 
ATOM     19  H3  UNL     1      39.183   0.708  89.973  1.00  0.00     0.178 HD
BRANCH  18  20
HETATM   20  C4  UNL     1      39.222  -0.945  91.281  1.00  0.00     0.176 C 
BRANCH  20  21
HETATM   21  C5  UNL     1      40.494  -1.667  91.570  1.00  0.00    -0.040 A 
HETATM   22  C6  UNL     1      41.488  -1.682  90.640  1.00  0.00     0.012 A 
HETATM   23  C7  UNL     1      42.680  -2.336  90.864  1.00  0.00     0.043 A 
HETATM   24  C8  UNL     1      42.885  -2.997  92.055  1.00  0.00     0.116 A 
HETATM   25  F1  UNL     1      44.068  -3.653  92.291  1.00  0.00    -0.206 F 
HETATM   26  C9  UNL     1      41.886  -2.985  92.998  1.00  0.00     0.043 A 
HETATM   27  C10 UNL     1      40.704  -2.327  92.757  1.00  0.00     0.012 A 
ENDBRANCH  20  21
ENDBRANCH  18  20
ENDBRANCH   7  18
TORSDOF 3
ENDMDL
