MODEL 1
REMARK VINA RESULT: -7.012908995      0.000      0.000
REMARK  5 active torsions:
REMARK  status: ('A' for Active; 'I' for Inactive)
REMARK    1  A    between atoms: N1_4  and  N2_6 
REMARK    2  A    between atoms: N2_6  and  C4_8 
REMARK    3  A    between atoms: C4_8  and  N3_10 
REMARK    4  A    between atoms: N3_10  and  N4_12 
REMARK       I    between atoms: N4_12  and  C5_14 
REMARK    5  A    between atoms: C5_14  and  C6_16 
ROOT
HETATM    1  N3  UNL     1     -43.182  -2.866   3.216  1.00  0.00    -0.272 N 
ATOM      2  H3  UNL     1     -43.767  -2.044   3.364  1.00  0.00     0.189 HD
ENDROOT
BRANCH   1   3
HETATM    3  C4  UNL     1     -42.819  -3.624   4.350  1.00  0.00     0.205 C 
HETATM    4  S1  UNL     1     -43.377  -3.232   5.820  1.00  0.00    -0.038 SA
BRANCH   3   5
HETATM    5  N2  UNL     1     -41.938  -4.733   4.211  1.00  0.00    -0.275 N 
ATOM      6  H2  UNL     1     -41.991  -5.305   3.368  1.00  0.00     0.189 HD
BRANCH   5   7
HETATM    7  N1  UNL     1     -41.011  -5.058   5.184  1.00  0.00    -0.307 N 
HETATM    8  C2  UNL     1     -39.791  -4.726   5.136  1.00  0.00    -0.004 C 
HETATM    9  C1  UNL     1     -39.234  -3.943   4.017  1.00  0.00     0.064 C 
HETATM   10  C3  UNL     1     -38.885  -5.148   6.249  1.00  0.00     0.064 C 
ATOM     11  H1  UNL     1     -41.330  -5.598   5.989  1.00  0.00     0.186 HD
ENDBRANCH   5   7
ENDBRANCH   3   5
ENDBRANCH   1   3
BRANCH   1  12
HETATM   12  N4  UNL     1     -42.801  -3.159   1.914  1.00  0.00    -0.264 N 
HETATM   13  C5  UNL     1     -42.642  -2.203   0.918  1.00  0.00     0.271 C 
HETATM   14  O1  UNL     1     -42.832  -0.955   1.142  1.00  0.00    -0.266 OA
ATOM     15  H4  UNL     1     -42.625  -4.135   1.673  1.00  0.00     0.190 HD
BRANCH  13  16
HETATM   16  C6  UNL     1     -42.247  -2.498  -0.457  1.00  0.00     0.051 A 
HETATM   17  C7  UNL     1     -43.236  -2.587  -1.450  1.00  0.00     0.018 A 
HETATM   18  C8  UNL     1     -42.958  -2.785  -2.780  1.00  0.00     0.001 A 
HETATM   19  C9  UNL     1     -41.633  -2.908  -3.163  1.00  0.00     0.001 A 
HETATM   20  C10 UNL     1     -40.616  -2.831  -2.232  1.00  0.00     0.020 A 
HETATM   21  C11 UNL     1     -40.957  -2.628  -0.896  1.00  0.00     0.026 A 
HETATM   22 BR1  UNL     1     -39.507  -2.608   0.345  1.00  0.00    -0.050 Br
ENDBRANCH  13  16
ENDBRANCH   1  12
TORSDOF 5
ENDMDL
MODEL 2
REMARK VINA RESULT: -6.858582382      1.417      1.803
REMARK  5 active torsions:
REMARK  status: ('A' for Active; 'I' for Inactive)
REMARK    1  A    between atoms: N1_4  and  N2_6 
REMARK    2  A    between atoms: N2_6  and  C4_8 
REMARK    3  A    between atoms: C4_8  and  N3_10 
REMARK    4  A    between atoms: N3_10  and  N4_12 
REMARK       I    between atoms: N4_12  and  C5_14 
REMARK    5  A    between atoms: C5_14  and  C6_16 
ROOT
HETATM    1  N3  UNL     1     -43.253  -2.683   3.226  1.00  0.00    -0.272 N 
ATOM      2  H3  UNL     1     -43.698  -1.790   3.434  1.00  0.00     0.189 HD
ENDROOT
BRANCH   1   3
HETATM    3  C4  UNL     1     -42.973  -3.544   4.310  1.00  0.00     0.205 C 
HETATM    4  S1  UNL     1     -43.644  -3.289   5.763  1.00  0.00    -0.038 SA
BRANCH   3   5
HETATM    5  N2  UNL     1     -42.078  -4.636   4.136  1.00  0.00    -0.275 N 
ATOM      6  H2  UNL     1     -42.084  -5.145   3.252  1.00  0.00     0.189 HD
BRANCH   5   7
HETATM    7  N1  UNL     1     -41.200  -5.029   5.130  1.00  0.00    -0.307 N 
HETATM    8  C2  UNL     1     -39.979  -4.699   5.164  1.00  0.00    -0.004 C 
HETATM    9  C1  UNL     1     -39.367  -3.848   4.128  1.00  0.00     0.064 C 
HETATM   10  C3  UNL     1     -39.130  -5.197   6.290  1.00  0.00     0.064 C 
ATOM     11  H1  UNL     1     -41.559  -5.618   5.881  1.00  0.00     0.186 HD
ENDBRANCH   5   7
ENDBRANCH   3   5
ENDBRANCH   1   3
BRANCH   1  12
HETATM   12  N4  UNL     1     -42.966  -2.966   1.898  1.00  0.00    -0.264 N 
HETATM   13  C5  UNL     1     -42.760  -1.995   0.925  1.00  0.00     0.271 C 
HETATM   14  O1  UNL     1     -42.811  -0.743   1.197  1.00  0.00    -0.266 OA
ATOM     15  H4  UNL     1     -42.902  -3.945   1.619  1.00  0.00     0.190 HD
BRANCH  13  16
HETATM   16  C6  UNL     1     -42.462  -2.278  -0.477  1.00  0.00     0.051 A 
HETATM   17  C7  UNL     1     -41.152  -2.631  -0.841  1.00  0.00     0.018 A 
HETATM   18  C8  UNL     1     -40.791  -2.987  -2.116  1.00  0.00     0.001 A 
HETATM   19  C9  UNL     1     -41.768  -2.999  -3.097  1.00  0.00     0.001 A 
HETATM   20  C10 UNL     1     -43.073  -2.661  -2.800  1.00  0.00     0.020 A 
HETATM   21  C11 UNL     1     -43.383  -2.307  -1.489  1.00  0.00     0.026 A 
HETATM   22 BR1  UNL     1     -45.188  -1.778  -1.167  1.00  0.00    -0.050 Br
ENDBRANCH  13  16
ENDBRANCH   1  12
TORSDOF 5
ENDMDL
MODEL 3
REMARK VINA RESULT: -6.855664115      3.086      3.873
REMARK  5 active torsions:
REMARK  status: ('A' for Active; 'I' for Inactive)
REMARK    1  A    between atoms: N1_4  and  N2_6 
REMARK    2  A    between atoms: N2_6  and  C4_8 
REMARK    3  A    between atoms: C4_8  and  N3_10 
REMARK    4  A    between atoms: N3_10  and  N4_12 
REMARK       I    between atoms: N4_12  and  C5_14 
REMARK    5  A    between atoms: C5_14  and  C6_16 
ROOT
HETATM    1  N3  UNL     1     -37.366  -4.204   2.272  1.00  0.00    -0.272 N 
ATOM      2  H3  UNL     1     -36.530  -3.630   2.167  1.00  0.00     0.189 HD
ENDROOT
BRANCH   1   3
HETATM    3  C4  UNL     1     -37.473  -4.998   3.434  1.00  0.00     0.205 C 
HETATM    4  S1  UNL     1     -36.189  -5.240   4.393  1.00  0.00    -0.038 SA
BRANCH   3   5
HETATM    5  N2  UNL     1     -38.714  -5.613   3.763  1.00  0.00    -0.275 N 
ATOM      6  H2  UNL     1     -38.777  -6.631   3.767  1.00  0.00     0.189 HD
BRANCH   5   7
HETATM    7  N1  UNL     1     -39.838  -4.870   4.076  1.00  0.00    -0.307 N 
HETATM    8  C2  UNL     1     -40.227  -4.643   5.258  1.00  0.00    -0.004 C 
HETATM    9  C1  UNL     1     -39.502  -5.157   6.435  1.00  0.00     0.064 C 
HETATM   10  C3  UNL     1     -41.466  -3.832   5.466  1.00  0.00     0.064 C 
ATOM     11  H1  UNL     1     -40.386  -4.482   3.308  1.00  0.00     0.186 HD
ENDBRANCH   5   7
ENDBRANCH   3   5
ENDBRANCH   1   3
BRANCH   1  12
HETATM   12  N4  UNL     1     -38.317  -4.147   1.262  1.00  0.00    -0.264 N 
HETATM   13  C5  UNL     1     -38.388  -3.129   0.319  1.00  0.00     0.271 C 
HETATM   14  O1  UNL     1     -37.553  -2.157   0.310  1.00  0.00    -0.266 OA
ATOM     15  H4  UNL     1     -39.006  -4.898   1.210  1.00  0.00     0.190 HD
BRANCH  13  16
HETATM   16  C6  UNL     1     -39.386  -3.055  -0.745  1.00  0.00     0.051 A 
HETATM   17  C7  UNL     1     -39.053  -3.514  -2.030  1.00  0.00     0.018 A 
HETATM   18  C8  UNL     1     -39.944  -3.555  -3.073  1.00  0.00     0.001 A 
HETATM   19  C9  UNL     1     -41.239  -3.120  -2.850  1.00  0.00     0.001 A 
HETATM   20  C10 UNL     1     -41.626  -2.656  -1.607  1.00  0.00     0.020 A 
HETATM   21  C11 UNL     1     -40.680  -2.637  -0.585  1.00  0.00     0.026 A 
HETATM   22 BR1  UNL     1     -41.262  -1.913   1.083  1.00  0.00    -0.050 Br
ENDBRANCH  13  16
ENDBRANCH   1  12
TORSDOF 5
ENDMDL
MODEL 4
REMARK VINA RESULT: -6.793724728      2.383      4.072
REMARK  5 active torsions:
REMARK  status: ('A' for Active; 'I' for Inactive)
REMARK    1  A    between atoms: N1_4  and  N2_6 
REMARK    2  A    between atoms: N2_6  and  C4_8 
REMARK    3  A    between atoms: C4_8  and  N3_10 
REMARK    4  A    between atoms: N3_10  and  N4_12 
REMARK       I    between atoms: N4_12  and  C5_14 
REMARK    5  A    between atoms: C5_14  and  C6_16 
ROOT
HETATM    1  N3  UNL     1     -41.852  -2.183   2.999  1.00  0.00    -0.272 N 
ATOM      2  H3  UNL     1     -41.156  -1.628   3.497  1.00  0.00     0.189 HD
ENDROOT
BRANCH   1   3
HETATM    3  C4  UNL     1     -43.092  -2.403   3.637  1.00  0.00     0.205 C 
HETATM    4  S1  UNL     1     -43.223  -3.475   4.845  1.00  0.00    -0.038 SA
BRANCH   3   5
HETATM    5  N2  UNL     1     -44.248  -1.693   3.206  1.00  0.00    -0.275 N 
ATOM      6  H2  UNL     1     -44.581  -0.905   3.762  1.00  0.00     0.189 HD
BRANCH   5   7
HETATM    7  N1  UNL     1     -44.933  -2.039   2.055  1.00  0.00    -0.307 N 
HETATM    8  C2  UNL     1     -45.991  -1.466   1.665  1.00  0.00    -0.004 C 
HETATM    9  C1  UNL     1     -46.604  -0.354   2.414  1.00  0.00     0.064 C 
HETATM   10  C3  UNL     1     -46.644  -1.941   0.406  1.00  0.00     0.064 C 
ATOM     11  H1  UNL     1     -44.562  -2.800   1.488  1.00  0.00     0.186 HD
ENDBRANCH   5   7
ENDBRANCH   3   5
ENDBRANCH   1   3
BRANCH   1  12
HETATM   12  N4  UNL     1     -41.511  -2.668   1.745  1.00  0.00    -0.264 N 
HETATM   13  C5  UNL     1     -41.870  -2.054   0.551  1.00  0.00     0.271 C 
HETATM   14  O1  UNL     1     -42.548  -0.966   0.528  1.00  0.00    -0.266 OA
ATOM     15  H4  UNL     1     -40.963  -3.527   1.695  1.00  0.00     0.190 HD
BRANCH  13  16
HETATM   16  C6  UNL     1     -41.522  -2.557  -0.776  1.00  0.00     0.051 A 
HETATM   17  C7  UNL     1     -42.529  -2.680  -1.747  1.00  0.00     0.018 A 
HETATM   18  C8  UNL     1     -42.289  -3.071  -3.041  1.00  0.00     0.001 A 
HETATM   19  C9  UNL     1     -40.986  -3.362  -3.409  1.00  0.00     0.001 A 
HETATM   20  C10 UNL     1     -39.953  -3.260  -2.497  1.00  0.00     0.020 A 
HETATM   21  C11 UNL     1     -40.256  -2.859  -1.197  1.00  0.00     0.026 A 
HETATM   22 BR1  UNL     1     -38.793  -2.814   0.028  1.00  0.00    -0.050 Br
ENDBRANCH  13  16
ENDBRANCH   1  12
TORSDOF 5
ENDMDL
MODEL 5
REMARK VINA RESULT: -6.732370991      2.374      3.141
REMARK  5 active torsions:
REMARK  status: ('A' for Active; 'I' for Inactive)
REMARK    1  A    between atoms: N1_4  and  N2_6 
REMARK    2  A    between atoms: N2_6  and  C4_8 
REMARK    3  A    between atoms: C4_8  and  N3_10 
REMARK    4  A    between atoms: N3_10  and  N4_12 
REMARK       I    between atoms: N4_12  and  C5_14 
REMARK    5  A    between atoms: C5_14  and  C6_16 
ROOT
HETATM    1  N3  UNL     1     -42.338  -0.864   2.769  1.00  0.00    -0.272 N 
ATOM      2  H3  UNL     1     -42.987  -0.103   2.964  1.00  0.00     0.189 HD
ENDROOT
BRANCH   1   3
HETATM    3  C4  UNL     1     -41.809  -1.573   3.869  1.00  0.00     0.205 C 
HETATM    4  S1  UNL     1     -40.328  -1.237   4.436  1.00  0.00    -0.038 SA
BRANCH   3   5
HETATM    5  N2  UNL     1     -42.572  -2.607   4.481  1.00  0.00    -0.275 N 
ATOM      6  H2  UNL     1     -42.134  -3.190   5.195  1.00  0.00     0.189 HD
BRANCH   5   7
HETATM    7  N1  UNL     1     -43.890  -2.846   4.136  1.00  0.00    -0.307 N 
HETATM    8  C2  UNL     1     -44.793  -3.151   4.968  1.00  0.00    -0.004 C 
HETATM    9  C1  UNL     1     -44.519  -3.280   6.411  1.00  0.00     0.064 C 
HETATM   10  C3  UNL     1     -46.181  -3.394   4.468  1.00  0.00     0.064 C 
ATOM     11  H1  UNL     1     -44.149  -2.771   3.153  1.00  0.00     0.186 HD
ENDBRANCH   5   7
ENDBRANCH   3   5
ENDBRANCH   1   3
BRANCH   1  12
HETATM   12  N4  UNL     1     -42.037  -1.129   1.439  1.00  0.00    -0.264 N 
HETATM   13  C5  UNL     1     -42.279  -2.348   0.817  1.00  0.00     0.271 C 
HETATM   14  O1  UNL     1     -42.819  -3.329   1.439  1.00  0.00    -0.266 OA
ATOM     15  H4  UNL     1     -41.613  -0.384   0.887  1.00  0.00     0.190 HD
BRANCH  13  16
HETATM   16  C6  UNL     1     -41.963  -2.640  -0.579  1.00  0.00     0.051 A 
HETATM   17  C7  UNL     1     -43.000  -2.663  -1.526  1.00  0.00     0.018 A 
HETATM   18  C8  UNL     1     -42.794  -2.853  -2.870  1.00  0.00     0.001 A 
HETATM   19  C9  UNL     1     -41.496  -3.035  -3.317  1.00  0.00     0.001 A 
HETATM   20  C10 UNL     1     -40.435  -3.024  -2.433  1.00  0.00     0.020 A 
HETATM   21  C11 UNL     1     -40.703  -2.826  -1.080  1.00  0.00     0.026 A 
HETATM   22 BR1  UNL     1     -39.198  -2.899   0.092  1.00  0.00    -0.050 Br
ENDBRANCH  13  16
ENDBRANCH   1  12
TORSDOF 5
ENDMDL
