MODEL 1
REMARK VINA RESULT: -5.005945301      0.000      0.000
REMARK  1 active torsions:
REMARK  status: ('A' for Active; 'I' for Inactive)
REMARK    1  A    between atoms: O1_1  and  C1_3 
ROOT
HETATM    1  C1  UNL     1       7.533  82.544   2.506  1.00  0.00     0.143 C 
HETATM    2  C2  UNL     1       6.305  82.028   1.886  1.00  0.00     0.046 C 
HETATM    3  C3  UNL     1       5.397  83.221   1.566  1.00  0.00     0.076 C 
HETATM    4  S1  UNL     1       3.665  82.849   2.023  1.00  0.00    -0.169 SA
HETATM    5  C4  UNL     1       3.483  82.731   3.822  1.00  0.00     0.074 C 
HETATM    6  C5  UNL     1       3.460  81.329   4.323  1.00  0.00     0.020 C 
HETATM    7  C6  UNL     1       4.364  81.160   5.517  1.00  0.00     0.076 C 
HETATM    8  S2  UNL     1       5.788  82.254   5.491  1.00  0.00    -0.143 SA
HETATM    9  C7  UNL     1       7.354  81.480   5.572  1.00  0.00     0.187 C 
HETATM   10 CL1  UNL     1       8.575  82.678   6.133  1.00  0.00    -0.107 Cl
HETATM   11  C8  UNL     1       7.902  80.824   4.362  1.00  0.00     0.038 C 
HETATM   12 CL2  UNL     1       6.943  79.409   3.838  1.00  0.00    -0.087 Cl
HETATM   13  C9  UNL     1       8.396  81.662   3.276  1.00  0.00     0.026 C 
ENDROOT
BRANCH   1  14
HETATM   14  O1  UNL     1       7.331  83.760   3.212  1.00  0.00    -0.392 OA
ATOM     15  H1  UNL     1       6.696  83.682   3.915  1.00  0.00     0.210 HD
ENDBRANCH   1  14
TORSDOF 1
ENDMDL
MODEL 2
REMARK VINA RESULT: -4.736441456      2.849      4.436
REMARK  1 active torsions:
REMARK  status: ('A' for Active; 'I' for Inactive)
REMARK    1  A    between atoms: O1_1  and  C1_3 
ROOT
HETATM    1  C1  UNL     1       4.878  81.562   5.822  1.00  0.00     0.143 C 
HETATM    2  C2  UNL     1       5.468  80.968   4.615  1.00  0.00     0.046 C 
HETATM    3  C3  UNL     1       6.758  81.731   4.292  1.00  0.00     0.076 C 
HETATM    4  S1  UNL     1       6.873  82.066   2.498  1.00  0.00    -0.169 SA
HETATM    5  C4  UNL     1       5.609  83.258   1.981  1.00  0.00     0.074 C 
HETATM    6  C5  UNL     1       4.422  82.623   1.346  1.00  0.00     0.020 C 
HETATM    7  C6  UNL     1       3.139  83.186   1.903  1.00  0.00     0.076 C 
HETATM    8  S2  UNL     1       3.275  83.707   3.616  1.00  0.00    -0.143 SA
HETATM    9  C7  UNL     1       2.156  82.966   4.737  1.00  0.00     0.187 C 
HETATM   10 CL1  UNL     1       2.019  84.000   6.204  1.00  0.00    -0.107 Cl
HETATM   11  C8  UNL     1       2.399  81.579   5.194  1.00  0.00     0.038 C 
HETATM   12 CL2  UNL     1       2.278  80.375   3.878  1.00  0.00    -0.087 Cl
HETATM   13  C9  UNL     1       3.478  81.335   6.145  1.00  0.00     0.026 C 
ENDROOT
BRANCH   1  14
HETATM   14  O1  UNL     1       5.193  82.938   5.976  1.00  0.00    -0.392 OA
ATOM     15  H1  UNL     1       5.470  83.160   6.857  1.00  0.00     0.210 HD
ENDBRANCH   1  14
TORSDOF 1
ENDMDL
MODEL 3
REMARK VINA RESULT: -4.350691885      2.589      4.309
REMARK  1 active torsions:
REMARK  status: ('A' for Active; 'I' for Inactive)
REMARK    1  A    between atoms: O1_1  and  C1_3 
ROOT
HETATM    1  C1  UNL     1       4.448  83.072   2.199  1.00  0.00     0.143 C 
HETATM    2  C2  UNL     1       5.629  83.767   2.728  1.00  0.00     0.046 C 
HETATM    3  C3  UNL     1       6.877  83.046   2.205  1.00  0.00     0.076 C 
HETATM    4  S1  UNL     1       8.114  82.855   3.539  1.00  0.00    -0.169 SA
HETATM    5  C4  UNL     1       7.529  81.693   4.800  1.00  0.00     0.074 C 
HETATM    6  C5  UNL     1       6.969  82.361   6.007  1.00  0.00     0.020 C 
HETATM    7  C6  UNL     1       5.658  81.742   6.416  1.00  0.00     0.076 C 
HETATM    8  S2  UNL     1       4.718  81.089   5.032  1.00  0.00    -0.143 SA
HETATM    9  C7  UNL     1       3.101  81.726   4.832  1.00  0.00     0.187 C 
HETATM   10 CL1  UNL     1       2.134  80.578   3.838  1.00  0.00    -0.107 Cl
HETATM   11  C8  UNL     1       2.921  83.076   4.250  1.00  0.00     0.038 C 
HETATM   12 CL2  UNL     1       3.584  84.378   5.280  1.00  0.00    -0.087 Cl
HETATM   13  C9  UNL     1       3.146  83.256   2.820  1.00  0.00     0.026 C 
ENDROOT
BRANCH   1  14
HETATM   14  O1  UNL     1       4.676  81.692   1.954  1.00  0.00    -0.392 OA
ATOM     15  H1  UNL     1       3.892  81.163   2.048  1.00  0.00     0.210 HD
ENDBRANCH   1  14
TORSDOF 1
ENDMDL
MODEL 4
REMARK VINA RESULT: -4.324690040      3.641      4.797
REMARK  1 active torsions:
REMARK  status: ('A' for Active; 'I' for Inactive)
REMARK    1  A    between atoms: O1_1  and  C1_3 
ROOT
HETATM    1  C1  UNL     1       2.913  84.183   4.638  1.00  0.00     0.143 C 
HETATM    2  C2  UNL     1       1.474  84.003   4.870  1.00  0.00     0.046 C 
HETATM    3  C3  UNL     1       1.021  85.057   5.887  1.00  0.00     0.076 C 
HETATM    4  S1  UNL     1      -0.100  84.312   7.125  1.00  0.00    -0.169 SA
HETATM    5  C4  UNL     1       0.793  83.147   8.188  1.00  0.00     0.074 C 
HETATM    6  C5  UNL     1       0.601  81.723   7.796  1.00  0.00     0.020 C 
HETATM    7  C6  UNL     1       1.914  80.983   7.766  1.00  0.00     0.076 C 
HETATM    8  S2  UNL     1       3.308  82.026   7.327  1.00  0.00    -0.143 SA
HETATM    9  C7  UNL     1       4.242  81.517   5.938  1.00  0.00     0.187 C 
HETATM   10 CL1  UNL     1       5.871  82.279   6.012  1.00  0.00    -0.107 Cl
HETATM   11  C8  UNL     1       3.705  81.752   4.578  1.00  0.00     0.038 C 
HETATM   12 CL2  UNL     1       2.217  80.821   4.242  1.00  0.00    -0.087 Cl
HETATM   13  C9  UNL     1       3.704  83.112   4.053  1.00  0.00     0.026 C 
ENDROOT
BRANCH   1  14
HETATM   14  O1  UNL     1       3.593  84.728   5.759  1.00  0.00    -0.392 OA
ATOM     15  H1  UNL     1       4.259  84.148   6.110  1.00  0.00     0.210 HD
ENDBRANCH   1  14
TORSDOF 1
ENDMDL
MODEL 5
REMARK VINA RESULT: -4.262756484      2.003      3.375
REMARK  1 active torsions:
REMARK  status: ('A' for Active; 'I' for Inactive)
REMARK    1  A    between atoms: O1_1  and  C1_3 
ROOT
HETATM    1  C1  UNL     1       5.836  82.229   5.628  1.00  0.00     0.143 C 
HETATM    2  C2  UNL     1       5.079  83.305   4.974  1.00  0.00     0.046 C 
HETATM    3  C3  UNL     1       3.607  82.881   4.913  1.00  0.00     0.076 C 
HETATM    4  S1  UNL     1       2.894  83.274   3.275  1.00  0.00    -0.169 SA
HETATM    5  C4  UNL     1       3.623  82.230   1.985  1.00  0.00     0.074 C 
HETATM    6  C5  UNL     1       4.689  82.914   1.203  1.00  0.00     0.020 C 
HETATM    7  C6  UNL     1       5.902  82.034   1.048  1.00  0.00     0.076 C 
HETATM    8  S2  UNL     1       6.153  80.917   2.432  1.00  0.00    -0.143 SA
HETATM    9  C7  UNL     1       7.696  81.035   3.246  1.00  0.00     0.187 C 
HETATM   10 CL1  UNL     1       8.002  79.510   4.152  1.00  0.00    -0.107 Cl
HETATM   11  C8  UNL     1       7.940  82.160   4.177  1.00  0.00     0.038 C 
HETATM   12 CL2  UNL     1       7.957  83.752   3.364  1.00  0.00    -0.087 Cl
HETATM   13  C9  UNL     1       7.280  82.147   5.477  1.00  0.00     0.026 C 
ENDROOT
BRANCH   1  14
HETATM   14  O1  UNL     1       5.257  80.946   5.438  1.00  0.00    -0.392 OA
ATOM     15  H1  UNL     1       4.801  80.625   6.207  1.00  0.00     0.210 HD
ENDBRANCH   1  14
TORSDOF 1
ENDMDL
