MODEL 1
REMARK VINA RESULT: -7.492814873      0.000      0.000
REMARK  0 active torsions:
REMARK  status: ('A' for Active; 'I' for Inactive)
ROOT
HETATM    1  C1  UNL     1       5.220  82.142   3.319  1.00  0.00     0.011 C 
HETATM    2  C2  UNL     1       6.119  83.197   2.768  1.00  0.00    -0.001 C 
HETATM    3  C3  UNL     1       7.564  82.783   2.884  1.00  0.00     0.008 C 
HETATM    4  C4  UNL     1       7.828  81.645   1.903  1.00  0.00     0.026 C 
HETATM    5  C5  UNL     1       7.679  82.219   0.520  1.00  0.00     0.089 C 
HETATM    6  C6  UNL     1       8.053  81.158  -0.476  1.00  0.00     0.067 C 
HETATM    7  C7  UNL     1       7.986  81.661  -1.903  1.00  0.00     0.119 C 
HETATM    8 CL1  UNL     1       9.322  80.990  -2.864  1.00  0.00    -0.101 Cl
HETATM    9 CL2  UNL     1       7.993  83.423  -1.902  1.00  0.00    -0.101 Cl
HETATM   10  C8  UNL     1       6.679  81.181  -2.483  1.00  0.00     0.086 C 
HETATM   11  C9  UNL     1       5.513  81.829  -1.867  1.00  0.00     0.015 A 
HETATM   12  C10 UNL     1       4.293  81.870  -2.483  1.00  0.00     0.178 A 
HETATM   13  O1  UNL     1       3.482  82.504  -1.693  1.00  0.00    -0.248 OA
HETATM   14  N1  UNL     1       4.106  82.876  -0.598  1.00  0.00    -0.245 N 
ATOM     15  H1  UNL     1       3.684  83.388   0.177  1.00  0.00     0.196 HD
HETATM   16  C11 UNL     1       5.394  82.472  -0.660  1.00  0.00     0.132 A 
HETATM   17  N2  UNL     1       6.348  82.714   0.366  1.00  0.00    -0.360 N 
HETATM   18  C12 UNL     1       5.811  83.601   1.359  1.00  0.00     0.129 C 
ENDROOT
TORSDOF 0
ENDMDL
MODEL 2
REMARK VINA RESULT: -7.362144216      2.471      3.560
REMARK  0 active torsions:
REMARK  status: ('A' for Active; 'I' for Inactive)
ROOT
HETATM    1  C1  UNL     1       2.181  81.327   4.632  1.00  0.00     0.011 C 
HETATM    2  C2  UNL     1       3.175  82.355   5.058  1.00  0.00    -0.001 C 
HETATM    3  C3  UNL     1       4.287  81.725   5.857  1.00  0.00     0.008 C 
HETATM    4  C4  UNL     1       5.141  80.874   4.924  1.00  0.00     0.026 C 
HETATM    5  C5  UNL     1       5.814  81.820   3.966  1.00  0.00     0.089 C 
HETATM    6  C6  UNL     1       6.762  81.030   3.108  1.00  0.00     0.067 C 
HETATM    7  C7  UNL     1       7.531  81.909   2.144  1.00  0.00     0.119 C 
HETATM    8 CL1  UNL     1       9.209  81.345   1.987  1.00  0.00    -0.101 Cl
HETATM    9 CL2  UNL     1       7.444  83.585   2.683  1.00  0.00    -0.101 Cl
HETATM   10  C8  UNL     1       6.852  81.796   0.801  1.00  0.00     0.086 C 
HETATM   11  C9  UNL     1       5.517  82.409   0.787  1.00  0.00     0.015 A 
HETATM   12  C10 UNL     1       4.902  82.789  -0.374  1.00  0.00     0.178 A 
HETATM   13  O1  UNL     1       3.748  83.290  -0.054  1.00  0.00    -0.248 OA
HETATM   14  N1  UNL     1       3.578  83.255   1.248  1.00  0.00    -0.245 N 
ATOM     15  H1  UNL     1       2.753  83.590   1.745  1.00  0.00     0.196 HD
HETATM   16  C11 UNL     1       4.670  82.707   1.826  1.00  0.00     0.132 A 
HETATM   17  N2  UNL     1       4.812  82.521   3.228  1.00  0.00    -0.360 N 
HETATM   18  C12 UNL     1       3.744  83.168   3.937  1.00  0.00     0.129 C 
ENDROOT
TORSDOF 0
ENDMDL
MODEL 3
REMARK VINA RESULT: -7.279161027      2.842      4.684
REMARK  0 active torsions:
REMARK  status: ('A' for Active; 'I' for Inactive)
ROOT
HETATM    1  C1  UNL     1       7.493  82.792  -1.799  1.00  0.00     0.011 C 
HETATM    2  C2  UNL     1       7.595  81.456  -1.142  1.00  0.00    -0.001 C 
HETATM    3  C3  UNL     1       8.952  81.270  -0.514  1.00  0.00     0.008 C 
HETATM    4  C4  UNL     1       9.062  82.191   0.698  1.00  0.00     0.026 C 
HETATM    5  C5  UNL     1       8.071  81.691   1.715  1.00  0.00     0.089 C 
HETATM    6  C6  UNL     1       8.237  82.498   2.972  1.00  0.00     0.067 C 
HETATM    7  C7  UNL     1       7.314  82.030   4.078  1.00  0.00     0.119 C 
HETATM    8 CL1  UNL     1       8.140  82.100   5.651  1.00  0.00    -0.101 Cl
HETATM    9 CL2  UNL     1       6.733  80.408   3.709  1.00  0.00    -0.101 Cl
HETATM   10  C8  UNL     1       6.137  82.973   4.105  1.00  0.00     0.086 C 
HETATM   11  C9  UNL     1       5.285  82.850   2.914  1.00  0.00     0.015 A 
HETATM   12  C10 UNL     1       3.987  83.279   2.899  1.00  0.00     0.178 A 
HETATM   13  O1  UNL     1       3.511  83.034   1.717  1.00  0.00    -0.248 OA
HETATM   14  N1  UNL     1       4.428  82.470   0.962  1.00  0.00    -0.245 N 
ATOM     15  H1  UNL     1       4.299  82.182  -0.008  1.00  0.00     0.196 HD
HETATM   16  C11 UNL     1       5.568  82.332   1.674  1.00  0.00     0.132 A 
HETATM   17  N2  UNL     1       6.760  81.757   1.153  1.00  0.00    -0.360 N 
HETATM   18  C12 UNL     1       6.520  81.176  -0.138  1.00  0.00     0.129 C 
ENDROOT
TORSDOF 0
ENDMDL
MODEL 4
REMARK VINA RESULT: -7.246775585      2.743      4.231
REMARK  0 active torsions:
REMARK  status: ('A' for Active; 'I' for Inactive)
ROOT
HETATM    1  C1  UNL     1       2.646  82.200  -0.503  1.00  0.00     0.011 C 
HETATM    2  C2  UNL     1       3.099  83.373   0.301  1.00  0.00    -0.001 C 
HETATM    3  C3  UNL     1       2.734  83.200   1.753  1.00  0.00     0.008 C 
HETATM    4  C4  UNL     1       3.603  82.096   2.348  1.00  0.00     0.026 C 
HETATM    5  C5  UNL     1       5.018  82.605   2.343  1.00  0.00     0.089 C 
HETATM    6  C6  UNL     1       5.888  81.595   3.036  1.00  0.00     0.067 C 
HETATM    7  C7  UNL     1       7.331  82.047   3.128  1.00  0.00     0.119 C 
HETATM    8 CL1  UNL     1       8.033  81.576   4.692  1.00  0.00    -0.101 Cl
HETATM    9 CL2  UNL     1       7.417  83.787   2.862  1.00  0.00    -0.101 Cl
HETATM   10  C8  UNL     1       8.087  81.349   2.025  1.00  0.00     0.086 C 
HETATM   11  C9  UNL     1       7.698  81.815   0.687  1.00  0.00     0.015 A 
HETATM   12  C10 UNL     1       8.501  81.645  -0.406  1.00  0.00     0.178 A 
HETATM   13  O1  UNL     1       7.882  82.158  -1.425  1.00  0.00    -0.248 OA
HETATM   14  N1  UNL     1       6.722  82.652  -1.055  1.00  0.00    -0.245 N 
ATOM     15  H1  UNL     1       6.050  83.108  -1.673  1.00  0.00     0.196 HD
HETATM   16  C11 UNL     1       6.558  82.459   0.272  1.00  0.00     0.132 A 
HETATM   17  N2  UNL     1       5.406  82.876   0.995  1.00  0.00    -0.360 N 
HETATM   18  C12 UNL     1       4.557  83.688   0.170  1.00  0.00     0.129 C 
ENDROOT
TORSDOF 0
ENDMDL
MODEL 5
REMARK VINA RESULT: -7.106518130      3.385      5.401
REMARK  0 active torsions:
REMARK  status: ('A' for Active; 'I' for Inactive)
ROOT
HETATM    1  C1  UNL     1       9.928  80.204  -0.936  1.00  0.00     0.011 C 
HETATM    2  C2  UNL     1       9.791  81.658  -0.636  1.00  0.00    -0.001 C 
HETATM    3  C3  UNL     1       8.712  82.282  -1.484  1.00  0.00     0.008 C 
HETATM    4  C4  UNL     1       7.357  81.766  -1.009  1.00  0.00     0.026 C 
HETATM    5  C5  UNL     1       7.147  82.307   0.379  1.00  0.00     0.089 C 
HETATM    6  C6  UNL     1       5.766  81.922   0.833  1.00  0.00     0.067 C 
HETATM    7  C7  UNL     1       5.441  82.472   2.206  1.00  0.00     0.119 C 
HETATM    8 CL1  UNL     1       3.745  83.000   2.280  1.00  0.00    -0.101 Cl
HETATM    9 CL2  UNL     1       6.558  83.779   2.593  1.00  0.00    -0.101 Cl
HETATM   10  C8  UNL     1       5.644  81.351   3.194  1.00  0.00     0.086 C 
HETATM   11  C9  UNL     1       7.057  80.970   3.336  1.00  0.00     0.015 A 
HETATM   12  C10 UNL     1       7.523  80.296   4.431  1.00  0.00     0.178 A 
HETATM   13  O1  UNL     1       8.795  80.110   4.258  1.00  0.00    -0.248 OA
HETATM   14  N1  UNL     1       9.182  80.624   3.112  1.00  0.00    -0.245 N 
ATOM     15  H1  UNL     1      10.135  80.606   2.749  1.00  0.00     0.196 HD
HETATM   16  C11 UNL     1       8.118  81.180   2.491  1.00  0.00     0.132 A 
HETATM   17  N2  UNL     1       8.190  81.824   1.226  1.00  0.00    -0.360 N 
HETATM   18  C12 UNL     1       9.557  81.974   0.809  1.00  0.00     0.129 C 
ENDROOT
TORSDOF 0
ENDMDL
