MODEL 1
REMARK VINA RESULT: -5.943311225      0.000      0.000
REMARK  4 active torsions:
REMARK  status: ('A' for Active; 'I' for Inactive)
REMARK    1  A    between atoms: N1_2  and  N2_3 
REMARK    2  A    between atoms: N1_2  and  C4_14 
REMARK    3  A    between atoms: N2_3  and  C2_5 
REMARK    4  A    between atoms: C2_5  and  N3_7 
REMARK       I    between atoms: N3_7  and  C3_9 
ROOT
HETATM    1  N2  UNL     1     -24.596 -29.093  -1.214  1.00  0.00    -0.271 N 
ATOM      2  H2  UNL     1     -24.266 -30.033  -1.434  1.00  0.00     0.189 HD
ENDROOT
BRANCH   1   3
HETATM    3  N1  UNL     1     -25.346 -28.888  -0.055  1.00  0.00    -0.262 N 
HETATM    4  C1  UNL     1     -26.392 -29.845   0.249  1.00  0.00     0.181 C 
BRANCH   3   5
HETATM    5  C4  UNL     1     -25.131 -27.793   0.827  1.00  0.00     0.230 A 
HETATM    6  N6  UNL     1     -25.470 -26.501   1.105  1.00  0.00    -0.266 N 
HETATM    7  N7  UNL     1     -24.561 -27.111   1.938  1.00  0.00    -0.266 N 
ATOM      8  H6  UNL     1     -26.013 -25.671   0.866  1.00  0.00     0.190 HD
ATOM      9  H7  UNL     1     -23.942 -27.090   2.748  1.00  0.00     0.190 HD
ENDBRANCH   3   5
ENDBRANCH   1   3
BRANCH   1  10
HETATM   10  C2  UNL     1     -24.282 -28.024  -2.091  1.00  0.00     0.193 C 
HETATM   11  S1  UNL     1     -25.477 -27.221  -2.855  1.00  0.00    -0.039 SA
BRANCH  10  12
HETATM   12  N3  UNL     1     -22.933 -27.647  -2.309  1.00  0.00    -0.306 N 
HETATM   13  C3  UNL     1     -21.982 -27.627  -1.245  1.00  0.00     0.188 C 
HETATM   14  N4  UNL     1     -22.037 -26.816  -0.259  1.00  0.00    -0.373 N 
HETATM   15  N5  UNL     1     -20.917 -28.560  -1.286  1.00  0.00    -0.064 NA
ATOM     16  H42 UNL     1     -22.804 -26.144  -0.229  1.00  0.00     0.158 HD
ATOM     17  H41 UNL     1     -21.357 -26.802   0.501  1.00  0.00     0.158 HD
ATOM     18  H3  UNL     1     -22.635 -27.383  -3.248  1.00  0.00     0.171 HD
ENDBRANCH  10  12
ENDBRANCH   1  10
TORSDOF 4
ENDMDL
MODEL 2
REMARK VINA RESULT: -5.923296720      2.108      4.594
REMARK  4 active torsions:
REMARK  status: ('A' for Active; 'I' for Inactive)
REMARK    1  A    between atoms: N1_2  and  N2_3 
REMARK    2  A    between atoms: N1_2  and  C4_14 
REMARK    3  A    between atoms: N2_3  and  C2_5 
REMARK    4  A    between atoms: C2_5  and  N3_7 
REMARK       I    between atoms: N3_7  and  C3_9 
ROOT
HETATM    1  N2  UNL     1     -24.825 -26.513  -0.194  1.00  0.00    -0.271 N 
ATOM      2  H2  UNL     1     -25.127 -25.549  -0.055  1.00  0.00     0.189 HD
ENDROOT
BRANCH   1   3
HETATM    3  N1  UNL     1     -24.298 -26.892  -1.430  1.00  0.00    -0.262 N 
HETATM    4  C1  UNL     1     -25.122 -26.685  -2.605  1.00  0.00     0.181 C 
BRANCH   3   5
HETATM    5  C4  UNL     1     -23.006 -27.465  -1.582  1.00  0.00     0.230 A 
HETATM    6  N6  UNL     1     -22.305 -28.634  -1.654  1.00  0.00    -0.266 N 
HETATM    7  N7  UNL     1     -21.594 -27.461  -1.756  1.00  0.00    -0.266 N 
ATOM      8  H6  UNL     1     -22.307 -29.654  -1.642  1.00  0.00     0.190 HD
ATOM      9  H7  UNL     1     -20.712 -26.962  -1.872  1.00  0.00     0.190 HD
ENDBRANCH   3   5
ENDBRANCH   1   3
BRANCH   1  10
HETATM   10  C2  UNL     1     -24.949 -27.439   0.873  1.00  0.00     0.193 C 
HETATM   11  S1  UNL     1     -23.644 -27.824   1.771  1.00  0.00    -0.039 SA
BRANCH  10  12
HETATM   12  N3  UNL     1     -26.202 -28.033   1.165  1.00  0.00    -0.306 N 
HETATM   13  C3  UNL     1     -26.393 -29.446   1.094  1.00  0.00     0.188 C 
HETATM   14  N4  UNL     1     -26.345 -30.114   0.006  1.00  0.00    -0.373 N 
HETATM   15  N5  UNL     1     -26.653 -30.145   2.298  1.00  0.00    -0.064 NA
ATOM     16  H42 UNL     1     -26.158 -29.611  -0.861  1.00  0.00     0.158 HD
ATOM     17  H41 UNL     1     -26.482 -31.124  -0.045  1.00  0.00     0.158 HD
ATOM     18  H3  UNL     1     -26.985 -27.437   1.434  1.00  0.00     0.171 HD
ENDBRANCH  10  12
ENDBRANCH   1  10
TORSDOF 4
ENDMDL
MODEL 3
REMARK VINA RESULT: -5.844536305      2.462      3.572
REMARK  4 active torsions:
REMARK  status: ('A' for Active; 'I' for Inactive)
REMARK    1  A    between atoms: N1_2  and  N2_3 
REMARK    2  A    between atoms: N1_2  and  C4_14 
REMARK    3  A    between atoms: N2_3  and  C2_5 
REMARK    4  A    between atoms: C2_5  and  N3_7 
REMARK       I    between atoms: N3_7  and  C3_9 
ROOT
HETATM    1  N2  UNL     1     -24.943 -26.643  -0.002  1.00  0.00    -0.271 N 
ATOM      2  H2  UNL     1     -25.171 -25.678   0.234  1.00  0.00     0.189 HD
ENDROOT
BRANCH   1   3
HETATM    3  N1  UNL     1     -24.889 -27.599   1.013  1.00  0.00    -0.262 N 
HETATM    4  C1  UNL     1     -23.669 -27.686   1.792  1.00  0.00     0.181 C 
BRANCH   3   5
HETATM    5  C4  UNL     1     -25.964 -28.480   1.311  1.00  0.00     0.230 A 
HETATM    6  N6  UNL     1     -26.433 -29.411   2.192  1.00  0.00    -0.266 N 
HETATM    7  N7  UNL     1     -27.225 -29.109   1.109  1.00  0.00    -0.266 N 
ATOM      8  H6  UNL     1     -26.295 -29.949   3.048  1.00  0.00     0.190 HD
ATOM      9  H7  UNL     1     -28.079 -29.238   0.566  1.00  0.00     0.190 HD
ENDBRANCH   3   5
ENDBRANCH   1   3
BRANCH   1  10
HETATM   10  C2  UNL     1     -24.689 -26.986  -1.355  1.00  0.00     0.193 C 
HETATM   11  S1  UNL     1     -23.165 -27.287  -1.845  1.00  0.00    -0.039 SA
BRANCH  10  12
HETATM   12  N3  UNL     1     -25.755 -27.070  -2.286  1.00  0.00    -0.306 N 
HETATM   13  C3  UNL     1     -25.826 -26.205  -3.419  1.00  0.00     0.188 C 
HETATM   14  N4  UNL     1     -26.012 -24.944  -3.340  1.00  0.00    -0.373 N 
HETATM   15  N5  UNL     1     -25.682 -26.781  -4.706  1.00  0.00    -0.064 NA
ATOM     16  H42 UNL     1     -26.115 -24.530  -2.413  1.00  0.00     0.158 HD
ATOM     17  H41 UNL     1     -26.063 -24.327  -4.150  1.00  0.00     0.158 HD
ATOM     18  H3  UNL     1     -26.488 -27.764  -2.142  1.00  0.00     0.171 HD
ENDBRANCH  10  12
ENDBRANCH   1  10
TORSDOF 4
ENDMDL
MODEL 4
REMARK VINA RESULT: -5.833400563      1.366      1.464
REMARK  4 active torsions:
REMARK  status: ('A' for Active; 'I' for Inactive)
REMARK    1  A    between atoms: N1_2  and  N2_3 
REMARK    2  A    between atoms: N1_2  and  C4_14 
REMARK    3  A    between atoms: N2_3  and  C2_5 
REMARK    4  A    between atoms: C2_5  and  N3_7 
REMARK       I    between atoms: N3_7  and  C3_9 
ROOT
HETATM    1  N2  UNL     1     -24.779 -28.486  -1.673  1.00  0.00    -0.271 N 
ATOM      2  H2  UNL     1     -25.156 -27.775  -2.299  1.00  0.00     0.189 HD
ENDROOT
BRANCH   1   3
HETATM    3  N1  UNL     1     -25.305 -28.611  -0.386  1.00  0.00    -0.262 N 
HETATM    4  C1  UNL     1     -26.144 -29.760  -0.109  1.00  0.00     0.181 C 
BRANCH   3   5
HETATM    5  C4  UNL     1     -25.055 -27.670   0.650  1.00  0.00     0.230 A 
HETATM    6  N6  UNL     1     -25.500 -26.529   1.253  1.00  0.00    -0.266 N 
HETATM    7  N7  UNL     1     -24.356 -27.105   1.754  1.00  0.00    -0.266 N 
ATOM      8  H6  UNL     1     -26.191 -25.780   1.299  1.00  0.00     0.190 HD
ATOM      9  H7  UNL     1     -23.584 -27.119   2.420  1.00  0.00     0.190 HD
ENDBRANCH   3   5
ENDBRANCH   1   3
BRANCH   1  10
HETATM   10  C2  UNL     1     -23.733 -29.328  -2.129  1.00  0.00     0.193 C 
HETATM   11  S1  UNL     1     -24.008 -30.385  -3.339  1.00  0.00    -0.039 SA
BRANCH  10  12
HETATM   12  N3  UNL     1     -22.445 -29.256  -1.541  1.00  0.00    -0.306 N 
HETATM   13  C3  UNL     1     -21.889 -28.014  -1.111  1.00  0.00     0.188 C 
HETATM   14  N4  UNL     1     -21.564 -27.069  -1.907  1.00  0.00    -0.373 N 
HETATM   15  N5  UNL     1     -21.686 -27.819   0.278  1.00  0.00    -0.064 NA
ATOM     16  H42 UNL     1     -21.711 -27.208  -2.907  1.00  0.00     0.158 HD
ATOM     17  H41 UNL     1     -21.166 -26.181  -1.599  1.00  0.00     0.158 HD
ATOM     18  H3  UNL     1     -21.904 -30.112  -1.421  1.00  0.00     0.171 HD
ENDBRANCH  10  12
ENDBRANCH   1  10
TORSDOF 4
ENDMDL
MODEL 5
REMARK VINA RESULT: -5.789483555      2.251      3.206
REMARK  4 active torsions:
REMARK  status: ('A' for Active; 'I' for Inactive)
REMARK    1  A    between atoms: N1_2  and  N2_3 
REMARK    2  A    between atoms: N1_2  and  C4_14 
REMARK    3  A    between atoms: N2_3  and  C2_5 
REMARK    4  A    between atoms: C2_5  and  N3_7 
REMARK       I    between atoms: N3_7  and  C3_9 
ROOT
HETATM    1  N2  UNL     1     -25.055 -27.747   0.032  1.00  0.00    -0.271 N 
ATOM      2  H2  UNL     1     -25.904 -27.534   0.554  1.00  0.00     0.189 HD
ENDROOT
BRANCH   1   3
HETATM    3  N1  UNL     1     -25.150 -28.077  -1.321  1.00  0.00    -0.262 N 
HETATM    4  C1  UNL     1     -25.080 -29.480  -1.679  1.00  0.00     0.181 C 
BRANCH   3   5
HETATM    5  C4  UNL     1     -25.310 -27.108  -2.349  1.00  0.00     0.230 A 
HETATM    6  N6  UNL     1     -24.706 -26.491  -3.405  1.00  0.00    -0.266 N 
HETATM    7  N7  UNL     1     -25.995 -26.116  -3.106  1.00  0.00    -0.266 N 
ATOM      8  H6  UNL     1     -23.882 -26.383  -3.997  1.00  0.00     0.190 HD
ATOM      9  H7  UNL     1     -26.823 -25.550  -3.290  1.00  0.00     0.190 HD
ENDBRANCH   3   5
ENDBRANCH   1   3
BRANCH   1  10
HETATM   10  C2  UNL     1     -23.802 -27.701   0.695  1.00  0.00     0.193 C 
HETATM   11  S1  UNL     1     -23.598 -28.497   2.102  1.00  0.00    -0.039 SA
BRANCH  10  12
HETATM   12  N3  UNL     1     -22.723 -26.968   0.142  1.00  0.00    -0.306 N 
HETATM   13  C3  UNL     1     -21.767 -27.582  -0.722  1.00  0.00     0.188 C 
HETATM   14  N4  UNL     1     -20.944 -28.482  -0.343  1.00  0.00    -0.373 N 
HETATM   15  N5  UNL     1     -21.730 -27.168  -2.076  1.00  0.00    -0.064 NA
ATOM     16  H42 UNL     1     -20.971 -28.780   0.633  1.00  0.00     0.158 HD
ATOM     17  H41 UNL     1     -20.261 -28.921  -0.960  1.00  0.00     0.158 HD
ATOM     18  H3  UNL     1     -22.627 -25.977   0.366  1.00  0.00     0.171 HD
ENDBRANCH  10  12
ENDBRANCH   1  10
TORSDOF 4
ENDMDL
