MODEL 1
REMARK VINA RESULT: -5.958500434      0.000      0.000
REMARK  6 active torsions:
REMARK  status: ('A' for Active; 'I' for Inactive)
REMARK    1  A    between atoms: C2_2  and  N1_3 
REMARK    2  A    between atoms: C6_11  and  O1_12 
REMARK    3  A    between atoms: O1_12  and  C7_13 
REMARK    4  A    between atoms: C7_13  and  C8_14 
REMARK    5  A    between atoms: C8_14  and  C9_15 
REMARK    6  A    between atoms: C9_15  and  N3_16 
ROOT
HETATM    1  N1  UNL     1      26.241  44.413  54.296  1.00  0.00    -0.290 N 
HETATM    2  C3  UNL     1      26.573  44.659  55.575  1.00  0.00     0.181 A 
HETATM    3  S1  UNL     1      28.166  44.839  55.912  1.00  0.00    -0.040 SA
HETATM    4  N2  UNL     1      25.673  44.761  56.566  1.00  0.00    -0.331 N 
ATOM      5  H2  UNL     1      25.993  44.951  57.516  1.00  0.00     0.168 HD
HETATM    6  C4  UNL     1      24.337  44.617  56.326  1.00  0.00     0.076 A 
HETATM    7  C5  UNL     1      23.422  44.724  57.348  1.00  0.00     0.097 A 
HETATM    8 CL1  UNL     1      23.964  45.049  58.988  1.00  0.00    -0.079 Cl
HETATM    9  C6  UNL     1      22.052  44.572  57.070  1.00  0.00     0.116 A 
HETATM   10  C10 UNL     1      21.714  44.321  55.778  1.00  0.00     0.091 A 
HETATM   11 CL2  UNL     1      20.036  44.077  55.324  1.00  0.00    -0.079 Cl
HETATM   12  C11 UNL     1      22.646  44.216  54.755  1.00  0.00     0.076 A 
HETATM   13 CL3  UNL     1      22.150  43.896  53.124  1.00  0.00    -0.081 Cl
HETATM   14  C12 UNL     1      23.976  44.364  55.019  1.00  0.00     0.084 A 
HETATM   15  C13 UNL     1      24.938  44.263  54.012  1.00  0.00     0.264 A 
HETATM   16  O2  UNL     1      24.569  44.031  52.830  1.00  0.00    -0.267 OA
ENDROOT
BRANCH   9  17
HETATM   17  O1  UNL     1      21.155  44.674  58.071  1.00  0.00    -0.347 OA
BRANCH  17  18
HETATM   18  C7  UNL     1      20.689  43.765  58.994  1.00  0.00     0.177 C 
BRANCH  18  19
HETATM   19  C8  UNL     1      19.968  44.295  60.202  1.00  0.00     0.054 C 
BRANCH  19  20
HETATM   20  C9  UNL     1      18.466  44.086  60.024  1.00  0.00     0.231 C 
BRANCH  20  21
HETATM   21  N3  UNL     1      18.119  43.768  58.679  1.00  0.00    -0.079 N 
ATOM     22  H33 UNL     1      17.114  43.621  58.583  1.00  0.00     0.274 HD
ATOM     23  H32 UNL     1      18.224  44.579  58.070  1.00  0.00     0.274 HD
ATOM     24  H31 UNL     1      18.643  42.968  58.323  1.00  0.00     0.274 HD
ENDBRANCH  20  21
ENDBRANCH  19  20
ENDBRANCH  18  19
ENDBRANCH  17  18
ENDBRANCH   9  17
BRANCH   1  25
HETATM   25  C2  UNL     1      27.268  44.311  53.254  1.00  0.00     0.130 C 
HETATM   26  C1  UNL     1      27.389  45.600  52.486  1.00  0.00     0.027 C 
ENDBRANCH   1  25
TORSDOF 6
ENDMDL
MODEL 2
REMARK VINA RESULT: -5.951090358      3.696      6.250
REMARK  6 active torsions:
REMARK  status: ('A' for Active; 'I' for Inactive)
REMARK    1  A    between atoms: C2_2  and  N1_3 
REMARK    2  A    between atoms: C6_11  and  O1_12 
REMARK    3  A    between atoms: O1_12  and  C7_13 
REMARK    4  A    between atoms: C7_13  and  C8_14 
REMARK    5  A    between atoms: C8_14  and  C9_15 
REMARK    6  A    between atoms: C9_15  and  N3_16 
ROOT
HETATM    1  N1  UNL     1      21.746  44.568  58.982  1.00  0.00    -0.290 N 
HETATM    2  C3  UNL     1      20.468  44.265  58.697  1.00  0.00     0.181 A 
HETATM    3  S1  UNL     1      19.424  44.168  59.956  1.00  0.00    -0.040 SA
HETATM    4  N2  UNL     1      20.021  44.043  57.450  1.00  0.00    -0.331 N 
ATOM      5  H2  UNL     1      19.038  43.818  57.304  1.00  0.00     0.168 HD
HETATM    6  C4  UNL     1      20.861  44.114  56.376  1.00  0.00     0.076 A 
HETATM    7  C5  UNL     1      20.393  43.886  55.102  1.00  0.00     0.097 A 
HETATM    8 CL1  UNL     1      18.700  43.496  54.838  1.00  0.00    -0.079 Cl
HETATM    9  C6  UNL     1      21.280  43.966  54.014  1.00  0.00     0.116 A 
HETATM   10  C10 UNL     1      22.573  44.271  54.300  1.00  0.00     0.091 A 
HETATM   11 CL2  UNL     1      23.774  44.362  53.023  1.00  0.00    -0.079 Cl
HETATM   12  C11 UNL     1      23.033  44.501  55.590  1.00  0.00     0.076 A 
HETATM   13 CL3  UNL     1      24.697  44.887  55.890  1.00  0.00    -0.081 Cl
HETATM   14  C12 UNL     1      22.176  44.424  56.648  1.00  0.00     0.084 A 
HETATM   15  C13 UNL     1      22.608  44.648  57.957  1.00  0.00     0.264 A 
HETATM   16  O2  UNL     1      23.818  44.929  58.166  1.00  0.00    -0.267 OA
ENDROOT
BRANCH   9  17
HETATM   17  O1  UNL     1      20.824  43.741  52.765  1.00  0.00    -0.347 OA
BRANCH  17  18
HETATM   18  C7  UNL     1      20.517  42.584  52.087  1.00  0.00     0.177 C 
BRANCH  18  19
HETATM   19  C8  UNL     1      19.358  42.616  51.130  1.00  0.00     0.054 C 
BRANCH  19  20
HETATM   20  C9  UNL     1      18.227  41.749  51.677  1.00  0.00     0.231 C 
BRANCH  20  21
HETATM   21  N3  UNL     1      18.702  40.518  52.218  1.00  0.00    -0.079 N 
ATOM     22  H33 UNL     1      17.955  39.826  52.271  1.00  0.00     0.274 HD
ATOM     23  H32 UNL     1      19.320  40.042  51.562  1.00  0.00     0.274 HD
ATOM     24  H31 UNL     1      19.153  40.642  53.125  1.00  0.00     0.274 HD
ENDBRANCH  20  21
ENDBRANCH  19  20
ENDBRANCH  18  19
ENDBRANCH  17  18
ENDBRANCH   9  17
BRANCH   1  25
HETATM   25  C2  UNL     1      22.178  44.800  60.365  1.00  0.00     0.130 C 
HETATM   26  C1  UNL     1      22.164  46.268  60.697  1.00  0.00     0.027 C 
ENDBRANCH   1  25
TORSDOF 6
ENDMDL
MODEL 3
REMARK VINA RESULT: -5.731051028      1.239      1.319
REMARK  6 active torsions:
REMARK  status: ('A' for Active; 'I' for Inactive)
REMARK    1  A    between atoms: C2_2  and  N1_3 
REMARK    2  A    between atoms: C6_11  and  O1_12 
REMARK    3  A    between atoms: O1_12  and  C7_13 
REMARK    4  A    between atoms: C7_13  and  C8_14 
REMARK    5  A    between atoms: C8_14  and  C9_15 
REMARK    6  A    between atoms: C9_15  and  N3_16 
ROOT
HETATM    1  N1  UNL     1      26.509  44.867  53.991  1.00  0.00    -0.290 N 
HETATM    2  C3  UNL     1      26.768  45.767  54.956  1.00  0.00     0.181 A 
HETATM    3  S1  UNL     1      28.285  46.385  55.012  1.00  0.00    -0.040 SA
HETATM    4  N2  UNL     1      25.857  46.170  55.855  1.00  0.00    -0.331 N 
ATOM      5  H2  UNL     1      26.121  46.857  56.561  1.00  0.00     0.168 HD
HETATM    6  C4  UNL     1      24.584  45.678  55.841  1.00  0.00     0.076 A 
HETATM    7  C5  UNL     1      23.656  46.098  56.767  1.00  0.00     0.097 A 
HETATM    8 CL1  UNL     1      24.101  47.280  57.988  1.00  0.00    -0.079 Cl
HETATM    9  C6  UNL     1      22.352  45.574  56.727  1.00  0.00     0.116 A 
HETATM   10  C10 UNL     1      22.087  44.664  55.754  1.00  0.00     0.091 A 
HETATM   11 CL2  UNL     1      20.503  43.918  55.634  1.00  0.00    -0.079 Cl
HETATM   12  C11 UNL     1      23.031  44.249  54.824  1.00  0.00     0.076 A 
HETATM   13 CL3  UNL     1      22.631  43.083  53.604  1.00  0.00    -0.081 Cl
HETATM   14  C12 UNL     1      24.297  44.754  54.858  1.00  0.00     0.084 A 
HETATM   15  C13 UNL     1      25.270  44.355  53.938  1.00  0.00     0.264 A 
HETATM   16  O2  UNL     1      24.970  43.509  53.054  1.00  0.00    -0.267 OA
ENDROOT
BRANCH   9  17
HETATM   17  O1  UNL     1      21.443  45.983  57.635  1.00  0.00    -0.347 OA
BRANCH  17  18
HETATM   18  C7  UNL     1      21.191  45.598  58.932  1.00  0.00     0.177 C 
BRANCH  18  19
HETATM   19  C8  UNL     1      21.647  44.231  59.360  1.00  0.00     0.054 C 
BRANCH  19  20
HETATM   20  C9  UNL     1      20.485  43.249  59.236  1.00  0.00     0.231 C 
BRANCH  20  21
HETATM   21  N3  UNL     1      19.287  43.882  58.793  1.00  0.00    -0.079 N 
ATOM     22  H33 UNL     1      18.795  44.325  59.570  1.00  0.00     0.274 HD
ATOM     23  H32 UNL     1      19.493  44.712  58.237  1.00  0.00     0.274 HD
ATOM     24  H31 UNL     1      18.675  43.242  58.287  1.00  0.00     0.274 HD
ENDBRANCH  20  21
ENDBRANCH  19  20
ENDBRANCH  18  19
ENDBRANCH  17  18
ENDBRANCH   9  17
BRANCH   1  25
HETATM   25  C2  UNL     1      27.544  44.463  53.034  1.00  0.00     0.130 C 
HETATM   26  C1  UNL     1      27.367  45.166  51.715  1.00  0.00     0.027 C 
ENDBRANCH   1  25
TORSDOF 6
ENDMDL
MODEL 4
REMARK VINA RESULT: -5.644884133      2.846      7.258
REMARK  6 active torsions:
REMARK  status: ('A' for Active; 'I' for Inactive)
REMARK    1  A    between atoms: C2_2  and  N1_3 
REMARK    2  A    between atoms: C6_11  and  O1_12 
REMARK    3  A    between atoms: O1_12  and  C7_13 
REMARK    4  A    between atoms: C7_13  and  C8_14 
REMARK    5  A    between atoms: C8_14  and  C9_15 
REMARK    6  A    between atoms: C9_15  and  N3_16 
ROOT
HETATM    1  N1  UNL     1      20.677  44.216  60.281  1.00  0.00    -0.290 N 
HETATM    2  C3  UNL     1      19.792  43.998  59.292  1.00  0.00     0.181 A 
HETATM    3  S1  UNL     1      18.260  43.618  59.732  1.00  0.00    -0.040 SA
HETATM    4  N2  UNL     1      20.104  44.077  57.989  1.00  0.00    -0.331 N 
ATOM      5  H2  UNL     1      19.384  43.900  57.290  1.00  0.00     0.168 HD
HETATM    6  C4  UNL     1      21.370  44.390  57.583  1.00  0.00     0.076 A 
HETATM    7  C5  UNL     1      21.680  44.470  56.245  1.00  0.00     0.097 A 
HETATM    8 CL1  UNL     1      20.446  44.165  55.032  1.00  0.00    -0.079 Cl
HETATM    9  C6  UNL     1      22.992  44.795  55.857  1.00  0.00     0.116 A 
HETATM   10  C10 UNL     1      23.888  45.015  56.854  1.00  0.00     0.091 A 
HETATM   11 CL2  UNL     1      25.562  45.392  56.484  1.00  0.00    -0.079 Cl
HETATM   12  C11 UNL     1      23.563  44.933  58.201  1.00  0.00     0.076 A 
HETATM   13 CL3  UNL     1      24.754  45.226  59.427  1.00  0.00    -0.081 Cl
HETATM   14  C12 UNL     1      22.292  44.618  58.583  1.00  0.00     0.084 A 
HETATM   15  C13 UNL     1      21.934  44.527  59.930  1.00  0.00     0.264 A 
HETATM   16  O2  UNL     1      22.805  44.743  60.814  1.00  0.00    -0.267 OA
ENDROOT
BRANCH   9  17
HETATM   17  O1  UNL     1      23.298  44.871  54.546  1.00  0.00    -0.347 OA
BRANCH  17  18
HETATM   18  C7  UNL     1      24.059  44.070  53.725  1.00  0.00     0.177 C 
BRANCH  18  19
HETATM   19  C8  UNL     1      25.006  44.740  52.769  1.00  0.00     0.054 C 
BRANCH  19  20
HETATM   20  C9  UNL     1      26.440  44.363  53.132  1.00  0.00     0.231 C 
BRANCH  20  21
HETATM   21  N3  UNL     1      26.499  43.244  54.013  1.00  0.00    -0.079 N 
ATOM     22  H33 UNL     1      26.278  43.518  54.971  1.00  0.00     0.274 HD
ATOM     23  H32 UNL     1      25.725  42.602  53.845  1.00  0.00     0.274 HD
ATOM     24  H31 UNL     1      27.396  42.761  53.966  1.00  0.00     0.274 HD
ENDBRANCH  20  21
ENDBRANCH  19  20
ENDBRANCH  18  19
ENDBRANCH  17  18
ENDBRANCH   9  17
BRANCH   1  25
HETATM   25  C2  UNL     1      20.279  44.116  61.688  1.00  0.00     0.130 C 
HETATM   26  C1  UNL     1      20.641  42.771  62.258  1.00  0.00     0.027 C 
ENDBRANCH   1  25
TORSDOF 6
ENDMDL
MODEL 5
REMARK VINA RESULT: -5.437565862      3.757      5.114
REMARK  6 active torsions:
REMARK  status: ('A' for Active; 'I' for Inactive)
REMARK    1  A    between atoms: C2_2  and  N1_3 
REMARK    2  A    between atoms: C6_11  and  O1_12 
REMARK    3  A    between atoms: O1_12  and  C7_13 
REMARK    4  A    between atoms: C7_13  and  C8_14 
REMARK    5  A    between atoms: C8_14  and  C9_15 
REMARK    6  A    between atoms: C9_15  and  N3_16 
ROOT
HETATM    1  N1  UNL     1      20.577  43.675  53.484  1.00  0.00    -0.290 N 
HETATM    2  C3  UNL     1      19.682  43.609  54.485  1.00  0.00     0.181 A 
HETATM    3  S1  UNL     1      18.139  43.229  54.083  1.00  0.00    -0.040 SA
HETATM    4  N2  UNL     1      19.993  43.835  55.771  1.00  0.00    -0.331 N 
ATOM      5  H2  UNL     1      19.264  43.768  56.481  1.00  0.00     0.168 HD
HETATM    6  C4  UNL     1      21.266  44.155  56.145  1.00  0.00     0.076 A 
HETATM    7  C5  UNL     1      21.576  44.384  57.465  1.00  0.00     0.097 A 
HETATM    8 CL1  UNL     1      20.328  44.271  58.697  1.00  0.00    -0.079 Cl
HETATM    9  C6  UNL     1      22.896  44.710  57.821  1.00  0.00     0.116 A 
HETATM   10  C10 UNL     1      23.803  44.779  56.811  1.00  0.00     0.091 A 
HETATM   11 CL2  UNL     1      25.472  45.214  57.135  1.00  0.00    -0.079 Cl
HETATM   12  C11 UNL     1      23.479  44.544  55.481  1.00  0.00     0.076 A 
HETATM   13 CL3  UNL     1      24.683  44.647  54.237  1.00  0.00    -0.081 Cl
HETATM   14  C12 UNL     1      22.200  44.227  55.132  1.00  0.00     0.084 A 
HETATM   15  C13 UNL     1      21.842  43.986  53.803  1.00  0.00     0.264 A 
HETATM   16  O2  UNL     1      22.723  44.062  52.906  1.00  0.00    -0.267 OA
ENDROOT
BRANCH   9  17
HETATM   17  O1  UNL     1      23.200  44.938  59.115  1.00  0.00    -0.347 OA
BRANCH  17  18
HETATM   18  C7  UNL     1      23.295  46.095  59.854  1.00  0.00     0.177 C 
BRANCH  18  19
HETATM   19  C8  UNL     1      22.534  47.300  59.375  1.00  0.00     0.054 C 
BRANCH  19  20
HETATM   20  C9  UNL     1      23.514  48.318  58.796  1.00  0.00     0.231 C 
BRANCH  20  21
HETATM   21  N3  UNL     1      23.234  49.646  59.230  1.00  0.00    -0.079 N 
ATOM     22  H33 UNL     1      24.090  50.139  59.484  1.00  0.00     0.274 HD
ATOM     23  H32 UNL     1      22.934  50.232  58.450  1.00  0.00     0.274 HD
ATOM     24  H31 UNL     1      22.555  49.671  59.991  1.00  0.00     0.274 HD
ENDBRANCH  20  21
ENDBRANCH  19  20
ENDBRANCH  18  19
ENDBRANCH  17  18
ENDBRANCH   9  17
BRANCH   1  25
HETATM   25  C2  UNL     1      20.180  43.418  52.096  1.00  0.00     0.130 C 
HETATM   26  C1  UNL     1      20.234  41.947  51.781  1.00  0.00     0.027 C 
ENDBRANCH   1  25
TORSDOF 6
ENDMDL
