MODEL 1
REMARK VINA RESULT: -7.339335115      0.000      0.000
REMARK  7 active torsions:
REMARK  status: ('A' for Active; 'I' for Inactive)
REMARK    1  A    between atoms: C3_3  and  C4_4 
REMARK    2  A    between atoms: C4_4  and  N1_5 
REMARK    3  A    between atoms: N1_5  and  N2_7 
REMARK    4  A    between atoms: C6_8  and  O1_9 
REMARK    5  A    between atoms: C8_12  and  O2_13 
REMARK    6  A    between atoms: O2_13  and  C9_14 
REMARK    7  A    between atoms: C15_23  and  O3_24 
ROOT
HETATM    1  N2  UNL     1      19.030  42.034  52.506  1.00  0.00    -0.211 N 
HETATM    2  C6  UNL     1      20.169  42.080  51.804  1.00  0.00     0.166 A 
HETATM    3  C7  UNL     1      21.028  42.953  52.438  1.00  0.00     0.099 A 
HETATM    4  C8  UNL     1      20.406  43.455  53.553  1.00  0.00     0.133 A 
HETATM    5  C15 UNL     1      19.120  42.837  53.559  1.00  0.00     0.198 A 
ENDROOT
BRANCH   4   6
HETATM    6  O2  UNL     1      20.796  44.319  54.493  1.00  0.00    -0.304 OA
BRANCH   6   7
HETATM    7  C9  UNL     1      21.402  44.380  55.662  1.00  0.00     0.101 A 
HETATM    8  C10 UNL     1      20.800  44.122  56.885  1.00  0.00     0.063 A 
HETATM    9  C11 UNL     1      21.548  44.222  58.043  1.00  0.00     0.038 A 
HETATM   10 CL1  UNL     1      20.756  43.894  59.578  1.00  0.00    -0.084 Cl
HETATM   11  C12 UNL     1      22.878  44.573  57.994  1.00  0.00     0.049 A 
HETATM   12  C13 UNL     1      23.496  44.834  56.779  1.00  0.00     0.060 A 
HETATM   13 CL2  UNL     1      25.206  45.289  56.703  1.00  0.00    -0.082 Cl
HETATM   14  C14 UNL     1      22.773  44.741  55.630  1.00  0.00     0.089 A 
HETATM   15 CL3  UNL     1      23.516  45.061  54.052  1.00  0.00    -0.080 Cl
ENDBRANCH   6   7
ENDBRANCH   4   6
BRANCH   5  16
HETATM   16  O3  UNL     1      18.151  43.077  54.541  1.00  0.00    -0.343 OA
ATOM     17  H3  UNL     1      18.196  43.689  55.267  1.00  0.00     0.219 HD
ENDBRANCH   5  16
BRANCH   2  18
HETATM   18  O1  UNL     1      20.429  41.356  50.624  1.00  0.00    -0.345 OA
ATOM     19  H1  UNL     1      21.179  40.791  50.480  1.00  0.00     0.219 HD
ENDBRANCH   2  18
BRANCH   1  20
HETATM   20  N1  UNL     1      17.898  41.254  52.174  1.00  0.00    -0.318 N 
HETATM   21  C5  UNL     1      16.661  41.926  51.895  1.00  0.00     0.172 C 
BRANCH  20  22
HETATM   22  C4  UNL     1      18.035  39.830  52.147  1.00  0.00     0.170 C 
BRANCH  22  23
HETATM   23  C3  UNL     1      16.855  39.095  51.638  1.00  0.00    -0.010 C 
HETATM   24  C2  UNL     1      16.781  38.790  50.361  1.00  0.00    -0.033 C 
HETATM   25  C1  UNL     1      17.851  39.165  49.417  1.00  0.00     0.036 C 
ENDBRANCH  22  23
ENDBRANCH  20  22
ENDBRANCH   1  20
TORSDOF 7
ENDMDL
MODEL 2
REMARK VINA RESULT: -6.989713165      1.046      2.292
REMARK  7 active torsions:
REMARK  status: ('A' for Active; 'I' for Inactive)
REMARK    1  A    between atoms: C3_3  and  C4_4 
REMARK    2  A    between atoms: C4_4  and  N1_5 
REMARK    3  A    between atoms: N1_5  and  N2_7 
REMARK    4  A    between atoms: C6_8  and  O1_9 
REMARK    5  A    between atoms: C8_12  and  O2_13 
REMARK    6  A    between atoms: O2_13  and  C9_14 
REMARK    7  A    between atoms: C15_23  and  O3_24 
ROOT
HETATM    1  N2  UNL     1      19.047  42.096  52.569  1.00  0.00    -0.211 N 
HETATM    2  C6  UNL     1      20.193  42.156  51.880  1.00  0.00     0.166 A 
HETATM    3  C7  UNL     1      21.039  43.027  52.532  1.00  0.00     0.099 A 
HETATM    4  C8  UNL     1      20.402  43.515  53.645  1.00  0.00     0.133 A 
HETATM    5  C15 UNL     1      19.120  42.889  53.630  1.00  0.00     0.198 A 
ENDROOT
BRANCH   4   6
HETATM    6  O2  UNL     1      20.776  44.372  54.597  1.00  0.00    -0.304 OA
BRANCH   6   7
HETATM    7  C9  UNL     1      21.842  44.830  55.223  1.00  0.00     0.101 A 
HETATM    8  C10 UNL     1      22.890  45.509  54.617  1.00  0.00     0.063 A 
HETATM    9  C11 UNL     1      23.955  45.938  55.388  1.00  0.00     0.038 A 
HETATM   10 CL1  UNL     1      25.270  46.790  54.591  1.00  0.00    -0.084 Cl
HETATM   11  C12 UNL     1      23.984  45.699  56.744  1.00  0.00     0.049 A 
HETATM   12  C13 UNL     1      22.944  45.022  57.365  1.00  0.00     0.060 A 
HETATM   13 CL2  UNL     1      22.971  44.708  59.107  1.00  0.00    -0.082 Cl
HETATM   14  C14 UNL     1      21.890  44.593  56.621  1.00  0.00     0.089 A 
HETATM   15 CL3  UNL     1      20.534  43.727  57.367  1.00  0.00    -0.080 Cl
ENDBRANCH   6   7
ENDBRANCH   4   6
BRANCH   5  16
HETATM   16  O3  UNL     1      18.139  43.114  54.605  1.00  0.00    -0.343 OA
ATOM     17  H3  UNL     1      17.466  42.514  54.904  1.00  0.00     0.219 HD
ENDBRANCH   5  16
BRANCH   2  18
HETATM   18  O1  UNL     1      20.470  41.444  50.696  1.00  0.00    -0.345 OA
ATOM     19  H1  UNL     1      21.337  41.247  50.364  1.00  0.00     0.219 HD
ENDBRANCH   2  18
BRANCH   1  20
HETATM   20  N1  UNL     1      17.923  41.312  52.217  1.00  0.00    -0.318 N 
HETATM   21  C5  UNL     1      16.685  41.980  51.929  1.00  0.00     0.172 C 
BRANCH  20  22
HETATM   22  C4  UNL     1      18.068  39.890  52.180  1.00  0.00     0.170 C 
BRANCH  22  23
HETATM   23  C3  UNL     1      16.890  39.151  51.672  1.00  0.00    -0.010 C 
HETATM   24  C2  UNL     1      16.818  38.844  50.395  1.00  0.00    -0.033 C 
HETATM   25  C1  UNL     1      17.887  39.220  49.451  1.00  0.00     0.036 C 
ENDBRANCH  22  23
ENDBRANCH  20  22
ENDBRANCH   1  20
TORSDOF 7
ENDMDL
MODEL 3
REMARK VINA RESULT: -6.947006071      5.153      8.481
REMARK  7 active torsions:
REMARK  status: ('A' for Active; 'I' for Inactive)
REMARK    1  A    between atoms: C3_3  and  C4_4 
REMARK    2  A    between atoms: C4_4  and  N1_5 
REMARK    3  A    between atoms: N1_5  and  N2_7 
REMARK    4  A    between atoms: C6_8  and  O1_9 
REMARK    5  A    between atoms: C8_12  and  O2_13 
REMARK    6  A    between atoms: O2_13  and  C9_14 
REMARK    7  A    between atoms: C15_23  and  O3_24 
ROOT
HETATM    1  N2  UNL     1      27.433  44.828  52.916  1.00  0.00    -0.211 N 
HETATM    2  C6  UNL     1      26.754  45.619  52.076  1.00  0.00     0.166 A 
HETATM    3  C7  UNL     1      25.418  45.291  52.166  1.00  0.00     0.099 A 
HETATM    4  C8  UNL     1      25.271  44.276  53.079  1.00  0.00     0.133 A 
HETATM    5  C15 UNL     1      26.595  44.009  53.538  1.00  0.00     0.198 A 
ENDROOT
BRANCH   4   6
HETATM    6  O2  UNL     1      24.204  43.611  53.525  1.00  0.00    -0.304 OA
BRANCH   6   7
HETATM    7  C9  UNL     1      22.964  43.789  53.935  1.00  0.00     0.101 A 
HETATM    8  C10 UNL     1      21.832  43.584  53.158  1.00  0.00     0.063 A 
HETATM    9  C11 UNL     1      20.583  43.810  53.707  1.00  0.00     0.038 A 
HETATM   10 CL1  UNL     1      19.169  43.546  52.697  1.00  0.00    -0.084 Cl
HETATM   11  C12 UNL     1      20.453  44.232  55.012  1.00  0.00     0.049 A 
HETATM   12  C13 UNL     1      21.575  44.441  55.802  1.00  0.00     0.060 A 
HETATM   13 CL2  UNL     1      21.421  44.986  57.479  1.00  0.00    -0.082 Cl
HETATM   14  C14 UNL     1      22.810  44.225  55.276  1.00  0.00     0.089 A 
HETATM   15 CL3  UNL     1      24.275  44.474  56.245  1.00  0.00    -0.080 Cl
ENDBRANCH   6   7
ENDBRANCH   4   6
BRANCH   5  16
HETATM   16  O3  UNL     1      26.899  43.028  54.490  1.00  0.00    -0.343 OA
ATOM     17  H3  UNL     1      26.427  42.825  55.289  1.00  0.00     0.219 HD
ENDBRANCH   5  16
BRANCH   2  18
HETATM   18  O1  UNL     1      27.322  46.610  51.252  1.00  0.00    -0.345 OA
ATOM     19  H1  UNL     1      27.731  47.411  51.558  1.00  0.00     0.219 HD
ENDBRANCH   2  18
BRANCH   1  20
HETATM   20  N1  UNL     1      28.834  44.855  53.108  1.00  0.00    -0.318 N 
HETATM   21  C5  UNL     1      29.661  44.079  52.227  1.00  0.00     0.172 C 
BRANCH  20  22
HETATM   22  C4  UNL     1      29.361  45.641  54.181  1.00  0.00     0.170 C 
BRANCH  22  23
HETATM   23  C3  UNL     1      29.899  44.867  55.322  1.00  0.00    -0.010 C 
HETATM   24  C2  UNL     1      29.247  44.859  56.465  1.00  0.00    -0.033 C 
HETATM   25  C1  UNL     1      27.988  45.608  56.638  1.00  0.00     0.036 C 
ENDBRANCH  22  23
ENDBRANCH  20  22
ENDBRANCH   1  20
TORSDOF 7
ENDMDL
MODEL 4
REMARK VINA RESULT: -6.659841825      1.356      2.052
REMARK  7 active torsions:
REMARK  status: ('A' for Active; 'I' for Inactive)
REMARK    1  A    between atoms: C3_3  and  C4_4 
REMARK    2  A    between atoms: C4_4  and  N1_5 
REMARK    3  A    between atoms: N1_5  and  N2_7 
REMARK    4  A    between atoms: C6_8  and  O1_9 
REMARK    5  A    between atoms: C8_12  and  O2_13 
REMARK    6  A    between atoms: O2_13  and  C9_14 
REMARK    7  A    between atoms: C15_23  and  O3_24 
ROOT
HETATM    1  N2  UNL     1      19.450  42.630  52.800  1.00  0.00    -0.211 N 
HETATM    2  C6  UNL     1      18.322  42.892  53.470  1.00  0.00     0.166 A 
HETATM    3  C7  UNL     1      18.643  43.675  54.558  1.00  0.00     0.099 A 
HETATM    4  C8  UNL     1      19.997  43.900  54.559  1.00  0.00     0.133 A 
HETATM    5  C15 UNL     1      20.478  43.208  53.408  1.00  0.00     0.198 A 
ENDROOT
BRANCH   4   6
HETATM    6  O2  UNL     1      20.799  44.584  55.378  1.00  0.00    -0.304 OA
BRANCH   6   7
HETATM    7  C9  UNL     1      21.430  44.492  56.531  1.00  0.00     0.101 A 
HETATM    8  C10 UNL     1      20.904  43.922  57.683  1.00  0.00     0.063 A 
HETATM    9  C11 UNL     1      21.670  43.889  58.832  1.00  0.00     0.038 A 
HETATM   10 CL1  UNL     1      20.976  43.166  60.276  1.00  0.00    -0.084 Cl
HETATM   11  C12 UNL     1      22.945  44.411  58.845  1.00  0.00     0.049 A 
HETATM   12  C13 UNL     1      23.485  44.984  57.702  1.00  0.00     0.060 A 
HETATM   13 CL2  UNL     1      25.121  45.661  57.707  1.00  0.00    -0.082 Cl
HETATM   14  C14 UNL     1      22.743  45.026  56.563  1.00  0.00     0.089 A 
HETATM   15 CL3  UNL     1      23.389  45.743  55.075  1.00  0.00    -0.080 Cl
ENDBRANCH   6   7
ENDBRANCH   4   6
BRANCH   5  16
HETATM   16  O3  UNL     1      21.827  43.178  53.032  1.00  0.00    -0.343 OA
ATOM     17  H3  UNL     1      22.583  43.422  53.553  1.00  0.00     0.219 HD
ENDBRANCH   5  16
BRANCH   2  18
HETATM   18  O1  UNL     1      17.037  42.439  53.112  1.00  0.00    -0.345 OA
ATOM     19  H1  UNL     1      16.247  42.565  53.624  1.00  0.00     0.219 HD
ENDBRANCH   2  18
BRANCH   1  20
HETATM   20  N1  UNL     1      19.537  41.850  51.623  1.00  0.00    -0.318 N 
HETATM   21  C5  UNL     1      19.892  42.501  50.394  1.00  0.00     0.172 C 
BRANCH  20  22
HETATM   22  C4  UNL     1      19.254  40.450  51.710  1.00  0.00     0.170 C 
BRANCH  22  23
HETATM   23  C3  UNL     1      18.703  39.843  50.477  1.00  0.00    -0.010 C 
HETATM   24  C2  UNL     1      17.562  39.191  50.528  1.00  0.00    -0.033 C 
HETATM   25  C1  UNL     1      16.813  39.048  51.791  1.00  0.00     0.036 C 
ENDBRANCH  22  23
ENDBRANCH  20  22
ENDBRANCH   1  20
TORSDOF 7
ENDMDL
MODEL 5
REMARK VINA RESULT: -6.628369676      5.895      8.580
REMARK  7 active torsions:
REMARK  status: ('A' for Active; 'I' for Inactive)
REMARK    1  A    between atoms: C3_3  and  C4_4 
REMARK    2  A    between atoms: C4_4  and  N1_5 
REMARK    3  A    between atoms: N1_5  and  N2_7 
REMARK    4  A    between atoms: C6_8  and  O1_9 
REMARK    5  A    between atoms: C8_12  and  O2_13 
REMARK    6  A    between atoms: O2_13  and  C9_14 
REMARK    7  A    between atoms: C15_23  and  O3_24 
ROOT
HETATM    1  N2  UNL     1      27.447  44.821  52.938  1.00  0.00    -0.211 N 
HETATM    2  C6  UNL     1      26.787  45.636  52.107  1.00  0.00     0.166 A 
HETATM    3  C7  UNL     1      25.446  45.322  52.174  1.00  0.00     0.099 A 
HETATM    4  C8  UNL     1      25.276  44.292  53.064  1.00  0.00     0.133 A 
HETATM    5  C15 UNL     1      26.591  43.999  53.533  1.00  0.00     0.198 A 
ENDROOT
BRANCH   4   6
HETATM    6  O2  UNL     1      24.196  43.630  53.484  1.00  0.00    -0.304 OA
BRANCH   6   7
HETATM    7  C9  UNL     1      22.954  43.815  53.885  1.00  0.00     0.101 A 
HETATM    8  C10 UNL     1      21.826  43.617  53.101  1.00  0.00     0.063 A 
HETATM    9  C11 UNL     1      20.575  43.848  53.641  1.00  0.00     0.038 A 
HETATM   10 CL1  UNL     1      19.166  43.594  52.622  1.00  0.00    -0.084 Cl
HETATM   11  C12 UNL     1      20.439  44.270  54.945  1.00  0.00     0.049 A 
HETATM   12  C13 UNL     1      21.556  44.473  55.743  1.00  0.00     0.060 A 
HETATM   13 CL2  UNL     1      21.394  45.017  57.420  1.00  0.00    -0.082 Cl
HETATM   14  C14 UNL     1      22.794  44.250  55.225  1.00  0.00     0.089 A 
HETATM   15 CL3  UNL     1      24.253  44.490  56.204  1.00  0.00    -0.080 Cl
ENDBRANCH   6   7
ENDBRANCH   4   6
BRANCH   5  16
HETATM   16  O3  UNL     1      26.872  42.996  54.469  1.00  0.00    -0.343 OA
ATOM     17  H3  UNL     1      26.329  42.704  55.192  1.00  0.00     0.219 HD
ENDBRANCH   5  16
BRANCH   2  18
HETATM   18  O1  UNL     1      27.376  46.638  51.310  1.00  0.00    -0.345 OA
ATOM     19  H1  UNL     1      27.825  47.408  51.638  1.00  0.00     0.219 HD
ENDBRANCH   2  18
BRANCH   1  20
HETATM   20  N1  UNL     1      28.845  44.827  53.148  1.00  0.00    -0.318 N 
HETATM   21  C5  UNL     1      29.364  45.533  54.286  1.00  0.00     0.172 C 
BRANCH  20  22
HETATM   22  C4  UNL     1      29.680  44.143  52.209  1.00  0.00     0.170 C 
BRANCH  22  23
HETATM   23  C3  UNL     1      31.021  44.738  52.010  1.00  0.00    -0.010 C 
HETATM   24  C2  UNL     1      31.653  44.548  50.872  1.00  0.00    -0.033 C 
HETATM   25  C1  UNL     1      31.056  43.752  49.784  1.00  0.00     0.036 C 
ENDBRANCH  22  23
ENDBRANCH  20  22
ENDBRANCH   1  20
TORSDOF 7
ENDMDL
