MODEL 1
REMARK VINA RESULT: -5.395639111      0.000      0.000
REMARK  7 active torsions:
REMARK  status: ('A' for Active; 'I' for Inactive)
REMARK    1  A    between atoms: N1_2  and  C2_4 
REMARK    2  A    between atoms: C3_5  and  N2_6 
REMARK    3  A    between atoms: N2_6  and  N3_7 
REMARK    4  A    between atoms: C5_16  and  N7_17 
REMARK    5  A    between atoms: N7_17  and  O1_18 
REMARK    6  A    between atoms: C7_20  and  C8_21 
REMARK    7  A    between atoms: C8_21  and  N8_22 
ROOT
HETATM    1  C2  UNL     1      39.395  29.769  10.785  1.00  0.00     0.125 C 
HETATM    2  C3  UNL     1      39.182  30.142  12.199  1.00  0.00     0.221 C 
HETATM    3  N4  UNL     1      40.063  29.360  13.098  1.00  0.00    -0.343 N 
ATOM      4  H4  UNL     1      39.653  28.979  13.950  1.00  0.00     0.164 HD
HETATM    5  C4  UNL     1      41.454  29.100  12.851  1.00  0.00     0.186 C 
HETATM    6  N5  UNL     1      42.101  28.101  13.615  1.00  0.00    -0.064 NA
HETATM    7  N6  UNL     1      42.143  29.756  11.944  1.00  0.00    -0.344 N 
ATOM      8  H6  UNL     1      43.124  29.494  11.849  1.00  0.00     0.164 HD
HETATM    9  C5  UNL     1      41.675  30.805  11.064  1.00  0.00     0.213 C 
HETATM   10  C7  UNL     1      40.586  30.453  10.138  1.00  0.00     0.077 C 
ENDROOT
BRANCH  10  11
HETATM   11  C8  UNL     1      41.086  29.501   9.080  1.00  0.00     0.239 C 
BRANCH  11  12
HETATM   12  N8  UNL     1      41.440  30.099   7.835  1.00  0.00    -0.079 N 
ATOM     13  H83 UNL     1      40.876  29.703   7.084  1.00  0.00     0.274 HD
ATOM     14  H82 UNL     1      41.120  31.067   7.809  1.00  0.00     0.274 HD
ATOM     15  H81 UNL     1      42.429  30.052   7.592  1.00  0.00     0.274 HD
ENDBRANCH  11  12
ENDBRANCH  10  11
BRANCH   1  16
HETATM   16  N1  UNL     1      39.341  28.392  10.488  1.00  0.00    -0.417 N 
HETATM   17  C1  UNL     1      38.172  27.848   9.874  1.00  0.00     0.140 C 
ATOM     18  H1  UNL     1      40.133  27.788  10.709  1.00  0.00     0.153 HD
ENDBRANCH   1  16
BRANCH   9  19
HETATM   19  N7  UNL     1      42.795  31.360  10.336  1.00  0.00    -0.075 NA
BRANCH  19  20
HETATM   20  O1  UNL     1      43.924  31.103  11.048  1.00  0.00    -0.289 OA
HETATM   21  C6  UNL     1      45.070  31.494  10.382  1.00  0.00     0.231 C 
ENDBRANCH  19  20
ENDBRANCH   9  19
BRANCH   2  22
HETATM   22  N2  UNL     1      37.839  29.892  12.633  1.00  0.00    -0.120 NA
BRANCH  22  23
HETATM   23  N3  UNL     1      37.724  30.029  14.043  1.00  0.00    -0.346 N 
ATOM     24  H32 UNL     1      38.498  29.878  14.690  1.00  0.00     0.172 HD
ATOM     25  H31 UNL     1      36.776  30.295  14.309  1.00  0.00     0.172 HD
ENDBRANCH  22  23
ENDBRANCH   2  22
TORSDOF 7
ENDMDL
MODEL 2
REMARK VINA RESULT: -5.289298704      2.199      2.843
REMARK  7 active torsions:
REMARK  status: ('A' for Active; 'I' for Inactive)
REMARK    1  A    between atoms: N1_2  and  C2_4 
REMARK    2  A    between atoms: C3_5  and  N2_6 
REMARK    3  A    between atoms: N2_6  and  N3_7 
REMARK    4  A    between atoms: C5_16  and  N7_17 
REMARK    5  A    between atoms: N7_17  and  O1_18 
REMARK    6  A    between atoms: C7_20  and  C8_21 
REMARK    7  A    between atoms: C8_21  and  N8_22 
ROOT
HETATM    1  C2  UNL     1      37.682  28.745  11.539  1.00  0.00     0.125 C 
HETATM    2  C3  UNL     1      36.853  28.983  12.738  1.00  0.00     0.221 C 
HETATM    3  N4  UNL     1      37.362  28.221  13.902  1.00  0.00    -0.343 N 
ATOM      4  H4  UNL     1      36.681  27.736  14.487  1.00  0.00     0.164 HD
HETATM    5  C4  UNL     1      38.748  28.117  14.264  1.00  0.00     0.186 C 
HETATM    6  N5  UNL     1      39.129  27.127  15.199  1.00  0.00    -0.064 NA
HETATM    7  N6  UNL     1      39.669  28.905  13.757  1.00  0.00    -0.344 N 
ATOM      8  H6  UNL     1      40.623  28.747  14.081  1.00  0.00     0.164 HD
HETATM    9  C5  UNL     1      39.492  29.971  12.795  1.00  0.00     0.213 C 
HETATM   10  C7  UNL     1      38.943  29.590  11.483  1.00  0.00     0.077 C 
ENDROOT
BRANCH  10  11
HETATM   11  C8  UNL     1      39.952  28.777  10.710  1.00  0.00     0.239 C 
BRANCH  11  12
HETATM   12  N8  UNL     1      40.644  29.478   9.679  1.00  0.00    -0.079 N 
ATOM     13  H83 UNL     1      39.996  30.078   9.168  1.00  0.00     0.274 HD
ATOM     14  H82 UNL     1      41.258  30.183  10.086  1.00  0.00     0.274 HD
ATOM     15  H81 UNL     1      41.168  28.894   9.027  1.00  0.00     0.274 HD
ENDBRANCH  11  12
ENDBRANCH  10  11
BRANCH   1  16
HETATM   16  N1  UNL     1      37.925  27.398  11.205  1.00  0.00    -0.417 N 
HETATM   17  C1  UNL     1      37.242  26.811  10.096  1.00  0.00     0.140 C 
ATOM     18  H1  UNL     1      38.585  26.845  11.752  1.00  0.00     0.153 HD
ENDBRANCH   1  16
BRANCH   9  19
HETATM   19  N7  UNL     1      40.738  30.687  12.631  1.00  0.00    -0.075 NA
BRANCH  19  20
HETATM   20  O1  UNL     1      41.676  30.072  13.398  1.00  0.00    -0.289 OA
HETATM   21  C6  UNL     1      42.788  29.691  12.670  1.00  0.00     0.231 C 
ENDBRANCH  19  20
ENDBRANCH   9  19
BRANCH   2  22
HETATM   22  N2  UNL     1      35.493  28.572  12.550  1.00  0.00    -0.120 NA
BRANCH  22  23
HETATM   23  N3  UNL     1      35.147  27.526  13.448  1.00  0.00    -0.346 N 
ATOM     24  H32 UNL     1      35.651  26.640  13.505  1.00  0.00     0.172 HD
ATOM     25  H31 UNL     1      34.340  27.782  14.016  1.00  0.00     0.172 HD
ENDBRANCH  22  23
ENDBRANCH   2  22
TORSDOF 7
ENDMDL
MODEL 3
REMARK VINA RESULT: -5.108145630      2.452      5.417
REMARK  7 active torsions:
REMARK  status: ('A' for Active; 'I' for Inactive)
REMARK    1  A    between atoms: N1_2  and  C2_4 
REMARK    2  A    between atoms: C3_5  and  N2_6 
REMARK    3  A    between atoms: N2_6  and  N3_7 
REMARK    4  A    between atoms: C5_16  and  N7_17 
REMARK    5  A    between atoms: N7_17  and  O1_18 
REMARK    6  A    between atoms: C7_20  and  C8_21 
REMARK    7  A    between atoms: C8_21  and  N8_22 
ROOT
HETATM    1  C2  UNL     1      41.072  30.111  12.370  1.00  0.00     0.125 C 
HETATM    2  C3  UNL     1      40.998  30.827  11.080  1.00  0.00     0.221 C 
HETATM    3  N4  UNL     1      40.566  29.923   9.989  1.00  0.00    -0.343 N 
ATOM      4  H4  UNL     1      41.064  29.980   9.100  1.00  0.00     0.164 HD
HETATM    5  C4  UNL     1      39.496  28.971  10.095  1.00  0.00     0.186 C 
HETATM    6  N5  UNL     1      39.381  27.970   9.103  1.00  0.00    -0.064 NA
HETATM    7  N6  UNL     1      38.624  28.999  11.078  1.00  0.00    -0.344 N 
ATOM      8  H6  UNL     1      37.904  28.277  11.060  1.00  0.00     0.164 HD
HETATM    9  C5  UNL     1      38.565  29.930  12.183  1.00  0.00     0.213 C 
HETATM   10  C7  UNL     1      39.735  29.971  13.076  1.00  0.00     0.077 C 
ENDROOT
BRANCH  10  11
HETATM   11  C8  UNL     1      39.823  28.698  13.881  1.00  0.00     0.239 C 
BRANCH  11  12
HETATM   12  N8  UNL     1      39.041  28.672  15.073  1.00  0.00    -0.079 N 
ATOM     13  H83 UNL     1      39.443  28.013  15.740  1.00  0.00     0.274 HD
ATOM     14  H82 UNL     1      39.159  29.544  15.589  1.00  0.00     0.274 HD
ATOM     15  H81 UNL     1      38.048  28.476  14.943  1.00  0.00     0.274 HD
ENDBRANCH  11  12
ENDBRANCH  10  11
BRANCH   1  16
HETATM   16  N1  UNL     1      41.808  28.909  12.375  1.00  0.00    -0.417 N 
HETATM   17  C1  UNL     1      43.220  28.947  12.590  1.00  0.00     0.140 C 
ATOM     18  H1  UNL     1      41.336  28.017  12.227  1.00  0.00     0.153 HD
ENDBRANCH   1  16
BRANCH   9  19
HETATM   19  N7  UNL     1      37.358  29.700  12.946  1.00  0.00    -0.075 NA
BRANCH  19  20
HETATM   20  O1  UNL     1      36.602  28.796  12.268  1.00  0.00    -0.289 OA
HETATM   21  C6  UNL     1      35.990  27.883  13.105  1.00  0.00     0.231 C 
ENDBRANCH  19  20
ENDBRANCH   9  19
BRANCH   2  22
HETATM   22  N2  UNL     1      42.266  31.364  10.681  1.00  0.00    -0.120 NA
BRANCH  22  23
HETATM   23  N3  UNL     1      42.585  30.984   9.350  1.00  0.00    -0.346 N 
ATOM     24  H32 UNL     1      41.891  30.883   8.609  1.00  0.00     0.172 HD
ATOM     25  H31 UNL     1      43.588  30.831   9.243  1.00  0.00     0.172 HD
ENDBRANCH  22  23
ENDBRANCH   2  22
TORSDOF 7
ENDMDL
MODEL 4
REMARK VINA RESULT: -4.868930379      2.218      5.047
REMARK  7 active torsions:
REMARK  status: ('A' for Active; 'I' for Inactive)
REMARK    1  A    between atoms: N1_2  and  C2_4 
REMARK    2  A    between atoms: C3_5  and  N2_6 
REMARK    3  A    between atoms: N2_6  and  N3_7 
REMARK    4  A    between atoms: C5_16  and  N7_17 
REMARK    5  A    between atoms: N7_17  and  O1_18 
REMARK    6  A    between atoms: C7_20  and  C8_21 
REMARK    7  A    between atoms: C8_21  and  N8_22 
ROOT
HETATM    1  C2  UNL     1      41.739  30.060  10.132  1.00  0.00     0.125 C 
HETATM    2  C3  UNL     1      40.864  30.445   9.005  1.00  0.00     0.221 C 
HETATM    3  N4  UNL     1      39.951  29.338   8.634  1.00  0.00    -0.343 N 
ATOM      4  H4  UNL     1      39.827  29.139   7.641  1.00  0.00     0.164 HD
HETATM    5  C4  UNL     1      39.230  28.527   9.574  1.00  0.00     0.186 C 
HETATM    6  N5  UNL     1      38.640  27.326   9.116  1.00  0.00    -0.064 NA
HETATM    7  N6  UNL     1      39.101  28.859  10.838  1.00  0.00    -0.344 N 
ATOM      8  H6  UNL     1      38.570  28.213  11.421  1.00  0.00     0.164 HD
HETATM    9  C5  UNL     1      39.623  30.034  11.503  1.00  0.00     0.213 C 
HETATM   10  C7  UNL     1      41.086  30.200  11.496  1.00  0.00     0.077 C 
ENDROOT
BRANCH  10  11
HETATM   11  C8  UNL     1      41.735  29.159  12.374  1.00  0.00     0.239 C 
BRANCH  11  12
HETATM   12  N8  UNL     1      42.866  29.603  13.120  1.00  0.00    -0.079 N 
ATOM     13  H83 UNL     1      43.191  30.501  12.760  1.00  0.00     0.274 HD
ATOM     14  H82 UNL     1      42.579  29.879  14.059  1.00  0.00     0.274 HD
ATOM     15  H81 UNL     1      43.643  28.945  13.172  1.00  0.00     0.274 HD
ENDBRANCH  11  12
ENDBRANCH  10  11
BRANCH   1  16
HETATM   16  N1  UNL     1      42.435  28.842   9.994  1.00  0.00    -0.417 N 
HETATM   17  C1  UNL     1      43.812  28.856   9.611  1.00  0.00     0.140 C 
ATOM     18  H1  UNL     1      41.960  27.957  10.168  1.00  0.00     0.153 HD
ENDBRANCH   1  16
BRANCH   9  19
HETATM   19  N7  UNL     1      39.116  30.090  12.856  1.00  0.00    -0.075 NA
BRANCH  19  20
HETATM   20  O1  UNL     1      37.759  30.103  12.793  1.00  0.00    -0.289 OA
HETATM   21  C6  UNL     1      37.171  29.541  13.910  1.00  0.00     0.231 C 
ENDBRANCH  19  20
ENDBRANCH   9  19
BRANCH   2  22
HETATM   22  N2  UNL     1      41.608  30.769   7.824  1.00  0.00    -0.120 NA
BRANCH  22  23
HETATM   23  N3  UNL     1      42.495  31.853   8.060  1.00  0.00    -0.346 N 
ATOM     24  H32 UNL     1      42.976  32.362   7.318  1.00  0.00     0.172 HD
ATOM     25  H31 UNL     1      42.579  32.047   9.058  1.00  0.00     0.172 HD
ENDBRANCH  22  23
ENDBRANCH   2  22
TORSDOF 7
ENDMDL
MODEL 5
REMARK VINA RESULT: -4.847096327      2.210      5.445
REMARK  7 active torsions:
REMARK  status: ('A' for Active; 'I' for Inactive)
REMARK    1  A    between atoms: N1_2  and  C2_4 
REMARK    2  A    between atoms: C3_5  and  N2_6 
REMARK    3  A    between atoms: N2_6  and  N3_7 
REMARK    4  A    between atoms: C5_16  and  N7_17 
REMARK    5  A    between atoms: N7_17  and  O1_18 
REMARK    6  A    between atoms: C7_20  and  C8_21 
REMARK    7  A    between atoms: C8_21  and  N8_22 
ROOT
HETATM    1  C2  UNL     1      41.989  30.482   9.519  1.00  0.00     0.125 C 
HETATM    2  C3  UNL     1      41.393  30.539   8.169  1.00  0.00     0.221 C 
HETATM    3  N4  UNL     1      41.073  29.182   7.666  1.00  0.00    -0.343 N 
ATOM      4  H4  UNL     1      41.314  28.966   6.698  1.00  0.00     0.164 HD
HETATM    5  C4  UNL     1      40.450  28.151   8.446  1.00  0.00     0.186 C 
HETATM    6  N5  UNL     1      40.475  26.825   7.956  1.00  0.00    -0.064 NA
HETATM    7  N6  UNL     1      39.859  28.395   9.594  1.00  0.00    -0.344 N 
ATOM      8  H6  UNL     1      39.447  27.592  10.068  1.00  0.00     0.164 HD
HETATM    9  C5  UNL     1      39.723  29.669  10.266  1.00  0.00     0.213 C 
HETATM   10  C7  UNL     1      40.972  30.355  10.639  1.00  0.00     0.077 C 
ENDROOT
BRANCH  10  11
HETATM   11  C8  UNL     1      41.668  29.607  11.749  1.00  0.00     0.239 C 
BRANCH  11  12
HETATM   12  N8  UNL     1      41.234  29.926  13.069  1.00  0.00    -0.079 N 
ATOM     13  H83 UNL     1      41.036  30.924  13.141  1.00  0.00     0.274 HD
ATOM     14  H82 UNL     1      40.302  29.545  13.232  1.00  0.00     0.274 HD
ATOM     15  H81 UNL     1      41.863  29.639  13.819  1.00  0.00     0.274 HD
ENDBRANCH  11  12
ENDBRANCH  10  11
BRANCH   1  16
HETATM   16  N1  UNL     1      43.079  29.602   9.684  1.00  0.00    -0.417 N 
HETATM   17  C1  UNL     1      44.412  30.112   9.626  1.00  0.00     0.140 C 
ATOM     18  H1  UNL     1      42.916  28.608   9.843  1.00  0.00     0.153 HD
ENDBRANCH   1  16
BRANCH   9  19
HETATM   19  N7  UNL     1      38.868  29.517  11.423  1.00  0.00    -0.075 NA
BRANCH  19  20
HETATM   20  O1  UNL     1      38.376  28.250  11.414  1.00  0.00    -0.289 OA
HETATM   21  C6  UNL     1      37.177  28.143  12.093  1.00  0.00     0.231 C 
ENDBRANCH  19  20
ENDBRANCH   9  19
BRANCH   2  22
HETATM   22  N2  UNL     1      42.277  31.128   7.207  1.00  0.00    -0.120 NA
BRANCH  22  23
HETATM   23  N3  UNL     1      42.482  30.258   6.102  1.00  0.00    -0.346 N 
ATOM     24  H32 UNL     1      43.386  29.845   5.868  1.00  0.00     0.172 HD
ATOM     25  H31 UNL     1      41.615  30.109   5.586  1.00  0.00     0.172 HD
ENDBRANCH  22  23
ENDBRANCH   2  22
TORSDOF 7
ENDMDL
