MODEL 1
REMARK VINA RESULT: -7.669421103      0.000      0.000
REMARK  8 active torsions:
REMARK  status: ('A' for Active; 'I' for Inactive)
REMARK    1  A    between atoms: C2_4  and  N2_5 
REMARK    2  A    between atoms: N2_5  and  C3_7 
REMARK    3  A    between atoms: C4_8  and  N3_9 
REMARK    4  A    between atoms: C6_14  and  N4_15 
REMARK    5  A    between atoms: C7_19  and  C8_20 
REMARK       I    between atoms: C8_20  and  N5_22 
REMARK    6  A    between atoms: N5_22  and  C9_24 
REMARK    7  A    between atoms: C9_24  and  C10_25 
REMARK    8  A    between atoms: C10_25  and  C11_26 
ROOT
HETATM    1  C3  UNL     1     -43.613   0.583  -2.977  1.00  0.00     0.127 C 
HETATM    2  C4  UNL     1     -44.757   0.637  -2.066  1.00  0.00     0.209 C 
HETATM    3  C5  UNL     1     -44.655  -0.477  -1.106  1.00  0.00     0.068 C 
HETATM    4  C6  UNL     1     -43.562  -1.355  -1.643  1.00  0.00     0.200 C 
HETATM    5  C7  UNL     1     -43.225  -0.865  -3.018  1.00  0.00     0.133 C 
ENDROOT
BRANCH   5   6
HETATM    6  C8  UNL     1     -43.865  -1.630  -4.088  1.00  0.00     0.225 C 
HETATM    7  O1  UNL     1     -44.627  -2.601  -3.750  1.00  0.00    -0.273 OA
HETATM    8  N5  UNL     1     -43.722  -1.401  -5.473  1.00  0.00    -0.360 N 
ATOM      9  H5  UNL     1     -43.125  -0.630  -5.774  1.00  0.00     0.162 HD
BRANCH   8  10
HETATM   10  C9  UNL     1     -44.365  -2.187  -6.477  1.00  0.00     0.131 C 
BRANCH  10  11
HETATM   11  C10 UNL     1     -45.637  -1.642  -7.023  1.00  0.00     0.119 C 
BRANCH  11  12
HETATM   12  C11 UNL     1     -46.757  -2.537  -6.569  1.00  0.00     0.232 C 
HETATM   13  N6  UNL     1     -46.647  -3.928  -6.836  1.00  0.00    -0.062 NA
HETATM   14  O2  UNL     1     -47.748  -2.073  -5.978  1.00  0.00    -0.277 OA
ENDBRANCH  11  12
ENDBRANCH  10  11
ENDBRANCH   8  10
ENDBRANCH   5   6
BRANCH   1  15
HETATM   15  N2  UNL     1     -42.451   1.325  -2.574  1.00  0.00    -0.379 N 
ATOM     16  H2  UNL     1     -42.185   1.289  -1.590  1.00  0.00     0.160 HD
BRANCH  15  17
HETATM   17  C2  UNL     1     -41.648   2.104  -3.444  1.00  0.00     0.171 C 
HETATM   18  N1  UNL     1     -41.579   3.387  -3.317  1.00  0.00    -0.391 N 
HETATM   19  C1  UNL     1     -42.313   4.106  -2.285  1.00  0.00     0.147 C 
ATOM     20  H1  UNL     1     -40.989   3.914  -3.962  1.00  0.00     0.159 HD
ENDBRANCH  15  17
ENDBRANCH   1  15
BRANCH   4  21
HETATM   21  N4  UNL     1     -42.377  -1.313  -0.800  1.00  0.00    -0.074 N 
ATOM     22  H43 UNL     1     -42.598  -1.554   0.166  1.00  0.00     0.274 HD
ATOM     23  H42 UNL     1     -41.740  -2.079  -1.014  1.00  0.00     0.274 HD
ATOM     24  H41 UNL     1     -41.906  -0.410  -0.859  1.00  0.00     0.274 HD
ENDBRANCH   4  21
BRANCH   2  25
HETATM   25  N3  UNL     1     -44.964   1.932  -1.430  1.00  0.00    -0.073 N 
ATOM     26  H33 UNL     1     -44.801   1.865  -0.425  1.00  0.00     0.274 HD
ATOM     27  H32 UNL     1     -44.216   2.576  -1.686  1.00  0.00     0.274 HD
ATOM     28  H31 UNL     1     -45.874   2.354  -1.614  1.00  0.00     0.274 HD
ENDBRANCH   2  25
TORSDOF 8
ENDMDL
MODEL 2
REMARK VINA RESULT: -7.536310378      1.037      1.088
REMARK  8 active torsions:
REMARK  status: ('A' for Active; 'I' for Inactive)
REMARK    1  A    between atoms: C2_4  and  N2_5 
REMARK    2  A    between atoms: N2_5  and  C3_7 
REMARK    3  A    between atoms: C4_8  and  N3_9 
REMARK    4  A    between atoms: C6_14  and  N4_15 
REMARK    5  A    between atoms: C7_19  and  C8_20 
REMARK       I    between atoms: C8_20  and  N5_22 
REMARK    6  A    between atoms: N5_22  and  C9_24 
REMARK    7  A    between atoms: C9_24  and  C10_25 
REMARK    8  A    between atoms: C10_25  and  C11_26 
ROOT
HETATM    1  C3  UNL     1     -43.588   0.990  -3.241  1.00  0.00     0.127 C 
HETATM    2  C4  UNL     1     -44.877   0.875  -2.558  1.00  0.00     0.209 C 
HETATM    3  C5  UNL     1     -44.893  -0.374  -1.776  1.00  0.00     0.068 C 
HETATM    4  C6  UNL     1     -43.680  -1.133  -2.229  1.00  0.00     0.200 C 
HETATM    5  C7  UNL     1     -43.128  -0.425  -3.429  1.00  0.00     0.133 C 
ENDROOT
BRANCH   5   6
HETATM    6  C8  UNL     1     -43.529  -1.025  -4.702  1.00  0.00     0.225 C 
HETATM    7  O1  UNL     1     -42.815  -1.984  -5.157  1.00  0.00    -0.273 OA
HETATM    8  N5  UNL     1     -44.638  -0.643  -5.486  1.00  0.00    -0.360 N 
ATOM      9  H5  UNL     1     -45.230   0.115  -5.146  1.00  0.00     0.162 HD
BRANCH   8  10
HETATM   10  C9  UNL     1     -44.978  -1.259  -6.729  1.00  0.00     0.131 C 
BRANCH  10  11
HETATM   11  C10 UNL     1     -46.319  -1.899  -6.799  1.00  0.00     0.119 C 
BRANCH  11  12
HETATM   12  C11 UNL     1     -46.195  -3.294  -6.251  1.00  0.00     0.232 C 
HETATM   13  N6  UNL     1     -46.933  -4.327  -6.889  1.00  0.00    -0.062 NA
HETATM   14  O2  UNL     1     -45.470  -3.534  -5.270  1.00  0.00    -0.277 OA
ENDBRANCH  11  12
ENDBRANCH  10  11
ENDBRANCH   8  10
ENDBRANCH   5   6
BRANCH   1  15
HETATM   15  N2  UNL     1     -42.555   1.683  -2.523  1.00  0.00    -0.379 N 
ATOM     16  H2  UNL     1     -42.490   1.525  -1.518  1.00  0.00     0.160 HD
BRANCH  15  17
HETATM   17  C2  UNL     1     -41.620   2.571  -3.112  1.00  0.00     0.171 C 
HETATM   18  N1  UNL     1     -41.566   3.812  -2.760  1.00  0.00    -0.391 N 
HETATM   19  C1  UNL     1     -42.454   4.372  -1.750  1.00  0.00     0.147 C 
ATOM     20  H1  UNL     1     -40.879   4.421  -3.204  1.00  0.00     0.159 HD
ENDBRANCH  15  17
ENDBRANCH   1  15
BRANCH   4  21
HETATM   21  N4  UNL     1     -42.668  -1.199  -1.186  1.00  0.00    -0.074 N 
ATOM     22  H43 UNL     1     -43.066  -1.006  -0.268  1.00  0.00     0.274 HD
ATOM     23  H42 UNL     1     -42.359  -2.158  -1.027  1.00  0.00     0.274 HD
ATOM     24  H41 UNL     1     -41.880  -0.583  -1.387  1.00  0.00     0.274 HD
ENDBRANCH   4  21
BRANCH   2  25
HETATM   25  N3  UNL     1     -45.258   2.049  -1.782  1.00  0.00    -0.073 N 
ATOM     26  H33 UNL     1     -44.698   2.110  -0.931  1.00  0.00     0.274 HD
ATOM     27  H32 UNL     1     -44.953   2.900  -2.253  1.00  0.00     0.274 HD
ATOM     28  H31 UNL     1     -46.251   2.104  -1.557  1.00  0.00     0.274 HD
ENDBRANCH   2  25
TORSDOF 8
ENDMDL
MODEL 3
REMARK VINA RESULT: -6.998892107      2.493      6.022
REMARK  8 active torsions:
REMARK  status: ('A' for Active; 'I' for Inactive)
REMARK    1  A    between atoms: C2_4  and  N2_5 
REMARK    2  A    between atoms: N2_5  and  C3_7 
REMARK    3  A    between atoms: C4_8  and  N3_9 
REMARK    4  A    between atoms: C6_14  and  N4_15 
REMARK    5  A    between atoms: C7_19  and  C8_20 
REMARK       I    between atoms: C8_20  and  N5_22 
REMARK    6  A    between atoms: N5_22  and  C9_24 
REMARK    7  A    between atoms: C9_24  and  C10_25 
REMARK    8  A    between atoms: C10_25  and  C11_26 
ROOT
HETATM    1  C3  UNL     1     -43.453  -1.811  -4.268  1.00  0.00     0.127 C 
HETATM    2  C4  UNL     1     -43.740  -2.713  -3.151  1.00  0.00     0.209 C 
HETATM    3  C5  UNL     1     -44.942  -2.233  -2.446  1.00  0.00     0.068 C 
HETATM    4  C6  UNL     1     -45.204  -0.866  -3.010  1.00  0.00     0.200 C 
HETATM    5  C7  UNL     1     -44.019  -0.488  -3.845  1.00  0.00     0.133 C 
ENDROOT
BRANCH   5   6
HETATM    6  C8  UNL     1     -43.066   0.381  -3.153  1.00  0.00     0.225 C 
HETATM    7  O1  UNL     1     -42.707   0.047  -1.971  1.00  0.00    -0.273 OA
HETATM    8  N5  UNL     1     -42.498   1.566  -3.668  1.00  0.00    -0.360 N 
ATOM      9  H5  UNL     1     -42.761   1.855  -4.610  1.00  0.00     0.162 HD
BRANCH   8  10
HETATM   10  C9  UNL     1     -41.577   2.382  -2.943  1.00  0.00     0.131 C 
BRANCH  10  11
HETATM   11  C10 UNL     1     -41.899   3.833  -2.876  1.00  0.00     0.119 C 
BRANCH  11  12
HETATM   12  C11 UNL     1     -42.997   4.018  -1.866  1.00  0.00     0.232 C 
HETATM   13  N6  UNL     1     -42.726   4.820  -0.726  1.00  0.00    -0.062 NA
HETATM   14  O2  UNL     1     -44.109   3.483  -2.025  1.00  0.00    -0.277 OA
ENDBRANCH  11  12
ENDBRANCH  10  11
ENDBRANCH   8  10
ENDBRANCH   5   6
BRANCH   1  15
HETATM   15  N2  UNL     1     -44.060  -2.152  -5.524  1.00  0.00    -0.379 N 
ATOM     16  H2  UNL     1     -44.251  -3.138  -5.705  1.00  0.00     0.160 HD
BRANCH  15  17
HETATM   17  C2  UNL     1     -44.412  -1.218  -6.530  1.00  0.00     0.171 C 
HETATM   18  N1  UNL     1     -45.523  -1.325  -7.180  1.00  0.00    -0.391 N 
HETATM   19  C1  UNL     1     -46.472  -2.401  -6.924  1.00  0.00     0.147 C 
ATOM     20  H1  UNL     1     -45.743  -0.633  -7.896  1.00  0.00     0.159 HD
ENDBRANCH  15  17
ENDBRANCH   1  15
BRANCH   4  21
HETATM   21  N4  UNL     1     -46.409  -0.845  -3.826  1.00  0.00    -0.074 N 
ATOM     22  H43 UNL     1     -47.161  -1.381  -3.394  1.00  0.00     0.274 HD
ATOM     23  H42 UNL     1     -46.846   0.076  -3.821  1.00  0.00     0.274 HD
ATOM     24  H41 UNL     1     -46.225  -1.164  -4.777  1.00  0.00     0.274 HD
ENDBRANCH   4  21
BRANCH   2  25
HETATM   25  N3  UNL     1     -43.806  -4.123  -3.514  1.00  0.00    -0.073 N 
ATOM     26  H33 UNL     1     -42.889  -4.458  -3.808  1.00  0.00     0.274 HD
ATOM     27  H32 UNL     1     -43.944  -4.697  -2.682  1.00  0.00     0.274 HD
ATOM     28  H31 UNL     1     -44.508  -4.346  -4.220  1.00  0.00     0.274 HD
ENDBRANCH   2  25
TORSDOF 8
ENDMDL
MODEL 4
REMARK VINA RESULT: -6.940712009      2.360      6.116
REMARK  8 active torsions:
REMARK  status: ('A' for Active; 'I' for Inactive)
REMARK    1  A    between atoms: C2_4  and  N2_5 
REMARK    2  A    between atoms: N2_5  and  C3_7 
REMARK    3  A    between atoms: C4_8  and  N3_9 
REMARK    4  A    between atoms: C6_14  and  N4_15 
REMARK    5  A    between atoms: C7_19  and  C8_20 
REMARK       I    between atoms: C8_20  and  N5_22 
REMARK    6  A    between atoms: N5_22  and  C9_24 
REMARK    7  A    between atoms: C9_24  and  C10_25 
REMARK    8  A    between atoms: C10_25  and  C11_26 
ROOT
HETATM    1  C3  UNL     1     -45.000  -1.411  -4.239  1.00  0.00     0.127 C 
HETATM    2  C4  UNL     1     -43.622  -1.617  -4.689  1.00  0.00     0.209 C 
HETATM    3  C5  UNL     1     -43.006  -2.677  -3.871  1.00  0.00     0.068 C 
HETATM    4  C6  UNL     1     -43.969  -2.907  -2.742  1.00  0.00     0.200 C 
HETATM    5  C7  UNL     1     -44.994  -1.816  -2.795  1.00  0.00     0.133 C 
ENDROOT
BRANCH   5   6
HETATM    6  C8  UNL     1     -44.732  -0.718  -1.863  1.00  0.00     0.225 C 
HETATM    7  O1  UNL     1     -44.226  -1.013  -0.726  1.00  0.00    -0.273 OA
HETATM    8  N5  UNL     1     -44.989   0.649  -2.099  1.00  0.00    -0.360 N 
ATOM      9  H5  UNL     1     -45.388   0.916  -2.999  1.00  0.00     0.162 HD
BRANCH   8  10
HETATM   10  C9  UNL     1     -44.722   1.681  -1.147  1.00  0.00     0.131 C 
BRANCH  10  11
HETATM   11  C10 UNL     1     -44.525   3.048  -1.698  1.00  0.00     0.119 C 
BRANCH  11  12
HETATM   12  C11 UNL     1     -43.169   3.095  -2.346  1.00  0.00     0.232 C 
HETATM   13  N6  UNL     1     -42.541   4.361  -2.484  1.00  0.00    -0.062 NA
HETATM   14  O2  UNL     1     -42.616   2.057  -2.750  1.00  0.00    -0.277 OA
ENDBRANCH  11  12
ENDBRANCH  10  11
ENDBRANCH   8  10
ENDBRANCH   5   6
BRANCH   1  15
HETATM   15  N2  UNL     1     -46.002  -2.200  -4.899  1.00  0.00    -0.379 N 
ATOM     16  H2  UNL     1     -46.178  -3.138  -4.540  1.00  0.00     0.160 HD
BRANCH  15  17
HETATM   17  C2  UNL     1     -46.764  -1.770  -6.014  1.00  0.00     0.171 C 
HETATM   18  N1  UNL     1     -46.946  -2.539  -7.035  1.00  0.00    -0.391 N 
HETATM   19  C1  UNL     1     -46.385  -3.882  -7.105  1.00  0.00     0.147 C 
ATOM     20  H1  UNL     1     -47.501  -2.195  -7.818  1.00  0.00     0.159 HD
ENDBRANCH  15  17
ENDBRANCH   1  15
BRANCH   4  21
HETATM   21  N4  UNL     1     -44.623  -4.203  -2.851  1.00  0.00    -0.074 N 
ATOM     22  H43 UNL     1     -44.111  -4.922  -2.341  1.00  0.00     0.274 HD
ATOM     23  H42 UNL     1     -45.496  -4.225  -2.324  1.00  0.00     0.274 HD
ATOM     24  H41 UNL     1     -44.769  -4.470  -3.824  1.00  0.00     0.274 HD
ENDBRANCH   4  21
BRANCH   2  25
HETATM   25  N3  UNL     1     -43.480  -1.836  -6.123  1.00  0.00    -0.073 N 
ATOM     26  H33 UNL     1     -43.925  -1.079  -6.644  1.00  0.00     0.274 HD
ATOM     27  H32 UNL     1     -42.511  -1.699  -6.409  1.00  0.00     0.274 HD
ATOM     28  H31 UNL     1     -43.823  -2.739  -6.449  1.00  0.00     0.274 HD
ENDBRANCH   2  25
TORSDOF 8
ENDMDL
MODEL 5
REMARK VINA RESULT: -6.790826194      1.429      1.708
REMARK  8 active torsions:
REMARK  status: ('A' for Active; 'I' for Inactive)
REMARK    1  A    between atoms: C2_4  and  N2_5 
REMARK    2  A    between atoms: N2_5  and  C3_7 
REMARK    3  A    between atoms: C4_8  and  N3_9 
REMARK    4  A    between atoms: C6_14  and  N4_15 
REMARK    5  A    between atoms: C7_19  and  C8_20 
REMARK       I    between atoms: C8_20  and  N5_22 
REMARK    6  A    between atoms: N5_22  and  C9_24 
REMARK    7  A    between atoms: C9_24  and  C10_25 
REMARK    8  A    between atoms: C10_25  and  C11_26 
ROOT
HETATM    1  C3  UNL     1     -43.997   0.570  -2.730  1.00  0.00     0.127 C 
HETATM    2  C4  UNL     1     -44.906   0.791  -1.604  1.00  0.00     0.209 C 
HETATM    3  C5  UNL     1     -44.733  -0.300  -0.630  1.00  0.00     0.068 C 
HETATM    4  C6  UNL     1     -43.889  -1.322  -1.335  1.00  0.00     0.200 C 
HETATM    5  C7  UNL     1     -43.798  -0.915  -2.774  1.00  0.00     0.133 C 
ENDROOT
BRANCH   5   6
HETATM    6  C8  UNL     1     -44.737  -1.623  -3.646  1.00  0.00     0.225 C 
HETATM    7  O1  UNL     1     -44.860  -2.886  -3.484  1.00  0.00    -0.273 OA
HETATM    8  N5  UNL     1     -45.527  -1.041  -4.660  1.00  0.00    -0.360 N 
ATOM      9  H5  UNL     1     -45.454  -0.035  -4.809  1.00  0.00     0.162 HD
BRANCH   8  10
HETATM   10  C9  UNL     1     -46.422  -1.783  -5.490  1.00  0.00     0.131 C 
BRANCH  10  11
HETATM   11  C10 UNL     1     -45.872  -2.261  -6.786  1.00  0.00     0.119 C 
BRANCH  11  12
HETATM   12  C11 UNL     1     -44.492  -1.686  -6.943  1.00  0.00     0.232 C 
HETATM   13  N6  UNL     1     -44.355  -0.471  -7.666  1.00  0.00    -0.062 NA
HETATM   14  O2  UNL     1     -43.501  -2.258  -6.455  1.00  0.00    -0.277 OA
ENDBRANCH  11  12
ENDBRANCH  10  11
ENDBRANCH   8  10
ENDBRANCH   5   6
BRANCH   1  15
HETATM   15  N2  UNL     1     -42.697   1.171  -2.617  1.00  0.00    -0.379 N 
ATOM     16  H2  UNL     1     -42.213   1.088  -1.723  1.00  0.00     0.160 HD
BRANCH  15  17
HETATM   17  C2  UNL     1     -42.039   1.872  -3.658  1.00  0.00     0.171 C 
HETATM   18  N1  UNL     1     -41.789   3.135  -3.557  1.00  0.00    -0.391 N 
HETATM   19  C1  UNL     1     -42.164   3.910  -2.382  1.00  0.00     0.147 C 
ATOM     20  H1  UNL     1     -41.312   3.606  -4.326  1.00  0.00     0.159 HD
ENDBRANCH  15  17
ENDBRANCH   1  15
BRANCH   4  21
HETATM   21  N4  UNL     1     -42.555  -1.406  -0.761  1.00  0.00    -0.074 N 
ATOM     22  H43 UNL     1     -41.877  -1.743  -1.443  1.00  0.00     0.274 HD
ATOM     23  H42 UNL     1     -42.164  -0.480  -0.591  1.00  0.00     0.274 HD
ATOM     24  H41 UNL     1     -42.545  -1.975   0.086  1.00  0.00     0.274 HD
ENDBRANCH   4  21
BRANCH   2  25
HETATM   25  N3  UNL     1     -44.820   2.119  -1.009  1.00  0.00    -0.073 N 
ATOM     26  H33 UNL     1     -45.584   2.708  -1.340  1.00  0.00     0.274 HD
ATOM     27  H32 UNL     1     -45.048   2.078  -0.016  1.00  0.00     0.274 HD
ATOM     28  H31 UNL     1     -43.925   2.588  -1.148  1.00  0.00     0.274 HD
ENDBRANCH   2  25
TORSDOF 8
ENDMDL
