MODEL 1
REMARK VINA RESULT: -6.873158377      0.000      0.000
REMARK  2 active torsions:
REMARK  status: ('A' for Active; 'I' for Inactive)
REMARK    1  A    between atoms: C6_7  and  N1_8 
REMARK    2  A    between atoms: C13_15  and  O2_16 
ROOT
HETATM    1  C1  UNL     1      49.390  73.621  61.769  1.00  0.00     0.046 C 
HETATM    2  C2  UNL     1      48.111  72.871  61.368  1.00  0.00     0.058 C 
HETATM    3  C3  UNL     1      48.207  72.622  59.883  1.00  0.00     0.046 C 
HETATM    4  O1  UNL     1      47.003  73.673  61.636  1.00  0.00    -0.380 OA
HETATM    5  C4  UNL     1      46.249  73.004  62.620  1.00  0.00     0.176 C 
HETATM    6  C5  UNL     1      46.513  71.632  62.373  1.00  0.00     0.042 C 
HETATM    7  C6  UNL     1      46.175  70.417  63.017  1.00  0.00     0.118 C 
HETATM    8  C13 UNL     1      47.185  69.457  62.335  1.00  0.00     0.142 C 
HETATM    9  C14 UNL     1      48.123  70.340  61.490  1.00  0.00     0.042 C 
HETATM   10  C15 UNL     1      48.040  71.649  62.192  1.00  0.00     0.030 C 
ENDROOT
BRANCH   7  11
HETATM   11  N1  UNL     1      46.219  70.149  64.391  1.00  0.00    -0.385 N 
HETATM   12  C7  UNL     1      47.187  70.807  65.099  1.00  0.00     0.059 C 
HETATM   13  C8  UNL     1      48.107  70.235  66.108  1.00  0.00     0.055 C 
HETATM   14  C9  UNL     1      47.395  69.274  67.119  1.00  0.00     0.085 C 
HETATM   15  C10 UNL     1      46.075  69.147  66.668  1.00  0.00    -0.181 C 
HETATM   16  C11 UNL     1      44.793  69.077  66.086  1.00  0.00     0.099 C 
HETATM   17  C12 UNL     1      44.865  70.083  64.874  1.00  0.00     0.133 C 
ENDBRANCH   7  11
BRANCH   8  18
HETATM   18  O2  UNL     1      46.581  68.615  61.429  1.00  0.00    -0.393 OA
ATOM     19  H2  UNL     1      46.571  67.712  61.725  1.00  0.00     0.210 HD
ENDBRANCH   8  18
TORSDOF 2
ENDMDL
MODEL 2
REMARK VINA RESULT: -6.792569925      2.072      5.470
REMARK  2 active torsions:
REMARK  status: ('A' for Active; 'I' for Inactive)
REMARK    1  A    between atoms: C6_7  and  N1_8 
REMARK    2  A    between atoms: C13_15  and  O2_16 
ROOT
HETATM    1  C1  UNL     1      43.843  69.724  67.842  1.00  0.00     0.046 C 
HETATM    2  C2  UNL     1      44.893  69.059  66.941  1.00  0.00     0.058 C 
HETATM    3  C3  UNL     1      44.441  67.636  66.733  1.00  0.00     0.046 C 
HETATM    4  O1  UNL     1      46.128  69.067  67.590  1.00  0.00    -0.380 OA
HETATM    5  C4  UNL     1      46.987  69.868  66.813  1.00  0.00     0.176 C 
HETATM    6  C5  UNL     1      46.501  69.700  65.491  1.00  0.00     0.042 C 
HETATM    7  C6  UNL     1      46.813  70.268  64.231  1.00  0.00     0.118 C 
HETATM    8  C13 UNL     1      45.561  69.838  63.421  1.00  0.00     0.142 C 
HETATM    9  C14 UNL     1      44.582  69.210  64.432  1.00  0.00     0.042 C 
HETATM   10  C15 UNL     1      44.987  69.861  65.707  1.00  0.00     0.030 C 
ENDROOT
BRANCH   7  11
HETATM   11  N1  UNL     1      47.038  71.621  63.947  1.00  0.00    -0.385 N 
HETATM   12  C7  UNL     1      46.462  72.097  62.801  1.00  0.00     0.059 C 
HETATM   13  C8  UNL     1      47.094  72.941  61.762  1.00  0.00     0.055 C 
HETATM   14  C9  UNL     1      47.941  74.118  62.353  1.00  0.00     0.085 C 
HETATM   15  C10 UNL     1      47.944  73.934  63.742  1.00  0.00    -0.181 C 
HETATM   16  C11 UNL     1      47.897  73.610  65.113  1.00  0.00     0.099 C 
HETATM   17  C12 UNL     1      46.944  72.356  65.181  1.00  0.00     0.133 C 
ENDBRANCH   7  11
BRANCH   8  18
HETATM   18  O2  UNL     1      45.837  68.830  62.524  1.00  0.00    -0.393 OA
ATOM     19  H2  UNL     1      45.669  69.089  61.625  1.00  0.00     0.210 HD
ENDBRANCH   8  18
TORSDOF 2
ENDMDL
MODEL 3
REMARK VINA RESULT: -6.777663690      1.997      3.210
REMARK  2 active torsions:
REMARK  status: ('A' for Active; 'I' for Inactive)
REMARK    1  A    between atoms: C6_7  and  N1_8 
REMARK    2  A    between atoms: C13_15  and  O2_16 
ROOT
HETATM    1  C1  UNL     1      45.999  73.497  62.392  1.00  0.00     0.046 C 
HETATM    2  C2  UNL     1      47.200  72.703  62.926  1.00  0.00     0.058 C 
HETATM    3  C3  UNL     1      48.394  73.619  62.839  1.00  0.00     0.046 C 
HETATM    4  O1  UNL     1      47.408  71.586  62.117  1.00  0.00    -0.380 OA
HETATM    5  C4  UNL     1      47.192  70.455  62.927  1.00  0.00     0.176 C 
HETATM    6  C5  UNL     1      47.564  70.892  64.224  1.00  0.00     0.042 C 
HETATM    7  C6  UNL     1      47.518  70.327  65.522  1.00  0.00     0.118 C 
HETATM    8  C13 UNL     1      47.730  71.600  66.382  1.00  0.00     0.142 C 
HETATM    9  C14 UNL     1      47.685  72.795  65.410  1.00  0.00     0.042 C 
HETATM   10  C15 UNL     1      46.863  72.259  64.292  1.00  0.00     0.030 C 
ENDROOT
BRANCH   7  11
HETATM   11  N1  UNL     1      46.455  69.618  66.097  1.00  0.00    -0.385 N 
HETATM   12  C7  UNL     1      46.746  68.925  67.241  1.00  0.00     0.059 C 
HETATM   13  C8  UNL     1      46.364  67.533  67.568  1.00  0.00     0.055 C 
HETATM   14  C9  UNL     1      44.875  67.201  67.216  1.00  0.00     0.085 C 
HETATM   15  C10 UNL     1      44.371  68.331  66.559  1.00  0.00    -0.181 C 
HETATM   16  C11 UNL     1      44.006  69.512  65.882  1.00  0.00     0.099 C 
HETATM   17  C12 UNL     1      45.275  70.439  66.010  1.00  0.00     0.133 C 
ENDBRANCH   7  11
BRANCH   8  18
HETATM   18  O2  UNL     1      48.985  71.650  66.945  1.00  0.00    -0.393 OA
ATOM     19  H2  UNL     1      49.350  70.786  67.095  1.00  0.00     0.210 HD
ENDBRANCH   8  18
TORSDOF 2
ENDMDL
MODEL 4
REMARK VINA RESULT: -6.258858440      1.827      5.497
REMARK  2 active torsions:
REMARK  status: ('A' for Active; 'I' for Inactive)
REMARK    1  A    between atoms: C6_7  and  N1_8 
REMARK    2  A    between atoms: C13_15  and  O2_16 
ROOT
HETATM    1  C1  UNL     1      47.863  69.904  65.933  1.00  0.00     0.046 C 
HETATM    2  C2  UNL     1      46.777  70.586  65.088  1.00  0.00     0.058 C 
HETATM    3  C3  UNL     1      45.922  71.377  66.046  1.00  0.00     0.046 C 
HETATM    4  O1  UNL     1      46.000  69.612  64.464  1.00  0.00    -0.380 OA
HETATM    5  C4  UNL     1      46.191  69.769  63.078  1.00  0.00     0.176 C 
HETATM    6  C5  UNL     1      46.449  71.156  62.928  1.00  0.00     0.042 C 
HETATM    7  C6  UNL     1      46.816  71.994  61.847  1.00  0.00     0.118 C 
HETATM    8  C13 UNL     1      47.278  73.255  62.624  1.00  0.00     0.142 C 
HETATM    9  C14 UNL     1      47.278  72.871  64.116  1.00  0.00     0.042 C 
HETATM   10  C15 UNL     1      47.460  71.396  64.061  1.00  0.00     0.030 C 
ENDROOT
BRANCH   7  11
HETATM   11  N1  UNL     1      47.788  71.737  60.871  1.00  0.00    -0.385 N 
HETATM   12  C7  UNL     1      49.015  72.304  61.083  1.00  0.00     0.059 C 
HETATM   13  C8  UNL     1      49.848  73.033  60.101  1.00  0.00     0.055 C 
HETATM   14  C9  UNL     1      49.923  72.325  58.706  1.00  0.00     0.085 C 
HETATM   15  C10 UNL     1      49.043  71.237  58.777  1.00  0.00    -0.181 C 
HETATM   16  C11 UNL     1      48.102  70.205  58.971  1.00  0.00     0.099 C 
HETATM   17  C12 UNL     1      47.669  70.357  60.479  1.00  0.00     0.133 C 
ENDBRANCH   7  11
BRANCH   8  18
HETATM   18  O2  UNL     1      46.377  74.291  62.526  1.00  0.00    -0.393 OA
ATOM     19  H2  UNL     1      46.377  74.846  63.298  1.00  0.00     0.210 HD
ENDBRANCH   8  18
TORSDOF 2
ENDMDL
MODEL 5
REMARK VINA RESULT: -6.236805212      2.141      5.356
REMARK  2 active torsions:
REMARK  status: ('A' for Active; 'I' for Inactive)
REMARK    1  A    between atoms: C6_7  and  N1_8 
REMARK    2  A    between atoms: C13_15  and  O2_16 
ROOT
HETATM    1  C1  UNL     1      44.408  70.678  65.558  1.00  0.00     0.046 C 
HETATM    2  C2  UNL     1      45.923  70.593  65.325  1.00  0.00     0.058 C 
HETATM    3  C3  UNL     1      46.335  69.186  65.683  1.00  0.00     0.046 C 
HETATM    4  O1  UNL     1      46.571  71.497  66.166  1.00  0.00    -0.380 OA
HETATM    5  C4  UNL     1      47.203  72.441  65.334  1.00  0.00     0.176 C 
HETATM    6  C5  UNL     1      47.502  71.708  64.157  1.00  0.00     0.042 C 
HETATM    7  C6  UNL     1      48.041  72.030  62.887  1.00  0.00     0.118 C 
HETATM    8  C13 UNL     1      47.649  70.756  62.094  1.00  0.00     0.142 C 
HETATM    9  C14 UNL     1      46.742  69.926  63.022  1.00  0.00     0.042 C 
HETATM   10  C15 UNL     1      46.175  70.968  63.921  1.00  0.00     0.030 C 
ENDROOT
BRANCH   7  11
HETATM   11  N1  UNL     1      47.711  73.129  62.084  1.00  0.00    -0.385 N 
HETATM   12  C7  UNL     1      47.902  72.967  60.739  1.00  0.00     0.059 C 
HETATM   13  C8  UNL     1      48.548  73.916  59.804  1.00  0.00     0.055 C 
HETATM   14  C9  UNL     1      48.088  75.398  60.010  1.00  0.00     0.085 C 
HETATM   15  C10 UNL     1      47.264  75.393  61.143  1.00  0.00    -0.181 C 
HETATM   16  C11 UNL     1      46.489  75.252  62.313  1.00  0.00     0.099 C 
HETATM   17  C12 UNL     1      46.492  73.701  62.593  1.00  0.00     0.133 C 
ENDBRANCH   7  11
BRANCH   8  18
HETATM   18  O2  UNL     1      48.731  69.943  61.839  1.00  0.00    -0.393 OA
ATOM     19  H2  UNL     1      48.663  69.101  62.276  1.00  0.00     0.210 HD
ENDBRANCH   8  18
TORSDOF 2
ENDMDL
