MODEL 1
REMARK VINA RESULT: -4.319852321      0.000      0.000
REMARK  10 active torsions:
REMARK  status: ('A' for Active; 'I' for Inactive)
REMARK    1  A    between atoms: C2_2  and  C3_3 
REMARK    2  A    between atoms: C3_3  and  C5_5 
REMARK    3  A    between atoms: C7_10  and  C8_11 
REMARK    4  A    between atoms: C8_11  and  C9_12 
REMARK    5  A    between atoms: C13_19  and  C14_20 
REMARK    6  A    between atoms: C14_20  and  C15_21 
REMARK    7  A    between atoms: C25_36  and  C26_37 
REMARK    8  A    between atoms: C26_37  and  C27_38 
REMARK    9  A    between atoms: C28_41  and  C29_42 
REMARK   10  A    between atoms: C29_42  and  C31_44 
ROOT
HETATM    1  C5  UNL     1       9.218  13.126  15.716  1.00  0.00     0.180 C 
HETATM    2  N1  UNL     1       8.068  13.621  16.441  1.00  0.00    -0.346 N 
ATOM      3  H1  UNL     1       8.106  13.617  17.460  1.00  0.00     0.163 HD
HETATM    4  C6  UNL     1       6.886  14.116  15.817  1.00  0.00     0.241 C 
HETATM    5  O1  UNL     1       6.321  15.124  16.332  1.00  0.00    -0.271 OA
HETATM    6  C7  UNL     1       6.302  13.513  14.613  1.00  0.00     0.177 C 
HETATM    7  N2  UNL     1       5.491  14.511  13.918  1.00  0.00    -0.346 N 
ATOM      8  H2  UNL     1       4.924  15.143  14.485  1.00  0.00     0.163 HD
HETATM    9  C12 UNL     1       5.440  14.657  12.540  1.00  0.00     0.241 C 
HETATM   10  O2  UNL     1       4.289  14.720  11.982  1.00  0.00    -0.271 OA
HETATM   11  C13 UNL     1       6.608  14.751  11.617  1.00  0.00     0.177 C 
HETATM   12  N3  UNL     1       6.920  16.138  11.360  1.00  0.00    -0.346 N 
ATOM     13  H3  UNL     1       6.138  16.793  11.378  1.00  0.00     0.163 HD
HETATM   14  C18 UNL     1       8.199  16.684  11.085  1.00  0.00     0.241 C 
HETATM   15  O3  UNL     1       8.500  17.726  11.732  1.00  0.00    -0.271 OA
HETATM   16  C19 UNL     1       9.181  16.175  10.148  1.00  0.00     0.179 C 
HETATM   17  C20 UNL     1      10.093  17.266   9.573  1.00  0.00     0.035 C 
HETATM   18  C21 UNL     1      11.206  16.624   8.773  1.00  0.00     0.004 C 
HETATM   19  C22 UNL     1      10.926  15.223   8.345  1.00  0.00     0.020 C 
HETATM   20  C23 UNL     1      10.502  14.299   9.432  1.00  0.00     0.127 C 
HETATM   21  N4  UNL     1      10.084  15.144  10.590  1.00  0.00    -0.338 N 
HETATM   22  C24 UNL     1      10.574  14.872  11.868  1.00  0.00     0.227 C 
HETATM   23  O4  UNL     1      10.489  13.641  12.231  1.00  0.00    -0.273 OA
HETATM   24  C25 UNL     1      11.180  15.762  12.880  1.00  0.00     0.111 C 
HETATM   25  C28 UNL     1      10.514  15.712  14.231  1.00  0.00     0.101 C 
HETATM   26  N5  UNL     1      11.109  14.792  15.156  1.00  0.00    -0.353 N 
ATOM     27  H5  UNL     1      12.126  14.814  15.217  1.00  0.00     0.163 HD
HETATM   28  C33 UNL     1      10.463  13.867  15.987  1.00  0.00     0.241 C 
HETATM   29  O7  UNL     1      11.007  13.625  17.121  1.00  0.00    -0.271 OA
ENDROOT
BRANCH   1  30
HETATM   30  C3  UNL     1       9.500  11.648  16.024  1.00  0.00     0.013 C 
HETATM   31  C4  UNL     1       9.263  10.748  14.859  1.00  0.00     0.012 C 
BRANCH  30  32
HETATM   32  C2  UNL     1       8.599  11.281  17.203  1.00  0.00     0.002 C 
HETATM   33  C1  UNL     1       8.064   9.874  17.050  1.00  0.00     0.005 C 
ENDBRANCH  30  32
ENDBRANCH   1  30
BRANCH   6  34
HETATM   34  C8  UNL     1       5.570  12.269  14.876  1.00  0.00     0.038 C 
BRANCH  34  35
HETATM   35  C9  UNL     1       5.648  11.133  13.936  1.00  0.00    -0.020 C 
HETATM   36  C10 UNL     1       5.281   9.879  14.785  1.00  0.00     0.009 C 
HETATM   37  C11 UNL     1       4.648  11.125  12.812  1.00  0.00     0.009 C 
ENDBRANCH  34  35
ENDBRANCH   6  34
BRANCH  25  38
HETATM   38  C29 UNL     1      10.436  17.079  14.874  1.00  0.00     0.005 C 
HETATM   39  C30 UNL     1      11.006  18.184  14.052  1.00  0.00     0.012 C 
BRANCH  38  40
HETATM   40  C31 UNL     1      11.101  17.109  16.229  1.00  0.00     0.002 C 
HETATM   41  C32 UNL     1      10.469  18.234  17.057  1.00  0.00     0.005 C 
ENDBRANCH  38  40
ENDBRANCH  25  38
BRANCH  24  42
HETATM   42  C26 UNL     1      12.620  15.330  13.068  1.00  0.00     0.129 C 
BRANCH  42  43
HETATM   43  C27 UNL     1      13.595  16.036  12.238  1.00  0.00     0.173 C 
HETATM   44  O5  UNL     1      14.148  17.121  12.541  1.00  0.00    -0.648 OA
HETATM   45  O6  UNL     1      13.975  15.499  10.995  1.00  0.00    -0.648 OA
ENDBRANCH  42  43
ENDBRANCH  24  42
BRANCH  11  46
HETATM   46  C14 UNL     1       6.200  14.074  10.324  1.00  0.00     0.038 C 
BRANCH  46  47
HETATM   47  C15 UNL     1       7.108  12.937   9.943  1.00  0.00    -0.020 C 
HETATM   48  C16 UNL     1       6.402  11.844   9.178  1.00  0.00     0.009 C 
HETATM   49  C17 UNL     1       7.753  12.327  11.196  1.00  0.00     0.009 C 
ENDBRANCH  46  47
ENDBRANCH  11  46
TORSDOF 10
ENDMDL
MODEL 2
REMARK VINA RESULT: -3.834891394      2.325      7.858
REMARK  10 active torsions:
REMARK  status: ('A' for Active; 'I' for Inactive)
REMARK    1  A    between atoms: C2_2  and  C3_3 
REMARK    2  A    between atoms: C3_3  and  C5_5 
REMARK    3  A    between atoms: C7_10  and  C8_11 
REMARK    4  A    between atoms: C8_11  and  C9_12 
REMARK    5  A    between atoms: C13_19  and  C14_20 
REMARK    6  A    between atoms: C14_20  and  C15_21 
REMARK    7  A    between atoms: C25_36  and  C26_37 
REMARK    8  A    between atoms: C26_37  and  C27_38 
REMARK    9  A    between atoms: C28_41  and  C29_42 
REMARK   10  A    between atoms: C29_42  and  C31_44 
ROOT
HETATM    1  C5  UNL     1      10.872  16.348  11.774  1.00  0.00     0.180 C 
HETATM    2  N1  UNL     1      10.525  17.737  11.979  1.00  0.00    -0.346 N 
ATOM      3  H1  UNL     1      10.428  18.333  11.157  1.00  0.00     0.163 HD
HETATM    4  C6  UNL     1      10.308  18.324  13.260  1.00  0.00     0.241 C 
HETATM    5  O1  UNL     1       9.374  19.169  13.375  1.00  0.00    -0.271 OA
HETATM    6  C7  UNL     1      11.114  17.991  14.441  1.00  0.00     0.177 C 
HETATM    7  N2  UNL     1      10.345  18.286  15.649  1.00  0.00    -0.346 N 
ATOM      8  H2  UNL     1       9.775  19.132  15.656  1.00  0.00     0.163 HD
HETATM    9  C12 UNL     1      10.339  17.492  16.786  1.00  0.00     0.241 C 
HETATM   10  O2  UNL     1      10.533  18.057  17.918  1.00  0.00    -0.271 OA
HETATM   11  C13 UNL     1      10.123  16.016  16.833  1.00  0.00     0.177 C 
HETATM   12  N3  UNL     1       8.733  15.731  17.101  1.00  0.00    -0.346 N 
ATOM     13  H3  UNL     1       8.229  16.411  17.670  1.00  0.00     0.163 HD
HETATM   14  C18 UNL     1       7.996  14.605  16.656  1.00  0.00     0.241 C 
HETATM   15  O3  UNL     1       6.862  14.855  16.160  1.00  0.00    -0.271 OA
HETATM   16  C19 UNL     1       8.406  13.216  16.715  1.00  0.00     0.179 C 
HETATM   17  C20 UNL     1       7.228  12.240  16.823  1.00  0.00     0.035 C 
HETATM   18  C21 UNL     1       7.733  10.821  16.671  1.00  0.00     0.004 C 
HETATM   19  C22 UNL     1       9.194  10.659  16.918  1.00  0.00     0.020 C 
HETATM   20  C23 UNL     1      10.075  11.581  16.151  1.00  0.00     0.127 C 
HETATM   21  N4  UNL     1       9.214  12.691  15.645  1.00  0.00    -0.338 N 
HETATM   22  C24 UNL     1       9.276  13.069  14.303  1.00  0.00     0.227 C 
HETATM   23  O4  UNL     1      10.463  13.255  13.844  1.00  0.00    -0.273 OA
HETATM   24  C25 UNL     1       8.203  13.290  13.311  1.00  0.00     0.111 C 
HETATM   25  C28 UNL     1       8.245  14.639  12.639  1.00  0.00     0.101 C 
HETATM   26  N5  UNL     1       8.955  14.662  11.394  1.00  0.00    -0.353 N 
ATOM     27  H5  UNL     1       8.747  13.902  10.746  1.00  0.00     0.163 HD
HETATM   28  C33 UNL     1       9.900  15.601  10.958  1.00  0.00     0.241 C 
HETATM   29  O7  UNL     1       9.935  15.849   9.701  1.00  0.00    -0.271 OA
ENDROOT
BRANCH   1  30
HETATM   30  C3  UNL     1      12.241  16.191  11.097  1.00  0.00     0.013 C 
HETATM   31  C4  UNL     1      12.401  14.892  10.384  1.00  0.00     0.012 C 
BRANCH  30  32
HETATM   32  C2  UNL     1      13.284  16.351  12.203  1.00  0.00     0.002 C 
HETATM   33  C1  UNL     1      14.559  15.620  11.847  1.00  0.00     0.005 C 
ENDBRANCH  30  32
ENDBRANCH   1  30
BRANCH   6  34
HETATM   34  C8  UNL     1      12.439  18.623  14.443  1.00  0.00     0.038 C 
BRANCH  34  35
HETATM   35  C9  UNL     1      12.663  19.910  13.755  1.00  0.00    -0.020 C 
HETATM   36  C10 UNL     1      12.419  20.998  14.843  1.00  0.00     0.009 C 
HETATM   37  C11 UNL     1      14.063  20.176  13.273  1.00  0.00     0.009 C 
ENDBRANCH  34  35
ENDBRANCH   6  34
BRANCH  25  38
HETATM   38  C29 UNL     1       6.860  15.211  12.430  1.00  0.00     0.005 C 
HETATM   39  C30 UNL     1       5.782  14.518  13.191  1.00  0.00     0.012 C 
BRANCH  38  40
HETATM   40  C31 UNL     1       6.468  15.231  10.972  1.00  0.00     0.002 C 
HETATM   41  C32 UNL     1       5.377  14.178  10.747  1.00  0.00     0.005 C 
ENDBRANCH  38  40
ENDBRANCH  25  38
BRANCH  24  42
HETATM   42  C26 UNL     1       8.352  12.240  12.231  1.00  0.00     0.129 C 
BRANCH  42  43
HETATM   43  C27 UNL     1       8.216  10.856  12.684  1.00  0.00     0.173 C 
HETATM   44  O5  UNL     1       7.171  10.355  13.167  1.00  0.00    -0.648 OA
HETATM   45  O6  UNL     1       9.311   9.979  12.594  1.00  0.00    -0.648 OA
ENDBRANCH  42  43
ENDBRANCH  24  42
BRANCH  11  46
HETATM   46  C14 UNL     1      10.979  15.485  17.965  1.00  0.00     0.038 C 
BRANCH  46  47
HETATM   47  C15 UNL     1      10.251  15.435  19.280  1.00  0.00    -0.020 C 
HETATM   48  C16 UNL     1      10.982  16.148  20.391  1.00  0.00     0.009 C 
HETATM   49  C17 UNL     1      10.010  13.979  19.701  1.00  0.00     0.009 C 
ENDBRANCH  46  47
ENDBRANCH  11  46
TORSDOF 10
ENDMDL
MODEL 3
REMARK VINA RESULT: -3.703620281      2.273      6.409
REMARK  10 active torsions:
REMARK  status: ('A' for Active; 'I' for Inactive)
REMARK    1  A    between atoms: C2_2  and  C3_3 
REMARK    2  A    between atoms: C3_3  and  C5_5 
REMARK    3  A    between atoms: C7_10  and  C8_11 
REMARK    4  A    between atoms: C8_11  and  C9_12 
REMARK    5  A    between atoms: C13_19  and  C14_20 
REMARK    6  A    between atoms: C14_20  and  C15_21 
REMARK    7  A    between atoms: C25_36  and  C26_37 
REMARK    8  A    between atoms: C26_37  and  C27_38 
REMARK    9  A    between atoms: C28_41  and  C29_42 
REMARK   10  A    between atoms: C29_42  and  C31_44 
ROOT
HETATM    1  C5  UNL     1       8.409  16.152  10.081  1.00  0.00     0.180 C 
HETATM    2  N1  UNL     1       8.750  15.335   8.936  1.00  0.00    -0.346 N 
ATOM      3  H1  UNL     1       9.153  15.797   8.121  1.00  0.00     0.163 HD
HETATM    4  C6  UNL     1       8.557  13.924   8.879  1.00  0.00     0.241 C 
HETATM    5  O1  UNL     1       9.447  13.227   8.312  1.00  0.00    -0.271 OA
HETATM    6  C7  UNL     1       7.383  13.251   9.447  1.00  0.00     0.177 C 
HETATM    7  N2  UNL     1       7.717  11.857   9.734  1.00  0.00    -0.346 N 
ATOM      8  H2  UNL     1       8.300  11.359   9.062  1.00  0.00     0.163 HD
HETATM    9  C12 UNL     1       7.292  11.167  10.859  1.00  0.00     0.241 C 
HETATM   10  O2  UNL     1       6.762  10.012  10.695  1.00  0.00    -0.271 OA
HETATM   11  C13 UNL     1       7.391  11.634  12.272  1.00  0.00     0.177 C 
HETATM   12  N3  UNL     1       8.590  11.107  12.881  1.00  0.00    -0.346 N 
ATOM     13  H3  UNL     1       8.913  10.199  12.544  1.00  0.00     0.163 HD
HETATM   14  C18 UNL     1       9.365  11.719  13.898  1.00  0.00     0.241 C 
HETATM   15  O3  UNL     1      10.613  11.729  13.703  1.00  0.00    -0.271 OA
HETATM   16  C19 UNL     1       8.877  12.323  15.122  1.00  0.00     0.179 C 
HETATM   17  C20 UNL     1       9.890  12.265  16.273  1.00  0.00     0.035 C 
HETATM   18  C21 UNL     1       9.382  13.092  17.435  1.00  0.00     0.004 C 
HETATM   19  C22 UNL     1       7.915  13.361  17.402  1.00  0.00     0.020 C 
HETATM   20  C23 UNL     1       7.401  13.931  16.128  1.00  0.00     0.127 C 
HETATM   21  N4  UNL     1       8.447  13.696  15.087  1.00  0.00    -0.338 N 
HETATM   22  C24 UNL     1       8.863  14.744  14.264  1.00  0.00     0.227 C 
HETATM   23  O4  UNL     1       7.912  15.416  13.718  1.00  0.00    -0.273 OA
HETATM   24  C25 UNL     1      10.218  15.216  13.913  1.00  0.00     0.111 C 
HETATM   25  C28 UNL     1      10.485  15.296  12.432  1.00  0.00     0.101 C 
HETATM   26  N5  UNL     1      10.239  16.583  11.850  1.00  0.00    -0.353 N 
ATOM     27  H5  UNL     1      10.607  17.384  12.363  1.00  0.00     0.163 HD
HETATM   28  C33 UNL     1       9.553  16.875  10.664  1.00  0.00     0.241 C 
HETATM   29  O7  UNL     1       9.958  17.889   9.993  1.00  0.00    -0.271 OA
ENDROOT
BRANCH   1  30
HETATM   30  C3  UNL     1       7.341  17.202   9.741  1.00  0.00     0.013 C 
HETATM   31  C4  UNL     1       6.053  16.986  10.460  1.00  0.00     0.012 C 
BRANCH  30  32
HETATM   32  C2  UNL     1       7.151  17.138   8.226  1.00  0.00     0.002 C 
HETATM   33  C1  UNL     1       5.844  17.786   7.823  1.00  0.00     0.005 C 
ENDBRANCH  30  32
ENDBRANCH   1  30
BRANCH   6  34
HETATM   34  C8  UNL     1       6.175  13.388   8.625  1.00  0.00     0.038 C 
BRANCH  34  35
HETATM   35  C9  UNL     1       4.854  13.600   9.253  1.00  0.00    -0.020 C 
HETATM   36  C10 UNL     1       4.048  14.446   8.222  1.00  0.00     0.009 C 
HETATM   37  C11 UNL     1       4.011  12.372   9.464  1.00  0.00     0.009 C 
ENDBRANCH  34  35
ENDBRANCH   6  34
BRANCH  25  38
HETATM   38  C29 UNL     1      11.891  14.857  12.086  1.00  0.00     0.005 C 
HETATM   39  C30 UNL     1      12.908  15.946  12.126  1.00  0.00     0.012 C 
BRANCH  38  40
HETATM   40  C31 UNL     1      11.962  14.197  10.730  1.00  0.00     0.002 C 
HETATM   41  C32 UNL     1      12.753  15.110   9.786  1.00  0.00     0.005 C 
ENDBRANCH  38  40
ENDBRANCH  25  38
BRANCH  24  42
HETATM   42  C26 UNL     1      10.379  16.612  14.479  1.00  0.00     0.129 C 
BRANCH  42  43
HETATM   43  C27 UNL     1      10.585  16.678  15.926  1.00  0.00     0.173 C 
HETATM   44  O5  UNL     1      10.006  17.477  16.701  1.00  0.00    -0.648 OA
HETATM   45  O6  UNL     1      11.493  15.799  16.544  1.00  0.00    -0.648 OA
ENDBRANCH  42  43
ENDBRANCH  24  42
BRANCH  11  46
HETATM   46  C14 UNL     1       6.174  11.095  12.997  1.00  0.00     0.038 C 
BRANCH  46  47
HETATM   47  C15 UNL     1       5.062  12.101  13.109  1.00  0.00    -0.020 C 
HETATM   48  C16 UNL     1       5.509  13.514  12.826  1.00  0.00     0.009 C 
HETATM   49  C17 UNL     1       4.436  12.051  14.511  1.00  0.00     0.009 C 
ENDBRANCH  46  47
ENDBRANCH  11  46
TORSDOF 10
ENDMDL
MODEL 4
REMARK VINA RESULT: -3.695184090      2.149      6.388
REMARK  10 active torsions:
REMARK  status: ('A' for Active; 'I' for Inactive)
REMARK    1  A    between atoms: C2_2  and  C3_3 
REMARK    2  A    between atoms: C3_3  and  C5_5 
REMARK    3  A    between atoms: C7_10  and  C8_11 
REMARK    4  A    between atoms: C8_11  and  C9_12 
REMARK    5  A    between atoms: C13_19  and  C14_20 
REMARK    6  A    between atoms: C14_20  and  C15_21 
REMARK    7  A    between atoms: C25_36  and  C26_37 
REMARK    8  A    between atoms: C26_37  and  C27_38 
REMARK    9  A    between atoms: C28_41  and  C29_42 
REMARK   10  A    between atoms: C29_42  and  C31_44 
ROOT
HETATM    1  C5  UNL     1       9.241  15.936  10.115  1.00  0.00     0.180 C 
HETATM    2  N1  UNL     1      10.058  15.086   9.277  1.00  0.00    -0.346 N 
ATOM      3  H1  UNL     1      10.454  15.488   8.427  1.00  0.00     0.163 HD
HETATM    4  C6  UNL     1      10.344  13.720   9.567  1.00  0.00     0.241 C 
HETATM    5  O1  UNL     1      11.509  13.293   9.320  1.00  0.00    -0.271 OA
HETATM    6  C7  UNL     1       9.355  12.797  10.136  1.00  0.00     0.177 C 
HETATM    7  N2  UNL     1      10.050  11.706  10.818  1.00  0.00    -0.346 N 
ATOM      8  H2  UNL     1      10.890  11.328  10.379  1.00  0.00     0.163 HD
HETATM    9  C12 UNL     1       9.642  11.150  12.021  1.00  0.00     0.241 C 
HETATM   10  O2  UNL     1       9.557   9.874  12.098  1.00  0.00    -0.271 OA
HETATM   11  C13 UNL     1       9.286  11.894  13.264  1.00  0.00     0.177 C 
HETATM   12  N3  UNL     1      10.434  11.970  14.137  1.00  0.00    -0.346 N 
ATOM     13  H3  UNL     1      11.094  11.193  14.093  1.00  0.00     0.163 HD
HETATM   14  C18 UNL     1      10.740  13.012  15.048  1.00  0.00     0.241 C 
HETATM   15  O3  UNL     1      11.931  13.433  15.018  1.00  0.00    -0.271 OA
HETATM   16  C19 UNL     1       9.838  13.631  15.999  1.00  0.00     0.179 C 
HETATM   17  C20 UNL     1      10.550  14.176  17.244  1.00  0.00     0.035 C 
HETATM   18  C21 UNL     1       9.571  14.978  18.075  1.00  0.00     0.004 C 
HETATM   19  C22 UNL     1       8.137  14.686  17.787  1.00  0.00     0.020 C 
HETATM   20  C23 UNL     1       7.748  14.764  16.353  1.00  0.00     0.127 C 
HETATM   21  N4  UNL     1       9.008  14.719  15.552  1.00  0.00    -0.338 N 
HETATM   22  C24 UNL     1       9.230  15.658  14.544  1.00  0.00     0.227 C 
HETATM   23  O4  UNL     1       8.251  15.817  13.724  1.00  0.00    -0.273 OA
HETATM   24  C25 UNL     1      10.405  16.507  14.257  1.00  0.00     0.111 C 
HETATM   25  C28 UNL     1      10.937  16.379  12.852  1.00  0.00     0.101 C 
HETATM   26  N5  UNL     1      10.420  17.345  11.928  1.00  0.00    -0.353 N 
ATOM     27  H5  UNL     1      10.395  18.310  12.256  1.00  0.00     0.163 HD
HETATM   28  C33 UNL     1       9.943  17.125  10.629  1.00  0.00     0.241 C 
HETATM   29  O7  UNL     1      10.133  18.060   9.774  1.00  0.00    -0.271 OA
ENDROOT
BRANCH   1  30
HETATM   30  C3  UNL     1       7.989  16.437   9.379  1.00  0.00     0.013 C 
HETATM   31  C4  UNL     1       6.715  16.016  10.029  1.00  0.00     0.012 C 
BRANCH  30  32
HETATM   32  C2  UNL     1       8.091  15.899   7.952  1.00  0.00     0.002 C 
HETATM   33  C1  UNL     1       6.853  16.251   7.157  1.00  0.00     0.005 C 
ENDBRANCH  30  32
ENDBRANCH   1  30
BRANCH   6  34
HETATM   34  C8  UNL     1       8.368  12.320   9.160  1.00  0.00     0.038 C 
BRANCH  34  35
HETATM   35  C9  UNL     1       6.939  12.221   9.519  1.00  0.00    -0.020 C 
HETATM   36  C10 UNL     1       6.170  12.680   8.243  1.00  0.00     0.009 C 
HETATM   37  C11 UNL     1       6.412  10.838   9.790  1.00  0.00     0.009 C 
ENDBRANCH  34  35
ENDBRANCH   6  34
BRANCH  25  38
HETATM   38  C29 UNL     1      12.449  16.419  12.815  1.00  0.00     0.005 C 
HETATM   39  C30 UNL     1      13.030  17.779  12.633  1.00  0.00     0.012 C 
BRANCH  38  40
HETATM   40  C31 UNL     1      13.014  15.519  11.743  1.00  0.00     0.002 C 
HETATM   41  C32 UNL     1      14.544  15.559  11.830  1.00  0.00     0.005 C 
ENDBRANCH  38  40
ENDBRANCH  25  38
BRANCH  24  42
HETATM   42  C26 UNL     1       9.987  17.950  14.454  1.00  0.00     0.129 C 
BRANCH  42  43
HETATM   43  C27 UNL     1      10.520  18.595  15.653  1.00  0.00     0.173 C 
HETATM   44  O5  UNL     1       9.982  18.568  16.786  1.00  0.00    -0.648 OA
HETATM   45  O6  UNL     1      11.727  19.314  15.583  1.00  0.00    -0.648 OA
ENDBRANCH  42  43
ENDBRANCH  24  42
BRANCH  11  46
HETATM   46  C14 UNL     1       8.182  11.109  13.943  1.00  0.00     0.038 C 
BRANCH  46  47
HETATM   47  C15 UNL     1       6.814  11.433  13.409  1.00  0.00    -0.020 C 
HETATM   48  C16 UNL     1       6.590  12.913  13.209  1.00  0.00     0.009 C 
HETATM   49  C17 UNL     1       5.731  10.892  14.353  1.00  0.00     0.009 C 
ENDBRANCH  46  47
ENDBRANCH  11  46
TORSDOF 10
ENDMDL
MODEL 5
REMARK VINA RESULT: -3.482761600      1.467      1.890
REMARK  10 active torsions:
REMARK  status: ('A' for Active; 'I' for Inactive)
REMARK    1  A    between atoms: C2_2  and  C3_3 
REMARK    2  A    between atoms: C3_3  and  C5_5 
REMARK    3  A    between atoms: C7_10  and  C8_11 
REMARK    4  A    between atoms: C8_11  and  C9_12 
REMARK    5  A    between atoms: C13_19  and  C14_20 
REMARK    6  A    between atoms: C14_20  and  C15_21 
REMARK    7  A    between atoms: C25_36  and  C26_37 
REMARK    8  A    between atoms: C26_37  and  C27_38 
REMARK    9  A    between atoms: C28_41  and  C29_42 
REMARK   10  A    between atoms: C29_42  and  C31_44 
ROOT
HETATM    1  C5  UNL     1       8.355  13.694  15.160  1.00  0.00     0.180 C 
HETATM    2  N1  UNL     1       7.037  14.273  15.310  1.00  0.00    -0.346 N 
ATOM      3  H1  UNL     1       6.778  14.645  16.223  1.00  0.00     0.163 HD
HETATM    4  C6  UNL     1       6.079  14.356  14.257  1.00  0.00     0.241 C 
HETATM    5  O1  UNL     1       5.376  15.404  14.177  1.00  0.00    -0.271 OA
HETATM    6  C7  UNL     1       5.878  13.289  13.270  1.00  0.00     0.177 C 
HETATM    7  N2  UNL     1       5.289  13.857  12.058  1.00  0.00    -0.346 N 
ATOM      8  H2  UNL     1       4.574  14.576  12.168  1.00  0.00     0.163 HD
HETATM    9  C12 UNL     1       5.637  13.483  10.769  1.00  0.00     0.241 C 
HETATM   10  O2  UNL     1       4.697  13.196   9.948  1.00  0.00    -0.271 OA
HETATM   11  C13 UNL     1       7.022  13.379  10.222  1.00  0.00     0.177 C 
HETATM   12  N3  UNL     1       7.375  14.604   9.544  1.00  0.00    -0.346 N 
ATOM     13  H3  UNL     1       6.613  15.119   9.103  1.00  0.00     0.163 HD
HETATM   14  C18 UNL     1       8.671  15.166   9.427  1.00  0.00     0.241 C 
HETATM   15  O3  UNL     1       8.757  16.401   9.678  1.00  0.00    -0.271 OA
HETATM   16  C19 UNL     1       9.890  14.476   9.051  1.00  0.00     0.179 C 
HETATM   17  C20 UNL     1      10.914  15.387   8.361  1.00  0.00     0.035 C 
HETATM   18  C21 UNL     1      12.220  14.640   8.192  1.00  0.00     0.004 C 
HETATM   19  C22 UNL     1      12.096  13.157   8.278  1.00  0.00     0.020 C 
HETATM   20  C23 UNL     1      11.387  12.647   9.484  1.00  0.00     0.127 C 
HETATM   21  N4  UNL     1      10.640  13.797  10.075  1.00  0.00    -0.338 N 
HETATM   22  C24 UNL     1      10.743  14.072  11.439  1.00  0.00     0.227 C 
HETATM   23  O4  UNL     1      10.573  13.057  12.212  1.00  0.00    -0.273 OA
HETATM   24  C25 UNL     1      11.017  15.337  12.152  1.00  0.00     0.111 C 
HETATM   25  C28 UNL     1       9.989  15.700  13.192  1.00  0.00     0.101 C 
HETATM   26  N5  UNL     1      10.303  15.261  14.520  1.00  0.00    -0.353 N 
ATOM     27  H5  UNL     1      11.259  15.429  14.833  1.00  0.00     0.163 HD
HETATM   28  C33 UNL     1       9.457  14.630  15.442  1.00  0.00     0.241 C 
HETATM   29  O7  UNL     1       9.652  14.886  16.682  1.00  0.00    -0.271 OA
ENDROOT
BRANCH   1  30
HETATM   30  C3  UNL     1       8.555  12.476  16.075  1.00  0.00     0.013 C 
HETATM   31  C4  UNL     1       8.777  11.206  15.325  1.00  0.00     0.012 C 
BRANCH  30  32
HETATM   32  C2  UNL     1       7.306  12.394  16.952  1.00  0.00     0.002 C 
HETATM   33  C1  UNL     1       7.044  10.966  17.377  1.00  0.00     0.005 C 
ENDBRANCH  30  32
ENDBRANCH   1  30
BRANCH   6  34
HETATM   34  C8  UNL     1       5.118  12.146  13.789  1.00  0.00     0.038 C 
BRANCH  34  35
HETATM   35  C9  UNL     1       5.448  10.768  13.372  1.00  0.00    -0.020 C 
HETATM   36  C10 UNL     1       5.068   9.875  14.591  1.00  0.00     0.009 C 
HETATM   37  C11 UNL     1       4.642  10.202  12.234  1.00  0.00     0.009 C 
ENDBRANCH  34  35
ENDBRANCH   6  34
BRANCH  25  38
HETATM   38  C29 UNL     1       9.709  17.187  13.215  1.00  0.00     0.005 C 
HETATM   39  C30 UNL     1      10.000  17.893  11.935  1.00  0.00     0.012 C 
BRANCH  38  40
HETATM   40  C31 UNL     1      10.460  17.889  14.321  1.00  0.00     0.002 C 
HETATM   41  C32 UNL     1      10.207  19.396  14.199  1.00  0.00     0.005 C 
ENDBRANCH  38  40
ENDBRANCH  25  38
BRANCH  24  42
HETATM   42  C26 UNL     1      12.346  15.184  12.862  1.00  0.00     0.129 C 
BRANCH  42  43
HETATM   43  C27 UNL     1      13.432  16.011  12.336  1.00  0.00     0.173 C 
HETATM   44  O5  UNL     1      14.360  15.599  11.600  1.00  0.00    -0.648 OA
HETATM   45  O6  UNL     1      13.484  17.380  12.652  1.00  0.00    -0.648 OA
ENDBRANCH  42  43
ENDBRANCH  24  42
BRANCH  11  46
HETATM   46  C14 UNL     1       7.015  12.233   9.231  1.00  0.00     0.038 C 
BRANCH  46  47
HETATM   47  C15 UNL     1       7.325  10.904   9.865  1.00  0.00    -0.020 C 
HETATM   48  C16 UNL     1       8.295  11.008  11.017  1.00  0.00     0.009 C 
HETATM   49  C17 UNL     1       7.899   9.936   8.821  1.00  0.00     0.009 C 
ENDBRANCH  46  47
ENDBRANCH  11  46
TORSDOF 10
ENDMDL
