MODEL 1
REMARK VINA RESULT: -3.853547538      0.000      0.000
REMARK  12 active torsions:
REMARK  status: ('A' for Active; 'I' for Inactive)
REMARK    1  A    between atoms: C2_2  and  C3_3 
REMARK    2  A    between atoms: C3_3  and  C5_5 
REMARK    3  A    between atoms: C5_5  and  C6_6 
REMARK    4  A    between atoms: C8_11  and  C9_12 
REMARK    5  A    between atoms: C9_12  and  C11_14 
REMARK    6  A    between atoms: C13_21  and  C14_22 
REMARK    7  A    between atoms: C14_22  and  C16_24 
REMARK    8  A    between atoms: C19_30  and  C20_31 
REMARK    9  A    between atoms: C23_36  and  O6_37 
REMARK   10  A    between atoms: C28_44  and  O7_45 
REMARK   11  A    between atoms: C29_47  and  C30_48 
REMARK   12  A    between atoms: C30_48  and  C31_49 
ROOT
HETATM    1  C6  UNL     1      10.001  13.403  13.540  1.00  0.00     0.018 C 
HETATM    2  C7  UNL     1      11.242  14.119  13.807  1.00  0.00     0.249 C 
HETATM    3  O1  UNL     1      11.783  13.845  14.927  1.00  0.00    -0.268 OA
HETATM    4  N1  UNL     1      11.958  15.064  13.040  1.00  0.00    -0.335 N 
ATOM      5  H1  UNL     1      12.846  14.711  12.682  1.00  0.00     0.164 HD
HETATM    6  C8  UNL     1      11.685  16.419  12.666  1.00  0.00     0.201 C 
HETATM    7  N2  UNL     1      11.130  16.672  11.392  1.00  0.00    -0.337 N 
ATOM      8  H2  UNL     1      10.590  17.537  11.354  1.00  0.00     0.164 HD
HETATM    9  C12 UNL     1      11.163  15.989  10.171  1.00  0.00     0.242 C 
HETATM   10  O4  UNL     1      11.544  16.720   9.175  1.00  0.00    -0.271 OA
HETATM   11  C13 UNL     1      10.840  14.605   9.862  1.00  0.00     0.180 C 
HETATM   12  N3  UNL     1       9.440  14.306   9.637  1.00  0.00    -0.342 N 
ATOM     13  H3  UNL     1       9.224  13.308   9.642  1.00  0.00     0.163 HD
HETATM   14  C18 UNL     1       8.344  15.112   9.417  1.00  0.00     0.265 C 
HETATM   15  O5  UNL     1       7.745  14.941   8.280  1.00  0.00    -0.266 OA
HETATM   16  C19 UNL     1       7.701  16.160  10.240  1.00  0.00     0.083 C 
HETATM   17  N4  UNL     1       7.563  15.941  11.624  1.00  0.00    -0.337 N 
ATOM     18  H4  UNL     1       8.262  16.421  12.191  1.00  0.00     0.167 HD
HETATM   19  C23 UNL     1       6.634  15.176  12.378  1.00  0.00     0.139 C 
HETATM   20  C24 UNL     1       6.320  13.761  12.235  1.00  0.00     0.160 C 
HETATM   21  C25 UNL     1       4.800  13.646  12.509  1.00  0.00     0.035 C 
HETATM   22  C26 UNL     1       4.644  12.168  12.613  1.00  0.00     0.022 C 
HETATM   23  C27 UNL     1       6.021  11.605  12.701  1.00  0.00     0.125 C 
HETATM   24  N5  UNL     1       6.814  12.808  13.165  1.00  0.00    -0.353 N 
HETATM   25  C28 UNL     1       7.717  12.796  14.200  1.00  0.00     0.123 C 
HETATM   26  C29 UNL     1       8.875  13.720  14.493  1.00  0.00     0.099 C 
ENDROOT
BRANCH   1  27
HETATM   27  C5  UNL     1      10.127  12.031  13.084  1.00  0.00    -0.009 C 
BRANCH  27  28
HETATM   28  C3  UNL     1      10.307  11.479  11.764  1.00  0.00     0.004 C 
HETATM   29  C4  UNL     1      10.960  10.046  11.905  1.00  0.00     0.014 C 
BRANCH  28  30
HETATM   30  C2  UNL     1       9.136  11.204  10.873  1.00  0.00     0.003 C 
HETATM   31  C1  UNL     1       9.193   9.874  10.163  1.00  0.00     0.006 C 
ENDBRANCH  28  30
ENDBRANCH  27  28
ENDBRANCH   1  27
BRANCH  26  32
HETATM   32  C30 UNL     1       9.190  13.792  15.931  1.00  0.00     0.021 C 
BRANCH  32  33
HETATM   33  C31 UNL     1       8.718  15.062  16.643  1.00  0.00    -0.022 C 
HETATM   34  C32 UNL     1       8.029  14.643  17.961  1.00  0.00     0.009 C 
HETATM   35  C33 UNL     1       9.838  15.955  17.031  1.00  0.00     0.009 C 
ENDBRANCH  32  33
ENDBRANCH  26  32
BRANCH  25  36
HETATM   36  O7  UNL     1       7.627  11.870  15.109  1.00  0.00    -0.349 OA
ATOM     37  H7  UNL     1       8.412  11.589  15.564  1.00  0.00     0.219 HD
ENDBRANCH  25  36
BRANCH   6  38
HETATM   38  C9  UNL     1      10.963  17.248  13.710  1.00  0.00     0.125 C 
HETATM   39  C10 UNL     1       9.706  17.790  13.125  1.00  0.00     0.025 C 
BRANCH  38  40
HETATM   40  C11 UNL     1      11.802  18.404  14.133  1.00  0.00     0.180 C 
HETATM   41  O2  UNL     1      11.601  19.024  15.198  1.00  0.00    -0.648 OA
HETATM   42  O3  UNL     1      12.836  18.778  13.283  1.00  0.00    -0.648 OA
ENDBRANCH  38  40
ENDBRANCH   6  38
BRANCH  19  43
HETATM   43  O6  UNL     1       5.956  15.763  13.320  1.00  0.00    -0.348 OA
ATOM     44  H6  UNL     1       5.167  16.239  13.089  1.00  0.00     0.219 HD
ENDBRANCH  19  43
BRANCH  11  45
HETATM   45  C14 UNL     1      11.637  14.157   8.653  1.00  0.00     0.013 C 
HETATM   46  C15 UNL     1      13.077  13.892   8.905  1.00  0.00     0.012 C 
BRANCH  45  47
HETATM   47  C16 UNL     1      11.004  12.978   7.966  1.00  0.00     0.002 C 
HETATM   48  C17 UNL     1      11.840  11.758   8.284  1.00  0.00     0.005 C 
ENDBRANCH  45  47
ENDBRANCH  11  45
BRANCH  16  49
HETATM   49  C20 UNL     1       6.457  16.741   9.575  1.00  0.00     0.033 C 
HETATM   50  C21 UNL     1       6.025  18.063  10.065  1.00  0.00     0.016 C 
HETATM   51  C22 UNL     1       5.304  15.764   9.602  1.00  0.00     0.016 C 
ENDBRANCH  16  49
TORSDOF 12
ENDMDL
MODEL 2
REMARK VINA RESULT: -3.765592945      1.817      2.646
REMARK  12 active torsions:
REMARK  status: ('A' for Active; 'I' for Inactive)
REMARK    1  A    between atoms: C2_2  and  C3_3 
REMARK    2  A    between atoms: C3_3  and  C5_5 
REMARK    3  A    between atoms: C5_5  and  C6_6 
REMARK    4  A    between atoms: C8_11  and  C9_12 
REMARK    5  A    between atoms: C9_12  and  C11_14 
REMARK    6  A    between atoms: C13_21  and  C14_22 
REMARK    7  A    between atoms: C14_22  and  C16_24 
REMARK    8  A    between atoms: C19_30  and  C20_31 
REMARK    9  A    between atoms: C23_36  and  O6_37 
REMARK   10  A    between atoms: C28_44  and  O7_45 
REMARK   11  A    between atoms: C29_47  and  C30_48 
REMARK   12  A    between atoms: C30_48  and  C31_49 
ROOT
HETATM    1  C6  UNL     1       9.920  13.536  14.169  1.00  0.00     0.018 C 
HETATM    2  C7  UNL     1      10.835  14.072  15.169  1.00  0.00     0.249 C 
HETATM    3  O1  UNL     1      10.844  13.439  16.275  1.00  0.00    -0.268 OA
HETATM    4  N1  UNL     1      11.721  15.171  15.131  1.00  0.00    -0.335 N 
ATOM      5  H1  UNL     1      12.705  14.902  15.128  1.00  0.00     0.164 HD
HETATM    6  C8  UNL     1      11.511  16.588  15.094  1.00  0.00     0.201 C 
HETATM    7  N2  UNL     1      11.560  17.249  13.847  1.00  0.00    -0.337 N 
ATOM      8  H2  UNL     1      11.012  18.109  13.826  1.00  0.00     0.164 HD
HETATM    9  C12 UNL     1      12.202  16.975  12.633  1.00  0.00     0.242 C 
HETATM   10  O4  UNL     1      12.912  17.957  12.186  1.00  0.00    -0.271 OA
HETATM   11  C13 UNL     1      12.188  15.772  11.816  1.00  0.00     0.180 C 
HETATM   12  N3  UNL     1      11.072  15.626  10.903  1.00  0.00    -0.342 N 
ATOM     13  H3  UNL     1      10.976  14.688  10.514  1.00  0.00     0.163 HD
HETATM   14  C18 UNL     1      10.115  16.514  10.460  1.00  0.00     0.265 C 
HETATM   15  O5  UNL     1      10.106  16.732   9.183  1.00  0.00    -0.266 OA
HETATM   16  C19 UNL     1       9.074  17.288  11.171  1.00  0.00     0.083 C 
HETATM   17  N4  UNL     1       8.356  16.659  12.206  1.00  0.00    -0.337 N 
ATOM     18  H4  UNL     1       8.677  16.906  13.142  1.00  0.00     0.167 HD
HETATM   19  C23 UNL     1       7.268  15.746  12.191  1.00  0.00     0.139 C 
HETATM   20  C24 UNL     1       7.192  14.461  11.508  1.00  0.00     0.160 C 
HETATM   21  C25 UNL     1       5.729  14.343  11.015  1.00  0.00     0.035 C 
HETATM   22  C26 UNL     1       5.688  12.915  10.594  1.00  0.00     0.022 C 
HETATM   23  C27 UNL     1       6.930  12.285  11.125  1.00  0.00     0.125 C 
HETATM   24  N5  UNL     1       7.311  13.244  12.232  1.00  0.00    -0.353 N 
HETATM   25  C28 UNL     1       7.653  12.868  13.508  1.00  0.00     0.123 C 
HETATM   26  C29 UNL     1       8.462  13.599  14.553  1.00  0.00     0.099 C 
ENDROOT
BRANCH   1  27
HETATM   27  C5  UNL     1      10.371  12.367  13.437  1.00  0.00    -0.009 C 
BRANCH  27  28
HETATM   28  C3  UNL     1      10.207  10.958  13.698  1.00  0.00     0.004 C 
HETATM   29  C4  UNL     1      10.717  10.153  12.437  1.00  0.00     0.014 C 
BRANCH  28  30
HETATM   30  C2  UNL     1      10.940  10.287  14.817  1.00  0.00     0.003 C 
HETATM   31  C1  UNL     1      10.090   9.992  16.028  1.00  0.00     0.006 C 
ENDBRANCH  28  30
ENDBRANCH  27  28
ENDBRANCH   1  27
BRANCH  26  32
HETATM   32  C30 UNL     1       8.094  13.207  15.926  1.00  0.00     0.021 C 
BRANCH  32  33
HETATM   33  C31 UNL     1       7.556  14.337  16.808  1.00  0.00    -0.022 C 
HETATM   34  C32 UNL     1       6.023  14.396  16.623  1.00  0.00     0.009 C 
HETATM   35  C33 UNL     1       7.786  14.099  18.255  1.00  0.00     0.009 C 
ENDBRANCH  32  33
ENDBRANCH  26  32
BRANCH  25  36
HETATM   36  O7  UNL     1       7.259  11.713  13.956  1.00  0.00    -0.349 OA
ATOM     37  H7  UNL     1       7.505  11.448  14.834  1.00  0.00     0.219 HD
ENDBRANCH  25  36
BRANCH   6  38
HETATM   38  C9  UNL     1      10.322  17.088  15.890  1.00  0.00     0.125 C 
HETATM   39  C10 UNL     1      10.033  18.497  15.509  1.00  0.00     0.025 C 
BRANCH  38  40
HETATM   40  C11 UNL     1      10.622  17.066  17.349  1.00  0.00     0.180 C 
HETATM   41  O2  UNL     1      10.816  16.004  17.977  1.00  0.00    -0.648 OA
HETATM   42  O3  UNL     1      10.680  18.292  18.000  1.00  0.00    -0.648 OA
ENDBRANCH  38  40
ENDBRANCH   6  38
BRANCH  19  43
HETATM   43  O6  UNL     1       6.187  16.046  12.850  1.00  0.00    -0.348 OA
ATOM     44  H6  UNL     1       5.530  16.589  12.430  1.00  0.00     0.219 HD
ENDBRANCH  19  43
BRANCH  11  45
HETATM   45  C14 UNL     1      13.480  15.680  11.029  1.00  0.00     0.013 C 
HETATM   46  C15 UNL     1      14.695  15.391  11.835  1.00  0.00     0.012 C 
BRANCH  45  47
HETATM   47  C16 UNL     1      13.374  14.712   9.883  1.00  0.00     0.002 C 
HETATM   48  C17 UNL     1      14.707  14.701   9.165  1.00  0.00     0.005 C 
ENDBRANCH  45  47
ENDBRANCH  11  45
BRANCH  16  49
HETATM   49  C20 UNL     1       8.206  18.106  10.221  1.00  0.00     0.033 C 
HETATM   50  C21 UNL     1       7.766  19.421  10.723  1.00  0.00     0.016 C 
HETATM   51  C22 UNL     1       7.023  17.308   9.720  1.00  0.00     0.016 C 
ENDBRANCH  16  49
TORSDOF 12
ENDMDL
MODEL 3
REMARK VINA RESULT: -3.728758088      2.172      6.890
REMARK  12 active torsions:
REMARK  status: ('A' for Active; 'I' for Inactive)
REMARK    1  A    between atoms: C2_2  and  C3_3 
REMARK    2  A    between atoms: C3_3  and  C5_5 
REMARK    3  A    between atoms: C5_5  and  C6_6 
REMARK    4  A    between atoms: C8_11  and  C9_12 
REMARK    5  A    between atoms: C9_12  and  C11_14 
REMARK    6  A    between atoms: C13_21  and  C14_22 
REMARK    7  A    between atoms: C14_22  and  C16_24 
REMARK    8  A    between atoms: C19_30  and  C20_31 
REMARK    9  A    between atoms: C23_36  and  O6_37 
REMARK   10  A    between atoms: C28_44  and  O7_45 
REMARK   11  A    between atoms: C29_47  and  C30_48 
REMARK   12  A    between atoms: C30_48  and  C31_49 
ROOT
HETATM    1  C6  UNL     1       8.419  17.332   9.734  1.00  0.00     0.018 C 
HETATM    2  C7  UNL     1       9.663  17.536   9.003  1.00  0.00     0.249 C 
HETATM    3  O1  UNL     1       9.515  17.966   7.813  1.00  0.00    -0.268 OA
HETATM    4  N1  UNL     1      11.010  17.344   9.380  1.00  0.00    -0.335 N 
ATOM      5  H1  UNL     1      11.534  18.213   9.482  1.00  0.00     0.164 HD
HETATM    6  C8  UNL     1      11.786  16.170   9.649  1.00  0.00     0.201 C 
HETATM    7  N2  UNL     1      11.960  15.763  10.991  1.00  0.00    -0.337 N 
ATOM      8  H2  UNL     1      12.131  14.762  11.088  1.00  0.00     0.164 HD
HETATM    9  C12 UNL     1      11.946  16.442  12.214  1.00  0.00     0.242 C 
HETATM   10  O4  UNL     1      12.994  16.228  12.940  1.00  0.00    -0.271 OA
HETATM   11  C13 UNL     1      10.948  17.335  12.780  1.00  0.00     0.180 C 
HETATM   12  N3  UNL     1       9.839  16.708  13.470  1.00  0.00    -0.342 N 
ATOM     13  H3  UNL     1       9.059  17.338  13.658  1.00  0.00     0.163 HD
HETATM   14  C18 UNL     1       9.637  15.421  13.920  1.00  0.00     0.265 C 
HETATM   15  O5  UNL     1       9.470  15.298  15.200  1.00  0.00    -0.266 OA
HETATM   16  C19 UNL     1       9.574  14.121  13.217  1.00  0.00     0.083 C 
HETATM   17  N4  UNL     1       8.895  14.052  11.986  1.00  0.00    -0.337 N 
ATOM     18  H4  UNL     1       9.510  14.062  11.172  1.00  0.00     0.167 HD
HETATM   19  C23 UNL     1       7.514  13.973  11.665  1.00  0.00     0.139 C 
HETATM   20  C24 UNL     1       6.449  14.879  12.075  1.00  0.00     0.160 C 
HETATM   21  C25 UNL     1       5.210  13.980  12.310  1.00  0.00     0.035 C 
HETATM   22  C26 UNL     1       4.140  15.006  12.446  1.00  0.00     0.022 C 
HETATM   23  C27 UNL     1       4.736  16.297  12.001  1.00  0.00     0.125 C 
HETATM   24  N5  UNL     1       5.904  15.822  11.164  1.00  0.00    -0.353 N 
HETATM   25  C28 UNL     1       6.205  16.288   9.907  1.00  0.00     0.123 C 
HETATM   26  C29 UNL     1       7.512  16.276   9.152  1.00  0.00     0.099 C 
ENDROOT
BRANCH   1  27
HETATM   27  C5  UNL     1       7.794  18.516  10.295  1.00  0.00    -0.009 C 
BRANCH  27  28
HETATM   28  C3  UNL     1       7.759  19.883   9.835  1.00  0.00     0.004 C 
HETATM   29  C4  UNL     1       6.660  20.003   8.705  1.00  0.00     0.014 C 
BRANCH  28  30
HETATM   30  C2  UNL     1       7.384  21.001  10.757  1.00  0.00     0.003 C 
HETATM   31  C1  UNL     1       7.030  22.290  10.058  1.00  0.00     0.006 C 
ENDBRANCH  28  30
ENDBRANCH  27  28
ENDBRANCH   1  27
BRANCH  26  32
HETATM   32  C30 UNL     1       7.320  16.263   7.690  1.00  0.00     0.021 C 
BRANCH  32  33
HETATM   33  C31 UNL     1       7.400  14.884   7.030  1.00  0.00    -0.022 C 
HETATM   34  C32 UNL     1       8.328  13.997   7.891  1.00  0.00     0.009 C 
HETATM   35  C33 UNL     1       6.090  14.188   6.988  1.00  0.00     0.009 C 
ENDBRANCH  32  33
ENDBRANCH  26  32
BRANCH  25  36
HETATM   36  O7  UNL     1       5.269  16.845   9.196  1.00  0.00    -0.349 OA
ATOM     37  H7  UNL     1       5.362  16.878   8.252  1.00  0.00     0.219 HD
ENDBRANCH  25  36
BRANCH   6  38
HETATM   38  C9  UNL     1      11.458  14.965   8.789  1.00  0.00     0.125 C 
HETATM   39  C10 UNL     1      11.796  13.722   9.535  1.00  0.00     0.025 C 
BRANCH  38  40
HETATM   40  C11 UNL     1      12.269  14.977   7.539  1.00  0.00     0.180 C 
HETATM   41  O2  UNL     1      12.669  13.929   6.990  1.00  0.00    -0.648 OA
HETATM   42  O3  UNL     1      12.569  16.219   6.994  1.00  0.00    -0.648 OA
ENDBRANCH  38  40
ENDBRANCH   6  38
BRANCH  19  43
HETATM   43  O6  UNL     1       7.098  12.993  10.918  1.00  0.00    -0.348 OA
ATOM     44  H6  UNL     1       6.486  13.179  10.215  1.00  0.00     0.219 HD
ENDBRANCH  19  43
BRANCH  11  45
HETATM   45  C14 UNL     1      11.621  18.313  13.723  1.00  0.00     0.013 C 
HETATM   46  C15 UNL     1      12.710  19.127  13.123  1.00  0.00     0.012 C 
BRANCH  45  47
HETATM   47  C16 UNL     1      10.626  19.205  14.414  1.00  0.00     0.002 C 
HETATM   48  C17 UNL     1      11.290  20.547  14.638  1.00  0.00     0.005 C 
ENDBRANCH  45  47
ENDBRANCH  11  45
BRANCH  16  49
HETATM   49  C20 UNL     1       9.269  12.962  14.161  1.00  0.00     0.033 C 
HETATM   50  C21 UNL     1       9.596  11.617  13.654  1.00  0.00     0.016 C 
HETATM   51  C22 UNL     1       7.841  13.009  14.656  1.00  0.00     0.016 C 
ENDBRANCH  16  49
TORSDOF 12
ENDMDL
MODEL 4
REMARK VINA RESULT: -3.667847873      0.914      1.029
REMARK  12 active torsions:
REMARK  status: ('A' for Active; 'I' for Inactive)
REMARK    1  A    between atoms: C2_2  and  C3_3 
REMARK    2  A    between atoms: C3_3  and  C5_5 
REMARK    3  A    between atoms: C5_5  and  C6_6 
REMARK    4  A    between atoms: C8_11  and  C9_12 
REMARK    5  A    between atoms: C9_12  and  C11_14 
REMARK    6  A    between atoms: C13_21  and  C14_22 
REMARK    7  A    between atoms: C14_22  and  C16_24 
REMARK    8  A    between atoms: C19_30  and  C20_31 
REMARK    9  A    between atoms: C23_36  and  O6_37 
REMARK   10  A    between atoms: C28_44  and  O7_45 
REMARK   11  A    between atoms: C29_47  and  C30_48 
REMARK   12  A    between atoms: C30_48  and  C31_49 
ROOT
HETATM    1  C6  UNL     1       9.881  13.489  13.972  1.00  0.00     0.018 C 
HETATM    2  C7  UNL     1      11.032  14.262  14.422  1.00  0.00     0.249 C 
HETATM    3  O1  UNL     1      11.500  13.907  15.553  1.00  0.00    -0.268 OA
HETATM    4  N1  UNL     1      11.727  15.336  13.825  1.00  0.00    -0.335 N 
ATOM      5  H1  UNL     1      12.668  15.092  13.515  1.00  0.00     0.164 HD
HETATM    6  C8  UNL     1      11.373  16.700  13.569  1.00  0.00     0.201 C 
HETATM    7  N2  UNL     1      10.905  17.049  12.283  1.00  0.00    -0.337 N 
ATOM      8  H2  UNL     1      10.299  17.870  12.285  1.00  0.00     0.164 HD
HETATM    9  C12 UNL     1      11.096  16.508  11.007  1.00  0.00     0.242 C 
HETATM   10  O4  UNL     1      11.494  17.371  10.130  1.00  0.00    -0.271 OA
HETATM   11  C13 UNL     1      10.917  15.147  10.528  1.00  0.00     0.180 C 
HETATM   12  N3  UNL     1       9.570  14.770  10.148  1.00  0.00    -0.342 N 
ATOM     13  H3  UNL     1       9.439  13.765  10.030  1.00  0.00     0.163 HD
HETATM   14  C18 UNL     1       8.432  15.512   9.913  1.00  0.00     0.265 C 
HETATM   15  O5  UNL     1       7.946  15.422   8.715  1.00  0.00    -0.266 OA
HETATM   16  C19 UNL     1       7.638  16.412  10.778  1.00  0.00     0.083 C 
HETATM   17  N4  UNL     1       7.406  16.033  12.113  1.00  0.00    -0.337 N 
ATOM     18  H4  UNL     1       8.012  16.499  12.788  1.00  0.00     0.167 HD
HETATM   19  C23 UNL     1       6.485  15.122  12.697  1.00  0.00     0.139 C 
HETATM   20  C24 UNL     1       6.303  13.712  12.381  1.00  0.00     0.160 C 
HETATM   21  C25 UNL     1       4.781  13.454  12.502  1.00  0.00     0.035 C 
HETATM   22  C26 UNL     1       4.742  11.967  12.440  1.00  0.00     0.022 C 
HETATM   23  C27 UNL     1       6.149  11.502  12.594  1.00  0.00     0.125 C 
HETATM   24  N5  UNL     1       6.798  12.702  13.249  1.00  0.00    -0.353 N 
HETATM   25  C28 UNL     1       7.610  12.643  14.356  1.00  0.00     0.123 C 
HETATM   26  C29 UNL     1       8.658  13.614  14.846  1.00  0.00     0.099 C 
ENDROOT
BRANCH   1  27
HETATM   27  C5  UNL     1      10.160  12.188  13.391  1.00  0.00    -0.009 C 
BRANCH  27  28
HETATM   28  C3  UNL     1      10.375  11.782  12.023  1.00  0.00     0.004 C 
HETATM   29  C4  UNL     1      10.767  10.252  12.011  1.00  0.00     0.014 C 
BRANCH  28  30
HETATM   30  C2  UNL     1       9.267  11.831  11.018  1.00  0.00     0.003 C 
HETATM   31  C1  UNL     1       9.239  10.660  10.067  1.00  0.00     0.006 C 
ENDBRANCH  28  30
ENDBRANCH  27  28
ENDBRANCH   1  27
BRANCH  26  32
HETATM   32  C30 UNL     1       8.846  13.551  16.307  1.00  0.00     0.021 C 
BRANCH  32  33
HETATM   33  C31 UNL     1       8.267  14.729  17.094  1.00  0.00    -0.022 C 
HETATM   34  C32 UNL     1       6.813  14.375  17.480  1.00  0.00     0.009 C 
HETATM   35  C33 UNL     1       8.982  14.976  18.371  1.00  0.00     0.009 C 
ENDBRANCH  32  33
ENDBRANCH  26  32
BRANCH  25  36
HETATM   36  O7  UNL     1       7.523  11.619  15.153  1.00  0.00    -0.349 OA
ATOM     37  H7  UNL     1       8.213  11.466  15.787  1.00  0.00     0.219 HD
ENDBRANCH  25  36
BRANCH   6  38
HETATM   38  C9  UNL     1      10.500  17.353  14.624  1.00  0.00     0.125 C 
HETATM   39  C10 UNL     1       9.999  18.656  14.110  1.00  0.00     0.025 C 
BRANCH  38  40
HETATM   40  C11 UNL     1      11.287  17.625  15.859  1.00  0.00     0.180 C 
HETATM   41  O2  UNL     1      11.426  16.776  16.765  1.00  0.00    -0.648 OA
HETATM   42  O3  UNL     1      11.872  18.880  15.971  1.00  0.00    -0.648 OA
ENDBRANCH  38  40
ENDBRANCH   6  38
BRANCH  19  43
HETATM   43  O6  UNL     1       5.685  15.549  13.629  1.00  0.00    -0.348 OA
ATOM     44  H6  UNL     1       5.449  14.961  14.337  1.00  0.00     0.219 HD
ENDBRANCH  19  43
BRANCH  11  45
HETATM   45  C14 UNL     1      11.846  14.896   9.357  1.00  0.00     0.013 C 
HETATM   46  C15 UNL     1      13.282  14.749   9.707  1.00  0.00     0.012 C 
BRANCH  45  47
HETATM   47  C16 UNL     1      11.393  13.731   8.519  1.00  0.00     0.002 C 
HETATM   48  C17 UNL     1      12.273  12.548   8.862  1.00  0.00     0.005 C 
ENDBRANCH  45  47
ENDBRANCH  11  45
BRANCH  16  49
HETATM   49  C20 UNL     1       6.409  16.968  10.066  1.00  0.00     0.033 C 
HETATM   50  C21 UNL     1       6.486  18.384   9.661  1.00  0.00     0.016 C 
HETATM   51  C22 UNL     1       5.145  16.711  10.856  1.00  0.00     0.016 C 
ENDBRANCH  16  49
TORSDOF 12
ENDMDL
MODEL 5
REMARK VINA RESULT: -3.624399052      1.528      1.699
REMARK  12 active torsions:
REMARK  status: ('A' for Active; 'I' for Inactive)
REMARK    1  A    between atoms: C2_2  and  C3_3 
REMARK    2  A    between atoms: C3_3  and  C5_5 
REMARK    3  A    between atoms: C5_5  and  C6_6 
REMARK    4  A    between atoms: C8_11  and  C9_12 
REMARK    5  A    between atoms: C9_12  and  C11_14 
REMARK    6  A    between atoms: C13_21  and  C14_22 
REMARK    7  A    between atoms: C14_22  and  C16_24 
REMARK    8  A    between atoms: C19_30  and  C20_31 
REMARK    9  A    between atoms: C23_36  and  O6_37 
REMARK   10  A    between atoms: C28_44  and  O7_45 
REMARK   11  A    between atoms: C29_47  and  C30_48 
REMARK   12  A    between atoms: C30_48  and  C31_49 
ROOT
HETATM    1  C6  UNL     1       9.806  13.185  14.110  1.00  0.00     0.018 C 
HETATM    2  C7  UNL     1      11.017  13.946  13.828  1.00  0.00     0.249 C 
HETATM    3  O1  UNL     1      11.883  13.931  14.762  1.00  0.00    -0.268 OA
HETATM    4  N1  UNL     1      11.405  14.698  12.698  1.00  0.00    -0.335 N 
ATOM      5  H1  UNL     1      12.169  14.277  12.170  1.00  0.00     0.164 HD
HETATM    6  C8  UNL     1      10.938  15.935  12.147  1.00  0.00     0.201 C 
HETATM    7  N2  UNL     1      10.013  15.896  11.079  1.00  0.00    -0.337 N 
ATOM      8  H2  UNL     1       9.426  16.729  11.025  1.00  0.00     0.164 HD
HETATM    9  C12 UNL     1       9.732  14.957  10.080  1.00  0.00     0.242 C 
HETATM   10  O4  UNL     1       9.747  15.449   8.885  1.00  0.00    -0.271 OA
HETATM   11  C13 UNL     1       9.429  13.539  10.185  1.00  0.00     0.180 C 
HETATM   12  N3  UNL     1       8.051  13.192  10.466  1.00  0.00    -0.342 N 
ATOM     13  H3  UNL     1       7.917  12.221  10.748  1.00  0.00     0.163 HD
HETATM   14  C18 UNL     1       6.885  13.926  10.425  1.00  0.00     0.265 C 
HETATM   15  O5  UNL     1       5.990  13.504   9.588  1.00  0.00    -0.266 OA
HETATM   16  C19 UNL     1       6.442  15.130  11.163  1.00  0.00     0.083 C 
HETATM   17  N4  UNL     1       6.737  15.225  12.536  1.00  0.00    -0.337 N 
ATOM     18  H4  UNL     1       7.537  15.821  12.748  1.00  0.00     0.167 HD
HETATM   19  C23 UNL     1       6.129  14.645  13.682  1.00  0.00     0.139 C 
HETATM   20  C24 UNL     1       5.888  13.232  13.944  1.00  0.00     0.160 C 
HETATM   21  C25 UNL     1       4.530  13.177  14.686  1.00  0.00     0.035 C 
HETATM   22  C26 UNL     1       4.516  11.760  15.144  1.00  0.00     0.022 C 
HETATM   23  C27 UNL     1       5.894  11.234  14.925  1.00  0.00     0.125 C 
HETATM   24  N5  UNL     1       6.702  12.512  14.859  1.00  0.00    -0.353 N 
HETATM   25  C28 UNL     1       7.869  12.734  15.549  1.00  0.00     0.123 C 
HETATM   26  C29 UNL     1       8.993  13.704  15.271  1.00  0.00     0.099 C 
ENDROOT
BRANCH   1  27
HETATM   27  C5  UNL     1       9.888  11.747  13.939  1.00  0.00    -0.009 C 
BRANCH  27  28
HETATM   28  C3  UNL     1       9.584  10.903  12.810  1.00  0.00     0.004 C 
HETATM   29  C4  UNL     1      10.855  10.022  12.486  1.00  0.00     0.014 C 
BRANCH  28  30
HETATM   30  C2  UNL     1       8.499   9.875  12.881  1.00  0.00     0.003 C 
HETATM   31  C1  UNL     1       7.473   9.975  11.779  1.00  0.00     0.006 C 
ENDBRANCH  28  30
ENDBRANCH  27  28
ENDBRANCH   1  27
BRANCH  26  32
HETATM   32  C30 UNL     1       9.715  14.096  16.496  1.00  0.00     0.021 C 
BRANCH  32  33
HETATM   33  C31 UNL     1       9.288  15.432  17.109  1.00  0.00    -0.022 C 
HETATM   34  C32 UNL     1       9.248  15.260  18.645  1.00  0.00     0.009 C 
HETATM   35  C33 UNL     1      10.256  16.524  16.843  1.00  0.00     0.009 C 
ENDBRANCH  32  33
ENDBRANCH  26  32
BRANCH  25  36
HETATM   36  O7  UNL     1       8.119  12.034  16.616  1.00  0.00    -0.349 OA
ATOM     37  H7  UNL     1       8.633  12.421  17.314  1.00  0.00     0.219 HD
ENDBRANCH  25  36
BRANCH   6  38
HETATM   38  C9  UNL     1      10.501  16.974  13.161  1.00  0.00     0.125 C 
HETATM   39  C10 UNL     1       9.446  17.835  12.561  1.00  0.00     0.025 C 
BRANCH  38  40
HETATM   40  C11 UNL     1      11.645  17.853  13.536  1.00  0.00     0.180 C 
HETATM   41  O2  UNL     1      11.540  18.761  14.386  1.00  0.00    -0.648 OA
HETATM   42  O3  UNL     1      12.855  17.622  12.894  1.00  0.00    -0.648 OA
ENDBRANCH  38  40
ENDBRANCH   6  38
BRANCH  19  43
HETATM   43  O6  UNL     1       5.722  15.425  14.639  1.00  0.00    -0.348 OA
ATOM     44  H6  UNL     1       5.718  15.095  15.530  1.00  0.00     0.219 HD
ENDBRANCH  19  43
BRANCH  11  45
HETATM   45  C14 UNL     1       9.862  12.835   8.914  1.00  0.00     0.013 C 
HETATM   46  C15 UNL     1      11.293  12.439   8.863  1.00  0.00     0.012 C 
BRANCH  45  47
HETATM   47  C16 UNL     1       8.985  11.654   8.597  1.00  0.00     0.002 C 
HETATM   48  C17 UNL     1       9.788  10.400   8.866  1.00  0.00     0.005 C 
ENDBRANCH  45  47
ENDBRANCH  11  45
BRANCH  16  49
HETATM   49  C20 UNL     1       5.020  15.544  10.802  1.00  0.00     0.033 C 
HETATM   50  C21 UNL     1       4.651  16.933  11.132  1.00  0.00     0.016 C 
HETATM   51  C22 UNL     1       4.000  14.579  11.363  1.00  0.00     0.016 C 
ENDBRANCH  16  49
TORSDOF 12
ENDMDL
