MODEL 1
REMARK VINA RESULT: -9.916970092      0.000      0.000
REMARK  12 active torsions:
REMARK  status: ('A' for Active; 'I' for Inactive)
REMARK    1  A    between atoms: C2_2  and  N1_4 
REMARK    2  A    between atoms: N2_7  and  C6_8 
REMARK    3  A    between atoms: C9_11  and  N3_12 
REMARK    4  A    between atoms: N3_12  and  C10_14 
REMARK    5  A    between atoms: C13_19  and  C14_20 
REMARK       I    between atoms: C14_20  and  N5_22 
REMARK    6  A    between atoms: N5_22  and  C15_24 
REMARK    7  A    between atoms: C15_24  and  C16_25 
REMARK    8  A    between atoms: C16_25  and  N6_26 
REMARK    9  A    between atoms: C25_37  and  N8_38 
REMARK   10  A    between atoms: N8_38  and  C26_40 
REMARK   11  A    between atoms: C26_40  and  C27_41 
REMARK   12  A    between atoms: C27_41  and  C28_42 
ROOT
HETATM    1  C10 UNL     1      18.455  24.612  18.052  1.00  0.00     0.151 A 
HETATM    2  N4  UNL     1      17.477  23.772  18.427  1.00  0.00    -0.338 N 
ATOM      3  H4  UNL     1      17.332  23.602  19.422  1.00  0.00     0.167 HD
HETATM    4  C11 UNL     1      16.675  23.142  17.536  1.00  0.00     0.061 A 
HETATM    5  C12 UNL     1      15.679  22.271  17.912  1.00  0.00     0.049 A 
HETATM    6  C13 UNL     1      14.848  21.601  17.032  1.00  0.00     0.034 A 
HETATM    7  C22 UNL     1      15.029  21.819  15.702  1.00  0.00     0.019 A 
HETATM    8  C23 UNL     1      16.035  22.703  15.262  1.00  0.00     0.033 A 
HETATM    9  C24 UNL     1      16.836  23.346  16.178  1.00  0.00     0.060 A 
HETATM   10  N7  UNL     1      17.818  24.192  15.766  1.00  0.00    -0.338 N 
ATOM     11  H7  UNL     1      17.961  24.363  14.771  1.00  0.00     0.167 HD
HETATM   12  C25 UNL     1      18.594  24.799  16.668  1.00  0.00     0.146 A 
ENDROOT
BRANCH   1  13
HETATM   13  N3  UNL     1      19.219  25.200  18.861  1.00  0.00    -0.337 N 
ATOM     14  H3  UNL     1      18.828  26.032  19.303  1.00  0.00     0.167 HD
BRANCH  13  15
HETATM   15  C9  UNL     1      20.533  24.880  19.246  1.00  0.00     0.074 A 
HETATM   16  C8  UNL     1      20.840  23.637  19.801  1.00  0.00     0.035 A 
HETATM   17  C7  UNL     1      22.115  23.307  20.197  1.00  0.00     0.033 A 
HETATM   18  C6  UNL     1      23.170  24.220  20.054  1.00  0.00     0.055 A 
HETATM   19  C32 UNL     1      22.882  25.444  19.509  1.00  0.00     0.101 A 
HETATM   20  C31 UNL     1      21.582  25.764  19.113  1.00  0.00     0.167 A 
HETATM   21 CL1  UNL     1      24.184  26.603  19.337  1.00  0.00    -0.079 Cl
HETATM   22  F1  UNL     1      21.403  26.992  18.595  1.00  0.00    -0.202 F 
BRANCH  18  23
HETATM   23  N2  UNL     1      24.451  23.789  20.483  1.00  0.00    -0.376 N 
HETATM   24  C5  UNL     1      25.365  23.242  19.514  1.00  0.00     0.153 C 
HETATM   25  C4  UNL     1      26.646  22.716  20.111  1.00  0.00     0.292 C 
HETATM   26  N1  UNL     1      26.418  22.351  21.469  1.00  0.00     0.095 N 
HETATM   27  C34 UNL     1      26.177  23.601  22.202  1.00  0.00     0.292 C 
HETATM   28  C33 UNL     1      24.729  23.947  21.896  1.00  0.00     0.153 C 
BRANCH  26  29
HETATM   29  C2  UNL     1      27.433  21.562  22.089  1.00  0.00     0.215 C 
HETATM   30  C1  UNL     1      27.516  20.142  21.559  1.00  0.00     0.042 C 
HETATM   31  C3  UNL     1      27.392  21.627  23.589  1.00  0.00     0.042 C 
ENDBRANCH  26  29
ENDBRANCH  18  23
ENDBRANCH  13  15
ENDBRANCH   1  13
BRANCH  12  32
HETATM   32  N8  UNL     1      19.525  25.603  16.289  1.00  0.00    -0.373 N 
ATOM     33  H8  UNL     1      20.032  26.138  16.993  1.00  0.00     0.161 HD
BRANCH  32  34
HETATM   34  C26 UNL     1      19.875  25.771  14.900  1.00  0.00     0.127 C 
BRANCH  34  35
HETATM   35  C27 UNL     1      21.309  25.451  14.628  1.00  0.00     0.078 C 
BRANCH  35  36
HETATM   36  C28 UNL     1      22.157  26.591  15.062  1.00  0.00     0.027 A 
HETATM   37  C29 UNL     1      21.938  27.889  14.700  1.00  0.00     0.114 A 
HETATM   38  N9  UNL     1      22.882  28.650  15.264  1.00  0.00    -0.360 N 
HETATM   39  C30 UNL     1      23.683  27.820  15.974  1.00  0.00     0.180 A 
ATOM     40  H9  UNL     1      22.981  29.662  15.176  1.00  0.00     0.166 HD
HETATM   41  N10 UNL     1      23.237  26.566  15.848  1.00  0.00    -0.355 N 
ATOM     42  H10 UNL     1      23.648  25.737  16.277  1.00  0.00     0.166 HD
ENDBRANCH  35  36
ENDBRANCH  34  35
ENDBRANCH  32  34
ENDBRANCH  12  32
BRANCH   6  43
HETATM   43  C14 UNL     1      13.826  20.680  17.568  1.00  0.00     0.251 C 
HETATM   44  O1  UNL     1      13.782  20.629  18.835  1.00  0.00    -0.268 OA
HETATM   45  N5  UNL     1      13.022  19.965  16.686  1.00  0.00    -0.355 N 
ATOM     46  H5  UNL     1      13.218  20.151  15.703  1.00  0.00     0.162 HD
BRANCH  45  47
HETATM   47  C15 UNL     1      11.972  19.018  16.898  1.00  0.00     0.153 C 
BRANCH  47  48
HETATM   48  C16 UNL     1      11.390  18.893  18.261  1.00  0.00     0.292 C 
BRANCH  48  49
HETATM   49  N6  UNL     1      11.527  17.613  18.835  1.00  0.00     0.090 N 
HETATM   50  C17 UNL     1      11.055  17.543  20.208  1.00  0.00     0.272 C 
HETATM   51  C18 UNL     1      12.107  16.992  21.156  1.00  0.00     0.030 C 
HETATM   52  C19 UNL     1      13.345  17.860  20.960  1.00  0.00     0.003 C 
HETATM   53  C20 UNL     1      13.874  17.527  19.588  1.00  0.00     0.030 C 
HETATM   54  C21 UNL     1      12.819  17.008  18.661  1.00  0.00     0.272 C 
ENDBRANCH  48  49
ENDBRANCH  47  48
ENDBRANCH  45  47
ENDBRANCH   6  43
TORSDOF 12
ENDMDL
MODEL 2
REMARK VINA RESULT: -9.888227382      5.015     13.522
REMARK  12 active torsions:
REMARK  status: ('A' for Active; 'I' for Inactive)
REMARK    1  A    between atoms: C2_2  and  N1_4 
REMARK    2  A    between atoms: N2_7  and  C6_8 
REMARK    3  A    between atoms: C9_11  and  N3_12 
REMARK    4  A    between atoms: N3_12  and  C10_14 
REMARK    5  A    between atoms: C13_19  and  C14_20 
REMARK       I    between atoms: C14_20  and  N5_22 
REMARK    6  A    between atoms: N5_22  and  C15_24 
REMARK    7  A    between atoms: C15_24  and  C16_25 
REMARK    8  A    between atoms: C16_25  and  N6_26 
REMARK    9  A    between atoms: C25_37  and  N8_38 
REMARK   10  A    between atoms: N8_38  and  C26_40 
REMARK   11  A    between atoms: C26_40  and  C27_41 
REMARK   12  A    between atoms: C27_41  and  C28_42 
ROOT
HETATM    1  C10 UNL     1      13.880  21.313  16.990  1.00  0.00     0.151 A 
HETATM    2  N4  UNL     1      14.934  22.064  16.632  1.00  0.00    -0.338 N 
ATOM      3  H4  UNL     1      14.903  22.557  15.740  1.00  0.00     0.167 HD
HETATM    4  C11 UNL     1      16.036  22.192  17.407  1.00  0.00     0.061 A 
HETATM    5  C12 UNL     1      17.125  22.950  17.041  1.00  0.00     0.049 A 
HETATM    6  C13 UNL     1      18.271  23.096  17.801  1.00  0.00     0.034 A 
HETATM    7  C22 UNL     1      18.327  22.445  18.993  1.00  0.00     0.019 A 
HETATM    8  C23 UNL     1      17.238  21.655  19.417  1.00  0.00     0.033 A 
HETATM    9  C24 UNL     1      16.119  21.542  18.624  1.00  0.00     0.060 A 
HETATM   10  N7  UNL     1      15.068  20.774  19.018  1.00  0.00    -0.338 N 
ATOM     11  H7  UNL     1      15.099  20.282  19.910  1.00  0.00     0.167 HD
HETATM   12  C25 UNL     1      13.993  20.666  18.230  1.00  0.00     0.146 A 
ENDROOT
BRANCH   1  13
HETATM   13  N3  UNL     1      12.850  21.170  16.281  1.00  0.00    -0.337 N 
ATOM     14  H3  UNL     1      12.099  21.835  16.467  1.00  0.00     0.167 HD
BRANCH  13  15
HETATM   15  C9  UNL     1      12.582  20.230  15.271  1.00  0.00     0.074 A 
HETATM   16  C8  UNL     1      13.350  20.181  14.107  1.00  0.00     0.035 A 
HETATM   17  C7  UNL     1      13.098  19.279  13.100  1.00  0.00     0.033 A 
HETATM   18  C6  UNL     1      12.044  18.360  13.208  1.00  0.00     0.055 A 
HETATM   19  C32 UNL     1      11.283  18.396  14.347  1.00  0.00     0.101 A 
HETATM   20  C31 UNL     1      11.552  19.319  15.360  1.00  0.00     0.167 A 
HETATM   21 CL1  UNL     1       9.952  17.265  14.493  1.00  0.00    -0.079 Cl
HETATM   22  F1  UNL     1      10.743  19.276  16.433  1.00  0.00    -0.202 F 
BRANCH  18  23
HETATM   23  N2  UNL     1      11.864  17.463  12.124  1.00  0.00    -0.376 N 
HETATM   24  C5  UNL     1      10.805  17.712  11.180  1.00  0.00     0.153 C 
HETATM   25  C4  UNL     1      10.645  16.630  10.142  1.00  0.00     0.292 C 
HETATM   26  N1  UNL     1      11.145  15.401  10.662  1.00  0.00     0.095 N 
HETATM   27  C34 UNL     1      12.601  15.561  10.781  1.00  0.00     0.292 C 
HETATM   28  C33 UNL     1      12.792  16.352  12.063  1.00  0.00     0.153 C 
BRANCH  26  29
HETATM   29  C2  UNL     1      10.799  14.223   9.934  1.00  0.00     0.215 C 
HETATM   30  C1  UNL     1      10.090  13.172  10.769  1.00  0.00     0.042 C 
HETATM   31  C3  UNL     1      11.947  13.665   9.141  1.00  0.00     0.042 C 
ENDBRANCH  26  29
ENDBRANCH  18  23
ENDBRANCH  13  15
ENDBRANCH   1  13
BRANCH  12  32
HETATM   32  N8  UNL     1      12.992  19.942  18.593  1.00  0.00    -0.373 N 
ATOM     33  H8  UNL     1      12.078  20.120  18.177  1.00  0.00     0.161 HD
BRANCH  32  34
HETATM   34  C26 UNL     1      13.121  18.889  19.569  1.00  0.00     0.127 C 
BRANCH  34  35
HETATM   35  C27 UNL     1      13.296  17.545  18.941  1.00  0.00     0.078 C 
BRANCH  35  36
HETATM   36  C28 UNL     1      11.966  16.909  18.761  1.00  0.00     0.027 A 
HETATM   37  C29 UNL     1      11.029  16.802  19.750  1.00  0.00     0.114 A 
HETATM   38  N9  UNL     1       9.956  16.181  19.249  1.00  0.00    -0.360 N 
HETATM   39  C30 UNL     1      10.231  15.905  17.952  1.00  0.00     0.180 A 
ATOM     40  H9  UNL     1       9.095  15.957  19.749  1.00  0.00     0.166 HD
HETATM   41  N10 UNL     1      11.457  16.351  17.660  1.00  0.00    -0.355 N 
ATOM     42  H10 UNL     1      11.922  16.279  16.755  1.00  0.00     0.166 HD
ENDBRANCH  35  36
ENDBRANCH  34  35
ENDBRANCH  32  34
ENDBRANCH  12  32
BRANCH   6  43
HETATM   43  C14 UNL     1      19.375  23.928  17.283  1.00  0.00     0.251 C 
HETATM   44  O1  UNL     1      19.781  23.598  16.126  1.00  0.00    -0.268 OA
HETATM   45  N5  UNL     1      19.871  24.968  18.064  1.00  0.00    -0.355 N 
ATOM     46  H5  UNL     1      19.405  25.067  18.966  1.00  0.00     0.162 HD
BRANCH  45  47
HETATM   47  C15 UNL     1      20.911  25.923  17.842  1.00  0.00     0.153 C 
BRANCH  47  48
HETATM   48  C16 UNL     1      20.671  27.025  16.873  1.00  0.00     0.292 C 
BRANCH  48  49
HETATM   49  N6  UNL     1      21.557  27.038  15.776  1.00  0.00     0.090 N 
HETATM   50  C17 UNL     1      21.739  28.358  15.197  1.00  0.00     0.272 C 
HETATM   51  C18 UNL     1      21.463  28.379  13.703  1.00  0.00     0.030 C 
HETATM   52  C19 UNL     1      20.063  27.803  13.526  1.00  0.00     0.003 C 
HETATM   53  C20 UNL     1      20.172  26.336  13.861  1.00  0.00     0.030 C 
HETATM   54  C21 UNL     1      21.306  26.027  14.786  1.00  0.00     0.272 C 
ENDBRANCH  48  49
ENDBRANCH  47  48
ENDBRANCH  45  47
ENDBRANCH   6  43
TORSDOF 12
ENDMDL
MODEL 3
REMARK VINA RESULT: -9.787959742      5.133     13.553
REMARK  12 active torsions:
REMARK  status: ('A' for Active; 'I' for Inactive)
REMARK    1  A    between atoms: C2_2  and  N1_4 
REMARK    2  A    between atoms: N2_7  and  C6_8 
REMARK    3  A    between atoms: C9_11  and  N3_12 
REMARK    4  A    between atoms: N3_12  and  C10_14 
REMARK    5  A    between atoms: C13_19  and  C14_20 
REMARK       I    between atoms: C14_20  and  N5_22 
REMARK    6  A    between atoms: N5_22  and  C15_24 
REMARK    7  A    between atoms: C15_24  and  C16_25 
REMARK    8  A    between atoms: C16_25  and  N6_26 
REMARK    9  A    between atoms: C25_37  and  N8_38 
REMARK   10  A    between atoms: N8_38  and  C26_40 
REMARK   11  A    between atoms: C26_40  and  C27_41 
REMARK   12  A    between atoms: C27_41  and  C28_42 
ROOT
HETATM    1  C10 UNL     1      13.807  21.232  16.847  1.00  0.00     0.151 A 
HETATM    2  N4  UNL     1      14.856  21.999  16.510  1.00  0.00    -0.338 N 
ATOM      3  H4  UNL     1      14.819  22.523  15.635  1.00  0.00     0.167 HD
HETATM    4  C11 UNL     1      15.961  22.105  17.284  1.00  0.00     0.061 A 
HETATM    5  C12 UNL     1      17.045  22.880  16.940  1.00  0.00     0.049 A 
HETATM    6  C13 UNL     1      18.194  23.005  17.699  1.00  0.00     0.034 A 
HETATM    7  C22 UNL     1      18.258  22.312  18.867  1.00  0.00     0.019 A 
HETATM    8  C23 UNL     1      17.175  21.503  19.268  1.00  0.00     0.033 A 
HETATM    9  C24 UNL     1      16.053  21.413  18.477  1.00  0.00     0.060 A 
HETATM   10  N7  UNL     1      15.006  20.627  18.848  1.00  0.00    -0.338 N 
ATOM     11  H7  UNL     1      15.044  20.104  19.723  1.00  0.00     0.167 HD
HETATM   12  C25 UNL     1      13.929  20.542  18.063  1.00  0.00     0.146 A 
ENDROOT
BRANCH   1  13
HETATM   13  N3  UNL     1      12.774  21.109  16.137  1.00  0.00    -0.337 N 
ATOM     14  H3  UNL     1      12.044  21.802  16.309  1.00  0.00     0.167 HD
BRANCH  13  15
HETATM   15  C9  UNL     1      12.477  20.160  15.145  1.00  0.00     0.074 A 
HETATM   16  C8  UNL     1      13.243  20.067  13.981  1.00  0.00     0.035 A 
HETATM   17  C7  UNL     1      12.964  19.155  12.991  1.00  0.00     0.033 A 
HETATM   18  C6  UNL     1      11.883  18.270  13.115  1.00  0.00     0.055 A 
HETATM   19  C32 UNL     1      11.123  18.350  14.253  1.00  0.00     0.101 A 
HETATM   20  C31 UNL     1      11.420  19.282  15.249  1.00  0.00     0.167 A 
HETATM   21 CL1  UNL     1       9.759  17.262  14.418  1.00  0.00    -0.079 Cl
HETATM   22  F1  UNL     1      10.610  19.283  16.323  1.00  0.00    -0.202 F 
BRANCH  18  23
HETATM   23  N2  UNL     1      11.675  17.361  12.046  1.00  0.00    -0.376 N 
HETATM   24  C5  UNL     1      12.375  16.102  12.056  1.00  0.00     0.153 C 
HETATM   25  C4  UNL     1      12.159  15.274  10.814  1.00  0.00     0.292 C 
HETATM   26  N1  UNL     1      11.825  16.134   9.727  1.00  0.00     0.095 N 
HETATM   27  C34 UNL     1      10.493  16.678  10.021  1.00  0.00     0.292 C 
HETATM   28  C33 UNL     1      10.751  17.795  11.019  1.00  0.00     0.153 C 
BRANCH  26  29
HETATM   29  C2  UNL     1      11.885  15.554   8.424  1.00  0.00     0.215 C 
HETATM   30  C1  UNL     1      13.219  14.910   8.098  1.00  0.00     0.042 C 
HETATM   31  C3  UNL     1      11.404  16.485   7.347  1.00  0.00     0.042 C 
ENDBRANCH  26  29
ENDBRANCH  18  23
ENDBRANCH  13  15
ENDBRANCH   1  13
BRANCH  12  32
HETATM   32  N8  UNL     1      12.932  19.802  18.405  1.00  0.00    -0.373 N 
ATOM     33  H8  UNL     1      12.056  19.887  17.890  1.00  0.00     0.161 HD
BRANCH  32  34
HETATM   34  C26 UNL     1      13.015  18.858  19.491  1.00  0.00     0.127 C 
BRANCH  34  35
HETATM   35  C27 UNL     1      13.185  17.452  19.015  1.00  0.00     0.078 C 
BRANCH  35  36
HETATM   36  C28 UNL     1      11.849  16.861  18.741  1.00  0.00     0.027 A 
HETATM   37  C29 UNL     1      10.879  16.691  19.688  1.00  0.00     0.114 A 
HETATM   38  N9  UNL     1       9.811  16.138  19.104  1.00  0.00    -0.360 N 
HETATM   39  C30 UNL     1      10.123  15.967  17.797  1.00  0.00     0.180 A 
ATOM     40  H9  UNL     1       8.930  15.891  19.555  1.00  0.00     0.166 HD
HETATM   41  N10 UNL     1      11.366  16.409  17.581  1.00  0.00    -0.355 N 
ATOM     42  H10 UNL     1      11.859  16.403  16.688  1.00  0.00     0.166 HD
ENDBRANCH  35  36
ENDBRANCH  34  35
ENDBRANCH  32  34
ENDBRANCH  12  32
BRANCH   6  43
HETATM   43  C14 UNL     1      19.292  23.859  17.205  1.00  0.00     0.251 C 
HETATM   44  O1  UNL     1      19.700  23.565  16.040  1.00  0.00    -0.268 OA
HETATM   45  N5  UNL     1      19.781  24.879  18.016  1.00  0.00    -0.355 N 
ATOM     46  H5  UNL     1      19.314  24.949  18.920  1.00  0.00     0.162 HD
BRANCH  45  47
HETATM   47  C15 UNL     1      20.814  25.848  17.821  1.00  0.00     0.153 C 
BRANCH  47  48
HETATM   48  C16 UNL     1      20.578  26.958  16.860  1.00  0.00     0.292 C 
BRANCH  48  49
HETATM   49  N6  UNL     1      21.469  26.980  15.769  1.00  0.00     0.090 N 
HETATM   50  C17 UNL     1      21.644  28.303  15.193  1.00  0.00     0.272 C 
HETATM   51  C18 UNL     1      21.376  28.325  13.698  1.00  0.00     0.030 C 
HETATM   52  C19 UNL     1      19.982  27.738  13.511  1.00  0.00     0.003 C 
HETATM   53  C20 UNL     1      20.101  26.272  13.844  1.00  0.00     0.030 C 
HETATM   54  C21 UNL     1      21.233  25.969  14.775  1.00  0.00     0.272 C 
ENDBRANCH  48  49
ENDBRANCH  47  48
ENDBRANCH  45  47
ENDBRANCH   6  43
TORSDOF 12
ENDMDL
MODEL 4
REMARK VINA RESULT: -9.756402383      1.142      1.576
REMARK  12 active torsions:
REMARK  status: ('A' for Active; 'I' for Inactive)
REMARK    1  A    between atoms: C2_2  and  N1_4 
REMARK    2  A    between atoms: N2_7  and  C6_8 
REMARK    3  A    between atoms: C9_11  and  N3_12 
REMARK    4  A    between atoms: N3_12  and  C10_14 
REMARK    5  A    between atoms: C13_19  and  C14_20 
REMARK       I    between atoms: C14_20  and  N5_22 
REMARK    6  A    between atoms: N5_22  and  C15_24 
REMARK    7  A    between atoms: C15_24  and  C16_25 
REMARK    8  A    between atoms: C16_25  and  N6_26 
REMARK    9  A    between atoms: C25_37  and  N8_38 
REMARK   10  A    between atoms: N8_38  and  C26_40 
REMARK   11  A    between atoms: C26_40  and  C27_41 
REMARK   12  A    between atoms: C27_41  and  C28_42 
ROOT
HETATM    1  C10 UNL     1      18.129  24.279  18.028  1.00  0.00     0.151 A 
HETATM    2  N4  UNL     1      17.224  23.370  18.425  1.00  0.00    -0.338 N 
ATOM      3  H4  UNL     1      17.083  23.224  19.425  1.00  0.00     0.167 HD
HETATM    4  C11 UNL     1      16.492  22.640  17.551  1.00  0.00     0.061 A 
HETATM    5  C12 UNL     1      15.571  21.699  17.951  1.00  0.00     0.049 A 
HETATM    6  C13 UNL     1      14.813  20.927  17.089  1.00  0.00     0.034 A 
HETATM    7  C22 UNL     1      14.990  21.111  15.754  1.00  0.00     0.019 A 
HETATM    8  C23 UNL     1      15.921  22.064  15.290  1.00  0.00     0.033 A 
HETATM    9  C24 UNL     1      16.651  22.807  16.188  1.00  0.00     0.060 A 
HETATM   10  N7  UNL     1      17.560  23.721  15.753  1.00  0.00    -0.338 N 
ATOM     11  H7  UNL     1      17.699  23.868  14.754  1.00  0.00     0.167 HD
HETATM   12  C25 UNL     1      18.268  24.427  16.640  1.00  0.00     0.146 A 
ENDROOT
BRANCH   1  13
HETATM   13  N3  UNL     1      18.829  24.962  18.822  1.00  0.00    -0.337 N 
ATOM     14  H3  UNL     1      18.380  25.803  19.184  1.00  0.00     0.167 HD
BRANCH  13  15
HETATM   15  C9  UNL     1      20.138  24.736  19.281  1.00  0.00     0.074 A 
HETATM   16  C8  UNL     1      20.464  23.581  19.994  1.00  0.00     0.035 A 
HETATM   17  C7  UNL     1      21.735  23.345  20.464  1.00  0.00     0.033 A 
HETATM   18  C6  UNL     1      22.765  24.270  20.242  1.00  0.00     0.055 A 
HETATM   19  C32 UNL     1      22.459  25.408  19.544  1.00  0.00     0.101 A 
HETATM   20  C31 UNL     1      21.163  25.633  19.072  1.00  0.00     0.167 A 
HETATM   21 CL1  UNL     1      23.730  26.582  19.269  1.00  0.00    -0.079 Cl
HETATM   22  F1  UNL     1      20.965  26.782  18.403  1.00  0.00    -0.202 F 
BRANCH  18  23
HETATM   23  N2  UNL     1      24.044  23.939  20.759  1.00  0.00    -0.376 N 
HETATM   24  C5  UNL     1      24.978  23.239  19.915  1.00  0.00     0.153 C 
HETATM   25  C4  UNL     1      26.255  22.845  20.614  1.00  0.00     0.292 C 
HETATM   26  N1  UNL     1      26.009  22.725  22.012  1.00  0.00     0.095 N 
HETATM   27  C34 UNL     1      25.744  24.082  22.507  1.00  0.00     0.292 C 
HETATM   28  C33 UNL     1      24.298  24.349  22.125  1.00  0.00     0.153 C 
BRANCH  26  29
HETATM   29  C2  UNL     1      27.023  22.071  22.777  1.00  0.00     0.215 C 
HETATM   30  C1  UNL     1      28.107  23.004  23.284  1.00  0.00     0.042 C 
HETATM   31  C3  UNL     1      27.571  20.848  22.098  1.00  0.00     0.042 C 
ENDBRANCH  26  29
ENDBRANCH  18  23
ENDBRANCH  13  15
ENDBRANCH   1  13
BRANCH  12  32
HETATM   32  N8  UNL     1      19.130  25.295  16.239  1.00  0.00    -0.373 N 
ATOM     33  H8  UNL     1      19.589  25.890  16.929  1.00  0.00     0.161 HD
BRANCH  32  34
HETATM   34  C26 UNL     1      19.467  25.455  14.846  1.00  0.00     0.127 C 
BRANCH  34  35
HETATM   35  C27 UNL     1      20.910  25.182  14.572  1.00  0.00     0.078 C 
BRANCH  35  36
HETATM   36  C28 UNL     1      21.712  26.386  14.913  1.00  0.00     0.027 A 
HETATM   37  C29 UNL     1      21.438  27.643  14.453  1.00  0.00     0.114 A 
HETATM   38  N9  UNL     1      22.351  28.483  14.952  1.00  0.00    -0.360 N 
HETATM   39  C30 UNL     1      23.187  27.744  15.719  1.00  0.00     0.180 A 
ATOM     40  H9  UNL     1      22.407  29.488  14.786  1.00  0.00     0.166 HD
HETATM   41  N10 UNL     1      22.793  26.466  15.692  1.00  0.00    -0.355 N 
ATOM     42  H10 UNL     1      23.239  25.691  16.181  1.00  0.00     0.166 HD
ENDBRANCH  35  36
ENDBRANCH  34  35
ENDBRANCH  32  34
ENDBRANCH  12  32
BRANCH   6  43
HETATM   43  C14 UNL     1      13.870  19.939  17.650  1.00  0.00     0.251 C 
HETATM   44  O1  UNL     1      14.424  18.988  18.281  1.00  0.00    -0.268 OA
HETATM   45  N5  UNL     1      12.503  20.113  17.454  1.00  0.00    -0.355 N 
ATOM     46  H5  UNL     1      12.265  20.946  16.917  1.00  0.00     0.162 HD
BRANCH  45  47
HETATM   47  C15 UNL     1      11.370  19.343  17.864  1.00  0.00     0.153 C 
BRANCH  47  48
HETATM   48  C16 UNL     1      10.840  18.307  16.938  1.00  0.00     0.292 C 
BRANCH  48  49
HETATM   49  N6  UNL     1      11.339  17.010  17.172  1.00  0.00     0.090 N 
HETATM   50  C17 UNL     1      10.568  15.967  16.515  1.00  0.00     0.272 C 
HETATM   51  C18 UNL     1      10.106  14.890  17.482  1.00  0.00     0.030 C 
HETATM   52  C19 UNL     1       9.360  15.617  18.596  1.00  0.00     0.003 C 
HETATM   53  C20 UNL     1      10.407  16.381  19.367  1.00  0.00     0.030 C 
HETATM   54  C21 UNL     1      11.617  16.710  18.550  1.00  0.00     0.272 C 
ENDBRANCH  48  49
ENDBRANCH  47  48
ENDBRANCH  45  47
ENDBRANCH   6  43
TORSDOF 12
ENDMDL
MODEL 5
REMARK VINA RESULT: -9.713325039      1.313      2.271
REMARK  12 active torsions:
REMARK  status: ('A' for Active; 'I' for Inactive)
REMARK    1  A    between atoms: C2_2  and  N1_4 
REMARK    2  A    between atoms: N2_7  and  C6_8 
REMARK    3  A    between atoms: C9_11  and  N3_12 
REMARK    4  A    between atoms: N3_12  and  C10_14 
REMARK    5  A    between atoms: C13_19  and  C14_20 
REMARK       I    between atoms: C14_20  and  N5_22 
REMARK    6  A    between atoms: N5_22  and  C15_24 
REMARK    7  A    between atoms: C15_24  and  C16_25 
REMARK    8  A    between atoms: C16_25  and  N6_26 
REMARK    9  A    between atoms: C25_37  and  N8_38 
REMARK   10  A    between atoms: N8_38  and  C26_40 
REMARK   11  A    between atoms: C26_40  and  C27_41 
REMARK   12  A    between atoms: C27_41  and  C28_42 
ROOT
HETATM    1  C10 UNL     1      18.402  24.402  18.157  1.00  0.00     0.151 A 
HETATM    2  N4  UNL     1      17.556  23.419  18.504  1.00  0.00    -0.338 N 
ATOM      3  H4  UNL     1      17.480  23.162  19.488  1.00  0.00     0.167 HD
HETATM    4  C11 UNL     1      16.800  22.755  17.598  1.00  0.00     0.061 A 
HETATM    5  C12 UNL     1      15.940  21.738  17.944  1.00  0.00     0.049 A 
HETATM    6  C13 UNL     1      15.160  21.030  17.047  1.00  0.00     0.034 A 
HETATM    7  C22 UNL     1      15.250  21.361  15.732  1.00  0.00     0.019 A 
HETATM    8  C23 UNL     1      16.116  22.396  15.323  1.00  0.00     0.033 A 
HETATM    9  C24 UNL     1      16.872  23.071  16.255  1.00  0.00     0.060 A 
HETATM   10  N7  UNL     1      17.719  24.064  15.871  1.00  0.00    -0.338 N 
ATOM     11  H7  UNL     1      17.793  24.321  14.887  1.00  0.00     0.167 HD
HETATM   12  C25 UNL     1      18.453  24.701  16.787  1.00  0.00     0.146 A 
ENDROOT
BRANCH   1  13
HETATM   13  N3  UNL     1      19.123  25.026  18.980  1.00  0.00    -0.337 N 
ATOM     14  H3  UNL     1      18.678  25.828  19.426  1.00  0.00     0.167 HD
BRANCH  13  15
HETATM   15  C9  UNL     1      20.450  24.780  19.373  1.00  0.00     0.074 A 
HETATM   16  C8  UNL     1      20.810  23.583  19.994  1.00  0.00     0.035 A 
HETATM   17  C7  UNL     1      22.099  23.327  20.399  1.00  0.00     0.033 A 
HETATM   18  C6  UNL     1      23.115  24.273  20.200  1.00  0.00     0.055 A 
HETATM   19  C32 UNL     1      22.775  25.452  19.591  1.00  0.00     0.101 A 
HETATM   20  C31 UNL     1      21.462  25.697  19.185  1.00  0.00     0.167 A 
HETATM   21 CL1  UNL     1      24.029  26.652  19.347  1.00  0.00    -0.079 Cl
HETATM   22  F1  UNL     1      21.232  26.887  18.602  1.00  0.00    -0.202 F 
BRANCH  18  23
HETATM   23  N2  UNL     1      24.414  23.918  20.645  1.00  0.00    -0.376 N 
HETATM   24  C5  UNL     1      25.279  23.182  19.758  1.00  0.00     0.153 C 
HETATM   25  C4  UNL     1      26.586  22.767  20.385  1.00  0.00     0.292 C 
HETATM   26  N1  UNL     1      26.423  22.676  21.798  1.00  0.00     0.095 N 
HETATM   27  C34 UNL     1      26.220  24.047  22.284  1.00  0.00     0.292 C 
HETATM   28  C33 UNL     1      24.760  24.344  21.985  1.00  0.00     0.153 C 
BRANCH  26  29
HETATM   29  C2  UNL     1      27.465  22.010  22.511  1.00  0.00     0.215 C 
HETATM   30  C1  UNL     1      27.480  20.506  22.314  1.00  0.00     0.042 C 
HETATM   31  C3  UNL     1      27.535  22.413  23.957  1.00  0.00     0.042 C 
ENDBRANCH  26  29
ENDBRANCH  18  23
ENDBRANCH  13  15
ENDBRANCH   1  13
BRANCH  12  32
HETATM   32  N8  UNL     1      19.257  25.643  16.435  1.00  0.00    -0.373 N 
ATOM     33  H8  UNL     1      19.727  26.187  17.159  1.00  0.00     0.161 HD
BRANCH  32  34
HETATM   34  C26 UNL     1      19.516  25.953  15.051  1.00  0.00     0.127 C 
BRANCH  34  35
HETATM   35  C27 UNL     1      20.891  25.558  14.623  1.00  0.00     0.078 C 
BRANCH  35  36
HETATM   36  C28 UNL     1      21.854  26.618  15.021  1.00  0.00     0.027 A 
HETATM   37  C29 UNL     1      21.745  27.928  14.650  1.00  0.00     0.114 A 
HETATM   38  N9  UNL     1      22.771  28.603  15.179  1.00  0.00    -0.360 N 
HETATM   39  C30 UNL     1      23.511  27.709  15.876  1.00  0.00     0.180 A 
ATOM     40  H9  UNL     1      22.960  29.601  15.077  1.00  0.00     0.166 HD
HETATM   41  N10 UNL     1      22.948  26.500  15.777  1.00  0.00    -0.355 N 
ATOM     42  H10 UNL     1      23.293  25.641  16.203  1.00  0.00     0.166 HD
ENDBRANCH  35  36
ENDBRANCH  34  35
ENDBRANCH  32  34
ENDBRANCH  12  32
BRANCH   6  43
HETATM   43  C14 UNL     1      14.288  19.949  17.550  1.00  0.00     0.251 C 
HETATM   44  O1  UNL     1      14.882  19.094  18.276  1.00  0.00    -0.268 OA
HETATM   45  N5  UNL     1      12.940  19.945  17.206  1.00  0.00    -0.355 N 
ATOM     46  H5  UNL     1      12.661  20.725  16.612  1.00  0.00     0.162 HD
BRANCH  45  47
HETATM   47  C15 UNL     1      11.871  19.052  17.530  1.00  0.00     0.153 C 
BRANCH  47  48
HETATM   48  C16 UNL     1      10.472  19.515  17.333  1.00  0.00     0.292 C 
BRANCH  48  49
HETATM   49  N6  UNL     1       9.933  19.215  16.066  1.00  0.00     0.090 N 
HETATM   50  C17 UNL     1      10.746  18.286  15.298  1.00  0.00     0.272 C 
HETATM   51  C18 UNL     1      11.098  18.824  13.922  1.00  0.00     0.030 C 
HETATM   52  C19 UNL     1      11.747  20.183  14.154  1.00  0.00     0.003 C 
HETATM   53  C20 UNL     1      10.644  21.093  14.636  1.00  0.00     0.030 C 
HETATM   54  C21 UNL     1       9.522  20.358  15.298  1.00  0.00     0.272 C 
ENDBRANCH  48  49
ENDBRANCH  47  48
ENDBRANCH  45  47
ENDBRANCH   6  43
TORSDOF 12
ENDMDL
